MODEL 1
REMARK VINA RESULT:      -7.7      0.000      0.000
REMARK  Name = 
REMARK  7 active torsions:
REMARK  status: ('A' for Active; 'I' for Inactive)
REMARK    1  A    between atoms: C_1  and  C_2
REMARK    2  A    between atoms: C_2  and  C_3
REMARK    3  A    between atoms: C_2  and  C_4
REMARK    4  A    between atoms: C_2  and  C_5
REMARK    5  A    between atoms: C_8  and  C_9
REMARK    6  A    between atoms: C_9  and  N_10
REMARK    7  A    between atoms: C_13  and  C_14
REMARK                            x       y       z     vdW  Elec       q    Type
REMARK                         _______ _______ _______ _____ _____    ______ ____
ROOT
ATOM      1  N   UNL     1       6.890   6.202  17.516  0.00  0.00    +0.000 NA
ATOM      2  C   UNL     1       7.116   4.756  17.402  0.00  0.00    +0.000 C 
ATOM      3  C   UNL     1       6.017   4.031  16.616  0.00  0.00    +0.000 C 
ATOM      4  C   UNL     1       4.602   4.346  17.115  0.00  0.00    +0.000 C 
ATOM      5  C   UNL     1       4.433   5.865  17.196  0.00  0.00    +0.000 C 
ATOM      6  C   UNL     1       5.547   6.543  18.001  0.00  0.00    +0.000 C 
ENDROOT
BRANCH   4   7
ATOM      7  C   UNL     1       4.278   3.654  18.406  0.00  0.00    +0.000 A 
ATOM      8  N   UNL     1       5.121   3.045  19.233  0.00  0.00    +0.000 NA
ATOM      9  N   UNL     1       4.409   2.506  20.301  0.00  0.00    +0.000 NA
ATOM     10  C   UNL     1       3.158   2.802  20.089  0.00  0.00    +0.000 A 
ATOM     11  N   UNL     1       3.043   3.505  18.929  0.00  0.00    +0.000 N 
ATOM     12  C   UNL     1       1.679   3.877  18.638  0.00  0.00    +0.000 C 
ATOM     13  C   UNL     1       1.002   3.674  20.014  0.00  0.00    +0.000 C 
ATOM     14  C   UNL     1       1.855   2.605  20.741  0.00  0.00    +0.000 C 
ENDBRANCH   4   7
BRANCH   1  15
ATOM     15  C   UNL     1       7.949   6.839  18.356  0.00  0.00    +0.000 C 
BRANCH  15  19
ATOM     16  C   UNL     1       8.959  10.286  18.667  0.00  0.00    +0.000 A 
ATOM     17  C   UNL     1       8.140  10.342  17.560  0.00  0.00    +0.000 A 
ATOM     18  N   UNL     1       7.682   9.099  17.230  0.00  0.00    +0.000 NA
ATOM     19  C   UNL     1       8.168   8.321  18.179  0.00  0.00    +0.000 A 
ATOM     20  O   UNL     1       8.981   8.973  19.084  0.00  0.00    +0.000 OA
BRANCH  16  22
ATOM     21  C   UNL     1       9.471  11.137  20.952  0.00  0.00    +0.000 C 
ATOM     22  C   UNL     1       9.710  11.341  19.445  0.00  0.00    +0.000 C 
ATOM     23  C   UNL     1       9.182  12.741  19.053  0.00  0.00    +0.000 C 
ATOM     24  C   UNL     1      11.223  11.320  19.174  0.00  0.00    +0.000 C 
ENDBRANCH  16  22
ENDBRANCH  15  19
ENDBRANCH   1  15
TORSDOF 4
ENDMDL
MODEL 2
REMARK VINA RESULT:      -7.3      5.275      7.326
REMARK  Name = 
REMARK  7 active torsions:
REMARK  status: ('A' for Active; 'I' for Inactive)
REMARK    1  A    between atoms: C_1  and  C_2
REMARK    2  A    between atoms: C_2  and  C_3
REMARK    3  A    between atoms: C_2  and  C_4
REMARK    4  A    between atoms: C_2  and  C_5
REMARK    5  A    between atoms: C_8  and  C_9
REMARK    6  A    between atoms: C_9  and  N_10
REMARK    7  A    between atoms: C_13  and  C_14
REMARK                            x       y       z     vdW  Elec       q    Type
REMARK                         _______ _______ _______ _____ _____    ______ ____
ROOT
ATOM      1  N   UNL     1       1.522   7.237  20.158  0.00  0.00    +0.000 NA
ATOM      2  C   UNL     1       2.345   7.727  19.046  0.00  0.00    +0.000 C 
ATOM      3  C   UNL     1       2.391   6.761  17.855  0.00  0.00    +0.000 C 
ATOM      4  C   UNL     1       2.765   5.327  18.248  0.00  0.00    +0.000 C 
ATOM      5  C   UNL     1       1.862   4.878  19.400  0.00  0.00    +0.000 C 
ATOM      6  C   UNL     1       1.859   5.868  20.570  0.00  0.00    +0.000 C 
ENDROOT
BRANCH   4   7
ATOM      7  C   UNL     1       4.225   5.176  18.560  0.00  0.00    +0.000 A 
ATOM      8  N   UNL     1       4.805   5.204  19.755  0.00  0.00    +0.000 NA
ATOM      9  N   UNL     1       6.182   5.058  19.600  0.00  0.00    +0.000 NA
ATOM     10  C   UNL     1       6.393   4.949  18.320  0.00  0.00    +0.000 A 
ATOM     11  N   UNL     1       5.210   5.022  17.651  0.00  0.00    +0.000 N 
ATOM     12  C   UNL     1       5.370   4.897  16.222  0.00  0.00    +0.000 C 
ATOM     13  C   UNL     1       6.794   4.299  16.121  0.00  0.00    +0.000 C 
ATOM     14  C   UNL     1       7.529   4.762  17.403  0.00  0.00    +0.000 C 
ENDBRANCH   4   7
BRANCH   1  15
ATOM     15  C   UNL     1       1.580   8.181  21.315  0.00  0.00    +0.000 C 
BRANCH  15  19
ATOM     16  C   UNL     1      -0.495  10.924  20.233  0.00  0.00    +0.000 A 
ATOM     17  C   UNL     1       0.048  11.436  21.391  0.00  0.00    +0.000 A 
ATOM     18  N   UNL     1       0.845  10.512  22.005  0.00  0.00    +0.000 NA
ATOM     19  C   UNL     1       0.832   9.485  21.176  0.00  0.00    +0.000 A 
ATOM     20  O   UNL     1       0.014   9.653  20.078  0.00  0.00    +0.000 OA
BRANCH  16  22
ATOM     21  C   UNL     1      -1.888  10.387  18.239  0.00  0.00    +0.000 C 
ATOM     22  C   UNL     1      -1.418  11.505  19.186  0.00  0.00    +0.000 C 
ATOM     23  C   UNL     1      -0.652  12.560  18.355  0.00  0.00    +0.000 C 
ATOM     24  C   UNL     1      -2.651  12.194  19.793  0.00  0.00    +0.000 C 
ENDBRANCH  16  22
ENDBRANCH  15  19
ENDBRANCH   1  15
TORSDOF 4
ENDMDL
MODEL 3
REMARK VINA RESULT:      -7.3      3.236     10.084
REMARK  Name = 
REMARK  7 active torsions:
REMARK  status: ('A' for Active; 'I' for Inactive)
REMARK    1  A    between atoms: C_1  and  C_2
REMARK    2  A    between atoms: C_2  and  C_3
REMARK    3  A    between atoms: C_2  and  C_4
REMARK    4  A    between atoms: C_2  and  C_5
REMARK    5  A    between atoms: C_8  and  C_9
REMARK    6  A    between atoms: C_9  and  N_10
REMARK    7  A    between atoms: C_13  and  C_14
REMARK                            x       y       z     vdW  Elec       q    Type
REMARK                         _______ _______ _______ _____ _____    ______ ____
ROOT
ATOM      1  N   UNL     1       9.487  10.344  18.673  0.00  0.00    +0.000 NA
ATOM      2  C   UNL     1      10.390  11.117  17.812  0.00  0.00    +0.000 C 
ATOM      3  C   UNL     1      11.586  11.710  18.568  0.00  0.00    +0.000 C 
ATOM      4  C   UNL     1      11.186  12.496  19.823  0.00  0.00    +0.000 C 
ATOM      5  C   UNL     1      10.259  11.626  20.676  0.00  0.00    +0.000 C 
ATOM      6  C   UNL     1       9.073  11.069  19.882  0.00  0.00    +0.000 C 
ENDROOT
BRANCH   4   7
ATOM      7  C   UNL     1      10.594  13.836  19.500  0.00  0.00    +0.000 A 
ATOM      8  N   UNL     1       9.569  14.433  20.096  0.00  0.00    +0.000 NA
ATOM      9  N   UNL     1       9.321  15.652  19.470  0.00  0.00    +0.000 NA
ATOM     10  C   UNL     1      10.199  15.756  18.515  0.00  0.00    +0.000 A 
ATOM     11  N   UNL     1      10.996  14.652  18.503  0.00  0.00    +0.000 N 
ATOM     12  C   UNL     1      12.005  14.705  17.472  0.00  0.00    +0.000 C 
ATOM     13  C   UNL     1      11.999  16.210  17.110  0.00  0.00    +0.000 C 
ATOM     14  C   UNL     1      10.579  16.715  17.467  0.00  0.00    +0.000 C 
ENDBRANCH   4   7
BRANCH   1  15
ATOM     15  C   UNL     1       8.304   9.860  17.899  0.00  0.00    +0.000 C 
BRANCH  15  19
ATOM     16  C   UNL     1       7.094   6.514  17.316  0.00  0.00    +0.000 A 
ATOM     17  C   UNL     1       7.847   6.335  18.457  0.00  0.00    +0.000 A 
ATOM     18  N   UNL     1       8.454   7.501  18.826  0.00  0.00    +0.000 NA
ATOM     19  C   UNL     1       8.004   8.382  17.953  0.00  0.00    +0.000 A 
ATOM     20  O   UNL     1       7.183   7.847  16.981  0.00  0.00    +0.000 OA
BRANCH  16  22
ATOM     21  C   UNL     1       5.104   6.386  15.823  0.00  0.00    +0.000 C 
ATOM     22  C   UNL     1       6.228   5.582  16.499  0.00  0.00    +0.000 C 
ATOM     23  C   UNL     1       5.584   4.530  17.432  0.00  0.00    +0.000 C 
ATOM     24  C   UNL     1       7.019   4.827  15.418  0.00  0.00    +0.000 C 
ENDBRANCH  16  22
ENDBRANCH  15  19
ENDBRANCH   1  15
TORSDOF 4
ENDMDL
MODEL 4
REMARK VINA RESULT:      -7.2      1.079      1.270
REMARK  Name = 
REMARK  7 active torsions:
REMARK  status: ('A' for Active; 'I' for Inactive)
REMARK    1  A    between atoms: C_1  and  C_2
REMARK    2  A    between atoms: C_2  and  C_3
REMARK    3  A    between atoms: C_2  and  C_4
REMARK    4  A    between atoms: C_2  and  C_5
REMARK    5  A    between atoms: C_8  and  C_9
REMARK    6  A    between atoms: C_9  and  N_10
REMARK    7  A    between atoms: C_13  and  C_14
REMARK                            x       y       z     vdW  Elec       q    Type
REMARK                         _______ _______ _______ _____ _____    ______ ____
ROOT
ATOM      1  N   UNL     1       7.051   6.160  17.591  0.00  0.00    +0.000 NA
ATOM      2  C   UNL     1       6.757   4.794  18.039  0.00  0.00    +0.000 C 
ATOM      3  C   UNL     1       5.729   4.075  17.156  0.00  0.00    +0.000 C 
ATOM      4  C   UNL     1       4.447   4.886  16.929  0.00  0.00    +0.000 C 
ATOM      5  C   UNL     1       4.828   6.290  16.452  0.00  0.00    +0.000 C 
ATOM      6  C   UNL     1       5.846   6.972  17.373  0.00  0.00    +0.000 C 
ENDROOT
BRANCH   4   7
ATOM      7  C   UNL     1       3.554   4.902  18.135  0.00  0.00    +0.000 A 
ATOM      8  N   UNL     1       3.482   5.836  19.077  0.00  0.00    +0.000 NA
ATOM      9  N   UNL     1       2.548   5.451  20.035  0.00  0.00    +0.000 NA
ATOM     10  C   UNL     1       2.085   4.297  19.647  0.00  0.00    +0.000 A 
ATOM     11  N   UNL     1       2.686   3.929  18.483  0.00  0.00    +0.000 N 
ATOM     12  C   UNL     1       2.210   2.660  17.987  0.00  0.00    +0.000 C 
ATOM     13  C   UNL     1       0.900   2.485  18.792  0.00  0.00    +0.000 C 
ATOM     14  C   UNL     1       1.104   3.297  20.095  0.00  0.00    +0.000 C 
ENDBRANCH   4   7
BRANCH   1  15
ATOM     15  C   UNL     1       7.996   6.833  18.532  0.00  0.00    +0.000 C 
BRANCH  15  19
ATOM     16  C   UNL     1       9.039  10.276  18.773  0.00  0.00    +0.000 A 
ATOM     17  C   UNL     1       8.359  10.282  17.574  0.00  0.00    +0.000 A 
ATOM     18  N   UNL     1       7.916   9.029  17.259  0.00  0.00    +0.000 NA
ATOM     19  C   UNL     1       8.267   8.300  18.302  0.00  0.00    +0.000 A 
ATOM     20  O   UNL     1       8.981   8.989  19.261  0.00  0.00    +0.000 OA
BRANCH  16  22
ATOM     21  C   UNL     1       9.405  11.165  21.071  0.00  0.00    +0.000 C 
ATOM     22  C   UNL     1       9.714  11.363  19.577  0.00  0.00    +0.000 C 
ATOM     23  C   UNL     1       9.163  12.741  19.143  0.00  0.00    +0.000 C 
ATOM     24  C   UNL     1      11.240  11.389  19.383  0.00  0.00    +0.000 C 
ENDBRANCH  16  22
ENDBRANCH  15  19
ENDBRANCH   1  15
TORSDOF 4
ENDMDL
MODEL 5
REMARK VINA RESULT:      -7.2      0.933      1.351
REMARK  Name = 
REMARK  7 active torsions:
REMARK  status: ('A' for Active; 'I' for Inactive)
REMARK    1  A    between atoms: C_1  and  C_2
REMARK    2  A    between atoms: C_2  and  C_3
REMARK    3  A    between atoms: C_2  and  C_4
REMARK    4  A    between atoms: C_2  and  C_5
REMARK    5  A    between atoms: C_8  and  C_9
REMARK    6  A    between atoms: C_9  and  N_10
REMARK    7  A    between atoms: C_13  and  C_14
REMARK                            x       y       z     vdW  Elec       q    Type
REMARK                         _______ _______ _______ _____ _____    ______ ____
ROOT
ATOM      1  N   UNL     1       7.172   7.056  17.353  0.00  0.00    +0.000 NA
ATOM      2  C   UNL     1       7.473   5.654  17.039  0.00  0.00    +0.000 C 
ATOM      3  C   UNL     1       6.438   5.005  16.111  0.00  0.00    +0.000 C 
ATOM      4  C   UNL     1       4.992   5.181  16.593  0.00  0.00    +0.000 C 
ATOM      5  C   UNL     1       4.746   6.663  16.888  0.00  0.00    +0.000 C 
ATOM      6  C   UNL     1       5.797   7.262  17.828  0.00  0.00    +0.000 C 
ENDROOT
BRANCH   4   7
ATOM      7  C   UNL     1       4.660   4.293  17.756  0.00  0.00    +0.000 A 
ATOM      8  N   UNL     1       5.479   3.871  18.713  0.00  0.00    +0.000 NA
ATOM      9  N   UNL     1       4.778   3.038  19.582  0.00  0.00    +0.000 NA
ATOM     10  C   UNL     1       3.560   2.980  19.126  0.00  0.00    +0.000 A 
ATOM     11  N   UNL     1       3.455   3.738  18.000  0.00  0.00    +0.000 N 
ATOM     12  C   UNL     1       2.122   3.727  17.445  0.00  0.00    +0.000 C 
ATOM     13  C   UNL     1       1.294   3.192  18.638  0.00  0.00    +0.000 C 
ATOM     14  C   UNL     1       2.281   2.345  19.480  0.00  0.00    +0.000 C 
ENDBRANCH   4   7
BRANCH   1  15
ATOM     15  C   UNL     1       8.169   7.607  18.320  0.00  0.00    +0.000 C 
BRANCH  15  19
ATOM     16  C   UNL     1       9.325  10.977  18.874  0.00  0.00    +0.000 A 
ATOM     17  C   UNL     1       8.458  11.158  17.817  0.00  0.00    +0.000 A 
ATOM     18  N   UNL     1       7.938   9.965  17.405  0.00  0.00    +0.000 NA
ATOM     19  C   UNL     1       8.436   9.091  18.259  0.00  0.00    +0.000 A 
ATOM     20  O   UNL     1       9.315   9.633  19.175  0.00  0.00    +0.000 OA
BRANCH  16  22
ATOM     21  C   UNL     1       9.918  13.374  19.209  0.00  0.00    +0.000 C 
ATOM     22  C   UNL     1      10.151  11.935  19.702  0.00  0.00    +0.000 C 
ATOM     23  C   UNL     1      11.650  11.597  19.533  0.00  0.00    +0.000 C 
ATOM     24  C   UNL     1       9.821  11.864  21.202  0.00  0.00    +0.000 C 
ENDBRANCH  16  22
ENDBRANCH  15  19
ENDBRANCH   1  15
TORSDOF 4
ENDMDL
MODEL 6
REMARK VINA RESULT:      -7.1      5.265      7.354
REMARK  Name = 
REMARK  7 active torsions:
REMARK  status: ('A' for Active; 'I' for Inactive)
REMARK    1  A    between atoms: C_1  and  C_2
REMARK    2  A    between atoms: C_2  and  C_3
REMARK    3  A    between atoms: C_2  and  C_4
REMARK    4  A    between atoms: C_2  and  C_5
REMARK    5  A    between atoms: C_8  and  C_9
REMARK    6  A    between atoms: C_9  and  N_10
REMARK    7  A    between atoms: C_13  and  C_14
REMARK                            x       y       z     vdW  Elec       q    Type
REMARK                         _______ _______ _______ _____ _____    ______ ____
ROOT
ATOM      1  N   UNL     1       1.502   7.242  20.085  0.00  0.00    +0.000 NA
ATOM      2  C   UNL     1       2.438   7.794  19.098  0.00  0.00    +0.000 C 
ATOM      3  C   UNL     1       2.604   6.907  17.858  0.00  0.00    +0.000 C 
ATOM      4  C   UNL     1       2.931   5.446  18.194  0.00  0.00    +0.000 C 
ATOM      5  C   UNL     1       1.911   4.934  19.214  0.00  0.00    +0.000 C 
ATOM      6  C   UNL     1       1.790   5.846  20.439  0.00  0.00    +0.000 C 
ENDROOT
BRANCH   4   7
ATOM      7  C   UNL     1       4.350   5.261  18.644  0.00  0.00    +0.000 A 
ATOM      8  N   UNL     1       4.802   4.427  19.574  0.00  0.00    +0.000 NA
ATOM      9  N   UNL     1       6.178   4.592  19.708  0.00  0.00    +0.000 NA
ATOM     10  C   UNL     1       6.517   5.520  18.859  0.00  0.00    +0.000 A 
ATOM     11  N   UNL     1       5.414   5.955  18.191  0.00  0.00    +0.000 N 
ATOM     12  C   UNL     1       5.720   6.980  17.221  0.00  0.00    +0.000 C 
ATOM     13  C   UNL     1       7.252   6.819  17.073  0.00  0.00    +0.000 C 
ATOM     14  C   UNL     1       7.735   6.213  18.414  0.00  0.00    +0.000 C 
ENDBRANCH   4   7
BRANCH   1  15
ATOM     15  C   UNL     1       1.443   8.109  21.300  0.00  0.00    +0.000 C 
BRANCH  15  19
ATOM     16  C   UNL     1      -0.480  10.954  20.199  0.00  0.00    +0.000 A 
ATOM     17  C   UNL     1       0.061  11.430  21.374  0.00  0.00    +0.000 A 
ATOM     18  N   UNL     1       0.800  10.465  21.996  0.00  0.00    +0.000 NA
ATOM     19  C   UNL     1       0.759   9.447  21.158  0.00  0.00    +0.000 A 
ATOM     20  O   UNL     1      -0.027   9.662  20.044  0.00  0.00    +0.000 OA
BRANCH  16  22
ATOM     21  C   UNL     1      -2.597  12.204  19.798  0.00  0.00    +0.000 C 
ATOM     22  C   UNL     1      -1.352  11.584  19.138  0.00  0.00    +0.000 C 
ATOM     23  C   UNL     1      -1.817  10.497  18.143  0.00  0.00    +0.000 C 
ATOM     24  C   UNL     1      -0.622  12.673  18.334  0.00  0.00    +0.000 C 
ENDBRANCH  16  22
ENDBRANCH  15  19
ENDBRANCH   1  15
TORSDOF 4
ENDMDL
MODEL 7
REMARK VINA RESULT:      -7.0      5.879      7.747
REMARK  Name = 
REMARK  7 active torsions:
REMARK  status: ('A' for Active; 'I' for Inactive)
REMARK    1  A    between atoms: C_1  and  C_2
REMARK    2  A    between atoms: C_2  and  C_3
REMARK    3  A    between atoms: C_2  and  C_4
REMARK    4  A    between atoms: C_2  and  C_5
REMARK    5  A    between atoms: C_8  and  C_9
REMARK    6  A    between atoms: C_9  and  N_10
REMARK    7  A    between atoms: C_13  and  C_14
REMARK                            x       y       z     vdW  Elec       q    Type
REMARK                         _______ _______ _______ _____ _____    ______ ____
ROOT
ATOM      1  N   UNL     1       2.113   8.150  19.226  0.00  0.00    +0.000 NA
ATOM      2  C   UNL     1       1.950   8.739  17.892  0.00  0.00    +0.000 C 
ATOM      3  C   UNL     1       1.864  10.271  17.913  0.00  0.00    +0.000 C 
ATOM      4  C   UNL     1       0.824  10.810  18.903  0.00  0.00    +0.000 C 
ATOM      5  C   UNL     1       1.062  10.164  20.270  0.00  0.00    +0.000 C 
ATOM      6  C   UNL     1       1.127   8.635  20.200  0.00  0.00    +0.000 C 
ENDROOT
BRANCH   4   7
ATOM      7  C   UNL     1      -0.583  10.634  18.413  0.00  0.00    +0.000 A 
ATOM      8  N   UNL     1      -1.025   9.762  17.514  0.00  0.00    +0.000 NA
ATOM      9  N   UNL     1      -2.391   9.953  17.322  0.00  0.00    +0.000 NA
ATOM     10  C   UNL     1      -2.735  10.933  18.107  0.00  0.00    +0.000 A 
ATOM     11  N   UNL     1      -1.644  11.378  18.789  0.00  0.00    +0.000 N 
ATOM     12  C   UNL     1      -1.956  12.463  19.690  0.00  0.00    +0.000 C 
ATOM     13  C   UNL     1      -3.496  12.348  19.792  0.00  0.00    +0.000 C 
ATOM     14  C   UNL     1      -3.949  11.681  18.469  0.00  0.00    +0.000 C 
ENDBRANCH   4   7
BRANCH   1  15
ATOM     15  C   UNL     1       2.111   6.657  19.148  0.00  0.00    +0.000 C 
BRANCH  15  19
ATOM     16  C   UNL     1       5.420   5.570  18.214  0.00  0.00    +0.000 A 
ATOM     17  C   UNL     1       5.143   4.723  19.265  0.00  0.00    +0.000 A 
ATOM     18  N   UNL     1       3.926   5.010  19.814  0.00  0.00    +0.000 NA
ATOM     19  C   UNL     1       3.452   5.973  19.045  0.00  0.00    +0.000 A 
ATOM     20  O   UNL     1       4.321   6.387  18.056  0.00  0.00    +0.000 OA
BRANCH  16  22
ATOM     21  C   UNL     1       7.631   4.600  17.602  0.00  0.00    +0.000 C 
ATOM     22  C   UNL     1       6.594   5.688  17.270  0.00  0.00    +0.000 C 
ATOM     23  C   UNL     1       7.262   7.070  17.451  0.00  0.00    +0.000 C 
ATOM     24  C   UNL     1       6.189   5.554  15.793  0.00  0.00    +0.000 C 
ENDBRANCH  16  22
ENDBRANCH  15  19
ENDBRANCH   1  15
TORSDOF 4
ENDMDL
MODEL 8
REMARK VINA RESULT:      -6.9      3.993      6.234
REMARK  Name = 
REMARK  7 active torsions:
REMARK  status: ('A' for Active; 'I' for Inactive)
REMARK    1  A    between atoms: C_1  and  C_2
REMARK    2  A    between atoms: C_2  and  C_3
REMARK    3  A    between atoms: C_2  and  C_4
REMARK    4  A    between atoms: C_2  and  C_5
REMARK    5  A    between atoms: C_8  and  C_9
REMARK    6  A    between atoms: C_9  and  N_10
REMARK    7  A    between atoms: C_13  and  C_14
REMARK                            x       y       z     vdW  Elec       q    Type
REMARK                         _______ _______ _______ _____ _____    ______ ____
ROOT
ATOM      1  N   UNL     1       5.964   6.406  17.433  0.00  0.00    +0.000 NA
ATOM      2  C   UNL     1       4.707   6.762  16.764  0.00  0.00    +0.000 C 
ATOM      3  C   UNL     1       3.622   7.249  17.733  0.00  0.00    +0.000 C 
ATOM      4  C   UNL     1       3.387   6.297  18.912  0.00  0.00    +0.000 C 
ATOM      5  C   UNL     1       4.733   5.981  19.568  0.00  0.00    +0.000 C 
ATOM      6  C   UNL     1       5.780   5.487  18.564  0.00  0.00    +0.000 C 
ENDROOT
BRANCH   4   7
ATOM      7  C   UNL     1       2.627   5.065  18.517  0.00  0.00    +0.000 A 
ATOM      8  N   UNL     1       2.467   4.570  17.295  0.00  0.00    +0.000 NA
ATOM      9  N   UNL     1       1.667   3.432  17.363  0.00  0.00    +0.000 NA
ATOM     10  C   UNL     1       1.366   3.273  18.620  0.00  0.00    +0.000 A 
ATOM     11  N   UNL     1       1.938   4.264  19.357  0.00  0.00    +0.000 N 
ATOM     12  C   UNL     1       1.654   4.144  20.767  0.00  0.00    +0.000 C 
ATOM     13  C   UNL     1       1.172   2.676  20.861  0.00  0.00    +0.000 C 
ATOM     14  C   UNL     1       0.604   2.337  19.460  0.00  0.00    +0.000 C 
ENDBRANCH   4   7
BRANCH   1  15
ATOM     15  C   UNL     1       6.952   5.867  16.451  0.00  0.00    +0.000 C 
BRANCH  15  19
ATOM     16  C   UNL     1       6.178   3.715  13.663  0.00  0.00    +0.000 A 
ATOM     17  C   UNL     1       5.632   3.007  14.711  0.00  0.00    +0.000 A 
ATOM     18  N   UNL     1       5.868   3.637  15.900  0.00  0.00    +0.000 NA
ATOM     19  C   UNL     1       6.486   4.750  15.549  0.00  0.00    +0.000 A 
ATOM     20  O   UNL     1       6.733   4.858  14.196  0.00  0.00    +0.000 OA
BRANCH  16  22
ATOM     21  C   UNL     1       7.122   4.526  11.504  0.00  0.00    +0.000 C 
ATOM     22  C   UNL     1       6.206   3.484  12.170  0.00  0.00    +0.000 C 
ATOM     23  C   UNL     1       4.779   3.652  11.598  0.00  0.00    +0.000 C 
ATOM     24  C   UNL     1       6.698   2.076  11.792  0.00  0.00    +0.000 C 
ENDBRANCH  16  22
ENDBRANCH  15  19
ENDBRANCH   1  15
TORSDOF 4
ENDMDL
MODEL 9
REMARK VINA RESULT:      -6.9      3.265      9.887
REMARK  Name = 
REMARK  7 active torsions:
REMARK  status: ('A' for Active; 'I' for Inactive)
REMARK    1  A    between atoms: C_1  and  C_2
REMARK    2  A    between atoms: C_2  and  C_3
REMARK    3  A    between atoms: C_2  and  C_4
REMARK    4  A    between atoms: C_2  and  C_5
REMARK    5  A    between atoms: C_8  and  C_9
REMARK    6  A    between atoms: C_9  and  N_10
REMARK    7  A    between atoms: C_13  and  C_14
REMARK                            x       y       z     vdW  Elec       q    Type
REMARK                         _______ _______ _______ _____ _____    ______ ____
ROOT
ATOM      1  N   UNL     1       9.613  10.420  18.668  0.00  0.00    +0.000 NA
ATOM      2  C   UNL     1      10.527  11.199  17.825  0.00  0.00    +0.000 C 
ATOM      3  C   UNL     1      11.728  11.764  18.594  0.00  0.00    +0.000 C 
ATOM      4  C   UNL     1      11.333  12.531  19.862  0.00  0.00    +0.000 C 
ATOM      5  C   UNL     1      10.394  11.657  20.697  0.00  0.00    +0.000 C 
ATOM      6  C   UNL     1       9.204  11.127  19.889  0.00  0.00    +0.000 C 
ENDROOT
BRANCH   4   7
ATOM      7  C   UNL     1      10.757  13.884  19.562  0.00  0.00    +0.000 A 
ATOM      8  N   UNL     1      10.634  14.467  18.375  0.00  0.00    +0.000 NA
ATOM      9  N   UNL     1      10.078  15.733  18.540  0.00  0.00    +0.000 NA
ATOM     10  C   UNL     1       9.883  15.879  19.819  0.00  0.00    +0.000 A 
ATOM     11  N   UNL     1      10.294  14.761  20.477  0.00  0.00    +0.000 N 
ATOM     12  C   UNL     1      10.095  14.850  21.904  0.00  0.00    +0.000 C 
ATOM     13  C   UNL     1       9.094  16.026  22.004  0.00  0.00    +0.000 C 
ATOM     14  C   UNL     1       9.343  16.889  20.742  0.00  0.00    +0.000 C 
ENDBRANCH   4   7
BRANCH   1  15
ATOM     15  C   UNL     1       8.427   9.964  17.881  0.00  0.00    +0.000 C 
BRANCH  15  19
ATOM     16  C   UNL     1       7.093   6.656  17.353  0.00  0.00    +0.000 A 
ATOM     17  C   UNL     1       7.840   6.468  18.495  0.00  0.00    +0.000 A 
ATOM     18  N   UNL     1       8.491   7.616  18.847  0.00  0.00    +0.000 NA
ATOM     19  C   UNL     1       8.073   8.499  17.959  0.00  0.00    +0.000 A 
ATOM     20  O   UNL     1       7.232   7.980  16.996  0.00  0.00    +0.000 OA
BRANCH  16  22
ATOM     21  C   UNL     1       5.564   4.694  17.482  0.00  0.00    +0.000 C 
ATOM     22  C   UNL     1       6.193   5.745  16.551  0.00  0.00    +0.000 C 
ATOM     23  C   UNL     1       7.031   5.009  15.479  0.00  0.00    +0.000 C 
ATOM     24  C   UNL     1       5.069   6.503  15.825  0.00  0.00    +0.000 C 
ENDBRANCH  16  22
ENDBRANCH  15  19
ENDBRANCH   1  15
TORSDOF 4
ENDMDL
