MODEL 1
REMARK VINA RESULT:      -6.9      0.000      0.000
REMARK  Name = 
REMARK  6 active torsions:
REMARK  status: ('A' for Active; 'I' for Inactive)
REMARK    1  A    between atoms: C_1  and  C_2
REMARK    2  A    between atoms: C_2  and  C_3
REMARK    3  A    between atoms: C_2  and  C_4
REMARK    4  A    between atoms: N_8  and  C_9
REMARK    5  A    between atoms: C_9  and  C_10
REMARK    6  A    between atoms: C_10  and  N_11
REMARK                            x       y       z     vdW  Elec       q    Type
REMARK                         _______ _______ _______ _____ _____    ______ ____
ROOT
ATOM      1  C   UNL     1       3.904   6.798  17.627  0.00  0.00    +0.000 C 
ENDROOT
BRANCH   1   2
ATOM      2  N   UNL     1       3.340   5.558  18.147  0.00  0.00    +0.000 N 
ATOM      3  C   UNL     1       2.216   5.101  17.456  0.00  0.00    +0.000 A 
ATOM      4  N   UNL     1       1.393   4.168  17.799  0.00  0.00    +0.000 NA
ATOM      5  C   UNL     1       1.649   3.654  19.068  0.00  0.00    +0.000 A 
ATOM      6  C   UNL     1       0.728   2.835  19.754  0.00  0.00    +0.000 A 
ATOM      7  C   UNL     1       1.142   2.622  21.052  0.00  0.00    +0.000 A 
ATOM      8  S   UNL     1       2.698   3.306  21.354  0.00  0.00    +0.000 S 
ATOM      9  C   UNL     1       2.743   4.007  19.808  0.00  0.00    +0.000 A 
ATOM     10  C   UNL     1       3.723   4.965  19.352  0.00  0.00    +0.000 A 
ATOM     11  O   UNL     1       4.759   5.249  19.942  0.00  0.00    +0.000 OA
ENDBRANCH   1   2
BRANCH   1  12
ATOM     12  C   UNL     1       4.564   6.904  16.255  0.00  0.00    +0.000 C 
BRANCH  12  17
ATOM     13  C   UNL     1       6.818   5.848  16.940  0.00  0.00    +0.000 A 
ATOM     14  N   UNL     1       7.530   4.803  16.564  0.00  0.00    +0.000 NA
ATOM     15  C   UNL     1       6.870   4.237  15.514  0.00  0.00    +0.000 A 
ATOM     16  C   UNL     1       5.726   4.937  15.238  0.00  0.00    +0.000 A 
ATOM     17  N   UNL     1       5.687   5.962  16.151  0.00  0.00    +0.000 N 
BRANCH  13  19
ATOM     18  C   UNL     1       8.087   5.947  19.082  0.00  0.00    +0.000 C 
ATOM     19  C   UNL     1       7.207   6.729  18.098  0.00  0.00    +0.000 C 
ATOM     20  C   UNL     1       7.957   7.965  17.600  0.00  0.00    +0.000 C 
ENDBRANCH  13  19
ENDBRANCH  12  17
ENDBRANCH   1  12
TORSDOF 4
ENDMDL
MODEL 2
REMARK VINA RESULT:      -6.9      2.685      3.255
REMARK  Name = 
REMARK  6 active torsions:
REMARK  status: ('A' for Active; 'I' for Inactive)
REMARK    1  A    between atoms: C_1  and  C_2
REMARK    2  A    between atoms: C_2  and  C_3
REMARK    3  A    between atoms: C_2  and  C_4
REMARK    4  A    between atoms: N_8  and  C_9
REMARK    5  A    between atoms: C_9  and  C_10
REMARK    6  A    between atoms: C_10  and  N_11
REMARK                            x       y       z     vdW  Elec       q    Type
REMARK                         _______ _______ _______ _____ _____    ______ ____
ROOT
ATOM      1  C   UNL     1       3.545   4.653  17.663  0.00  0.00    +0.000 C 
ENDROOT
BRANCH   1   2
ATOM      2  N   UNL     1       3.148   5.739  18.552  0.00  0.00    +0.000 N 
ATOM      3  C   UNL     1       2.673   5.321  19.796  0.00  0.00    +0.000 A 
ATOM      4  N   UNL     1       2.066   6.023  20.694  0.00  0.00    +0.000 NA
ATOM      5  C   UNL     1       1.792   7.324  20.279  0.00  0.00    +0.000 A 
ATOM      6  C   UNL     1       0.907   8.171  20.976  0.00  0.00    +0.000 A 
ATOM      7  C   UNL     1       0.671   9.323  20.255  0.00  0.00    +0.000 A 
ATOM      8  S   UNL     1       1.636   9.401  18.827  0.00  0.00    +0.000 S 
ATOM      9  C   UNL     1       2.247   7.839  19.097  0.00  0.00    +0.000 A 
ATOM     10  C   UNL     1       3.033   7.074  18.157  0.00  0.00    +0.000 A 
ATOM     11  O   UNL     1       3.531   7.517  17.129  0.00  0.00    +0.000 OA
ENDBRANCH   1   2
BRANCH   1  12
ATOM     12  C   UNL     1       4.909   3.970  17.737  0.00  0.00    +0.000 C 
BRANCH  12  17
ATOM     13  C   UNL     1       6.716   5.552  16.792  0.00  0.00    +0.000 A 
ATOM     14  N   UNL     1       7.400   5.650  15.668  0.00  0.00    +0.000 NA
ATOM     15  C   UNL     1       6.932   4.673  14.839  0.00  0.00    +0.000 A 
ATOM     16  C   UNL     1       5.946   3.954  15.461  0.00  0.00    +0.000 A 
ATOM     17  N   UNL     1       5.811   4.510  16.710  0.00  0.00    +0.000 N 
BRANCH  13  19
ATOM     18  C   UNL     1       7.843   5.734  19.007  0.00  0.00    +0.000 C 
ATOM     19  C   UNL     1       6.959   6.450  17.977  0.00  0.00    +0.000 C 
ATOM     20  C   UNL     1       7.626   7.752  17.534  0.00  0.00    +0.000 C 
ENDBRANCH  13  19
ENDBRANCH  12  17
ENDBRANCH   1  12
TORSDOF 4
ENDMDL
MODEL 3
REMARK VINA RESULT:      -6.6      4.045      5.775
REMARK  Name = 
REMARK  6 active torsions:
REMARK  status: ('A' for Active; 'I' for Inactive)
REMARK    1  A    between atoms: C_1  and  C_2
REMARK    2  A    between atoms: C_2  and  C_3
REMARK    3  A    between atoms: C_2  and  C_4
REMARK    4  A    between atoms: N_8  and  C_9
REMARK    5  A    between atoms: C_9  and  C_10
REMARK    6  A    between atoms: C_10  and  N_11
REMARK                            x       y       z     vdW  Elec       q    Type
REMARK                         _______ _______ _______ _____ _____    ______ ____
ROOT
ATOM      1  C   UNL     1       2.644   6.637  18.385  0.00  0.00    +0.000 C 
ENDROOT
BRANCH   1   2
ATOM      2  N   UNL     1       2.131   7.804  19.094  0.00  0.00    +0.000 N 
ATOM      3  C   UNL     1       1.829   7.576  20.438  0.00  0.00    +0.000 A 
ATOM      4  N   UNL     1       1.178   8.339  21.250  0.00  0.00    +0.000 NA
ATOM      5  C   UNL     1       0.652   9.471  20.632  0.00  0.00    +0.000 A 
ATOM      6  C   UNL     1      -0.313  10.293  21.250  0.00  0.00    +0.000 A 
ATOM      7  C   UNL     1      -0.798  11.226  20.357  0.00  0.00    +0.000 A 
ATOM      8  S   UNL     1       0.031  11.165  18.845  0.00  0.00    +0.000 S 
ATOM      9  C   UNL     1       0.922   9.804  19.333  0.00  0.00    +0.000 A 
ATOM     10  C   UNL     1       1.756   8.998  18.474  0.00  0.00    +0.000 A 
ATOM     11  O   UNL     1       2.093   9.298  17.334  0.00  0.00    +0.000 OA
ENDBRANCH   1   2
BRANCH   1  12
ATOM     12  C   UNL     1       3.915   5.900  18.800  0.00  0.00    +0.000 C 
BRANCH  12  17
ATOM     13  C   UNL     1       3.050   3.546  19.409  0.00  0.00    +0.000 A 
ATOM     14  N   UNL     1       3.069   2.352  18.849  0.00  0.00    +0.000 NA
ATOM     15  C   UNL     1       3.795   2.471  17.700  0.00  0.00    +0.000 A 
ATOM     16  C   UNL     1       4.226   3.761  17.542  0.00  0.00    +0.000 A 
ATOM     17  N   UNL     1       3.747   4.450  18.629  0.00  0.00    +0.000 N 
BRANCH  13  19
ATOM     18  C   UNL     1       0.839   4.113  20.410  0.00  0.00    +0.000 C 
ATOM     19  C   UNL     1       2.321   3.833  20.696  0.00  0.00    +0.000 C 
ATOM     20  C   UNL     1       2.449   2.652  21.659  0.00  0.00    +0.000 C 
ENDBRANCH  13  19
ENDBRANCH  12  17
ENDBRANCH   1  12
TORSDOF 4
ENDMDL
MODEL 4
REMARK VINA RESULT:      -6.5      1.471      1.803
REMARK  Name = 
REMARK  6 active torsions:
REMARK  status: ('A' for Active; 'I' for Inactive)
REMARK    1  A    between atoms: C_1  and  C_2
REMARK    2  A    between atoms: C_2  and  C_3
REMARK    3  A    between atoms: C_2  and  C_4
REMARK    4  A    between atoms: N_8  and  C_9
REMARK    5  A    between atoms: C_9  and  C_10
REMARK    6  A    between atoms: C_10  and  N_11
REMARK                            x       y       z     vdW  Elec       q    Type
REMARK                         _______ _______ _______ _____ _____    ______ ____
ROOT
ATOM      1  C   UNL     1       3.600   6.866  17.138  0.00  0.00    +0.000 C 
ENDROOT
BRANCH   1   2
ATOM      2  N   UNL     1       3.000   5.944  18.094  0.00  0.00    +0.000 N 
ATOM      3  C   UNL     1       2.465   6.556  19.230  0.00  0.00    +0.000 A 
ATOM      4  N   UNL     1       2.065   5.999  20.322  0.00  0.00    +0.000 NA
ATOM      5  C   UNL     1       2.309   4.628  20.358  0.00  0.00    +0.000 A 
ATOM      6  C   UNL     1       2.210   3.871  21.544  0.00  0.00    +0.000 A 
ATOM      7  C   UNL     1       2.683   2.591  21.342  0.00  0.00    +0.000 A 
ATOM      8  S   UNL     1       3.099   2.309  19.691  0.00  0.00    +0.000 S 
ATOM      9  C   UNL     1       2.793   3.930  19.287  0.00  0.00    +0.000 A 
ATOM     10  C   UNL     1       3.120   4.554  18.026  0.00  0.00    +0.000 A 
ATOM     11  O   UNL     1       3.475   3.958  17.015  0.00  0.00    +0.000 OA
ENDBRANCH   1   2
BRANCH   1  12
ATOM     12  C   UNL     1       5.076   7.254  17.166  0.00  0.00    +0.000 C 
BRANCH  12  17
ATOM     13  C   UNL     1       6.957   5.497  16.975  0.00  0.00    +0.000 A 
ATOM     14  N   UNL     1       7.343   4.612  16.077  0.00  0.00    +0.000 NA
ATOM     15  C   UNL     1       6.533   4.777  14.992  0.00  0.00    +0.000 A 
ATOM     16  C   UNL     1       5.624   5.776  15.225  0.00  0.00    +0.000 A 
ATOM     17  N   UNL     1       5.890   6.232  16.493  0.00  0.00    +0.000 N 
BRANCH  13  19
ATOM     18  C   UNL     1       8.160   7.030  18.530  0.00  0.00    +0.000 C 
ATOM     19  C   UNL     1       7.598   5.615  18.334  0.00  0.00    +0.000 C 
ATOM     20  C   UNL     1       6.584   5.302  19.433  0.00  0.00    +0.000 C 
ENDBRANCH  13  19
ENDBRANCH  12  17
ENDBRANCH   1  12
TORSDOF 4
ENDMDL
MODEL 5
REMARK VINA RESULT:      -6.5      1.632      2.716
REMARK  Name = 
REMARK  6 active torsions:
REMARK  status: ('A' for Active; 'I' for Inactive)
REMARK    1  A    between atoms: C_1  and  C_2
REMARK    2  A    between atoms: C_2  and  C_3
REMARK    3  A    between atoms: C_2  and  C_4
REMARK    4  A    between atoms: N_8  and  C_9
REMARK    5  A    between atoms: C_9  and  C_10
REMARK    6  A    between atoms: C_10  and  N_11
REMARK                            x       y       z     vdW  Elec       q    Type
REMARK                         _______ _______ _______ _____ _____    ______ ____
ROOT
ATOM      1  C   UNL     1       3.973   6.406  16.940  0.00  0.00    +0.000 C 
ENDROOT
BRANCH   1   2
ATOM      2  N   UNL     1       3.153   5.707  17.922  0.00  0.00    +0.000 N 
ATOM      3  C   UNL     1       2.906   6.433  19.089  0.00  0.00    +0.000 A 
ATOM      4  N   UNL     1       2.400   6.010  20.199  0.00  0.00    +0.000 NA
ATOM      5  C   UNL     1       2.183   4.634  20.212  0.00  0.00    +0.000 A 
ATOM      6  C   UNL     1       1.901   3.922  21.396  0.00  0.00    +0.000 A 
ATOM      7  C   UNL     1       1.917   2.564  21.159  0.00  0.00    +0.000 A 
ATOM      8  S   UNL     1       2.135   2.201  19.486  0.00  0.00    +0.000 S 
ATOM      9  C   UNL     1       2.357   3.843  19.110  0.00  0.00    +0.000 A 
ATOM     10  C   UNL     1       2.807   4.356  17.838  0.00  0.00    +0.000 A 
ATOM     11  O   UNL     1       2.896   3.702  16.805  0.00  0.00    +0.000 OA
ENDBRANCH   1   2
BRANCH   1  12
ATOM     12  C   UNL     1       5.365   6.951  17.252  0.00  0.00    +0.000 C 
BRANCH  12  17
ATOM     13  C   UNL     1       6.829   5.102  16.205  0.00  0.00    +0.000 A 
ATOM     14  N   UNL     1       7.786   4.296  16.623  0.00  0.00    +0.000 NA
ATOM     15  C   UNL     1       7.930   4.522  17.960  0.00  0.00    +0.000 A 
ATOM     16  C   UNL     1       7.053   5.489  18.376  0.00  0.00    +0.000 A 
ATOM     17  N   UNL     1       6.354   5.864  17.256  0.00  0.00    +0.000 N 
BRANCH  13  19
ATOM     18  C   UNL     1       7.611   5.140  13.838  0.00  0.00    +0.000 C 
ATOM     19  C   UNL     1       6.388   5.168  14.765  0.00  0.00    +0.000 C 
ATOM     20  C   UNL     1       5.460   4.000  14.436  0.00  0.00    +0.000 C 
ENDBRANCH  13  19
ENDBRANCH  12  17
ENDBRANCH   1  12
TORSDOF 4
ENDMDL
MODEL 6
REMARK VINA RESULT:      -6.5      2.817      4.485
REMARK  Name = 
REMARK  6 active torsions:
REMARK  status: ('A' for Active; 'I' for Inactive)
REMARK    1  A    between atoms: C_1  and  C_2
REMARK    2  A    between atoms: C_2  and  C_3
REMARK    3  A    between atoms: C_2  and  C_4
REMARK    4  A    between atoms: N_8  and  C_9
REMARK    5  A    between atoms: C_9  and  C_10
REMARK    6  A    between atoms: C_10  and  N_11
REMARK                            x       y       z     vdW  Elec       q    Type
REMARK                         _______ _______ _______ _____ _____    ______ ____
ROOT
ATOM      1  C   UNL     1       5.748   4.495  16.244  0.00  0.00    +0.000 C 
ENDROOT
BRANCH   1   2
ATOM      2  N   UNL     1       4.581   4.965  16.982  0.00  0.00    +0.000 N 
ATOM      3  C   UNL     1       4.454   6.354  17.038  0.00  0.00    +0.000 A 
ATOM      4  N   UNL     1       3.661   7.053  17.778  0.00  0.00    +0.000 NA
ATOM      5  C   UNL     1       2.933   6.281  18.681  0.00  0.00    +0.000 A 
ATOM      6  C   UNL     1       2.221   6.845  19.759  0.00  0.00    +0.000 A 
ATOM      7  C   UNL     1       1.751   5.857  20.599  0.00  0.00    +0.000 A 
ATOM      8  S   UNL     1       2.068   4.278  19.980  0.00  0.00    +0.000 S 
ATOM      9  C   UNL     1       2.958   4.914  18.680  0.00  0.00    +0.000 A 
ATOM     10  C   UNL     1       3.761   4.143  17.760  0.00  0.00    +0.000 A 
ATOM     11  O   UNL     1       3.750   2.921  17.667  0.00  0.00    +0.000 OA
ENDBRANCH   1   2
BRANCH   1  12
ATOM     12  C   UNL     1       5.661   3.494  15.095  0.00  0.00    +0.000 C 
BRANCH  12  17
ATOM     13  C   UNL     1       6.348   3.599  12.609  0.00  0.00    +0.000 A 
ATOM     14  N   UNL     1       7.154   4.343  11.876  0.00  0.00    +0.000 NA
ATOM     15  C   UNL     1       7.781   5.199  12.733  0.00  0.00    +0.000 A 
ATOM     16  C   UNL     1       7.352   4.988  14.016  0.00  0.00    +0.000 A 
ATOM     17  N   UNL     1       6.432   3.971  13.938  0.00  0.00    +0.000 N 
BRANCH  13  19
ATOM     18  C   UNL     1       4.297   3.192  11.253  0.00  0.00    +0.000 C 
ATOM     19  C   UNL     1       5.454   2.539  12.020  0.00  0.00    +0.000 C 
ATOM     20  C   UNL     1       6.249   1.629  11.084  0.00  0.00    +0.000 C 
ENDBRANCH  13  19
ENDBRANCH  12  17
ENDBRANCH   1  12
TORSDOF 4
ENDMDL
MODEL 7
REMARK VINA RESULT:      -6.5      2.840      4.313
REMARK  Name = 
REMARK  6 active torsions:
REMARK  status: ('A' for Active; 'I' for Inactive)
REMARK    1  A    between atoms: C_1  and  C_2
REMARK    2  A    between atoms: C_2  and  C_3
REMARK    3  A    between atoms: C_2  and  C_4
REMARK    4  A    between atoms: N_8  and  C_9
REMARK    5  A    between atoms: C_9  and  C_10
REMARK    6  A    between atoms: C_10  and  N_11
REMARK                            x       y       z     vdW  Elec       q    Type
REMARK                         _______ _______ _______ _____ _____    ______ ____
ROOT
ATOM      1  C   UNL     1       4.960   4.554  15.703  0.00  0.00    +0.000 C 
ENDROOT
BRANCH   1   2
ATOM      2  N   UNL     1       4.427   4.516  17.060  0.00  0.00    +0.000 N 
ATOM      3  C   UNL     1       4.053   3.244  17.498  0.00  0.00    +0.000 A 
ATOM      4  N   UNL     1       3.371   2.931  18.548  0.00  0.00    +0.000 NA
ATOM      5  C   UNL     1       2.893   4.041  19.241  0.00  0.00    +0.000 A 
ATOM      6  C   UNL     1       1.909   3.941  20.246  0.00  0.00    +0.000 A 
ATOM      7  C   UNL     1       1.483   5.195  20.633  0.00  0.00    +0.000 A 
ATOM      8  S   UNL     1       2.387   6.450  19.867  0.00  0.00    +0.000 S 
ATOM      9  C   UNL     1       3.234   5.325  18.916  0.00  0.00    +0.000 A 
ATOM     10  C   UNL     1       4.100   5.651  17.808  0.00  0.00    +0.000 A 
ATOM     11  O   UNL     1       4.499   6.776  17.531  0.00  0.00    +0.000 OA
ENDBRANCH   1   2
BRANCH   1  12
ATOM     12  C   UNL     1       5.922   3.504  15.155  0.00  0.00    +0.000 C 
BRANCH  12  17
ATOM     13  C   UNL     1       6.415   3.632  12.624  0.00  0.00    +0.000 A 
ATOM     14  N   UNL     1       7.146   4.397  11.836  0.00  0.00    +0.000 NA
ATOM     15  C   UNL     1       7.816   5.266  12.646  0.00  0.00    +0.000 A 
ATOM     16  C   UNL     1       7.490   5.041  13.957  0.00  0.00    +0.000 A 
ATOM     17  N   UNL     1       6.592   4.002  13.945  0.00  0.00    +0.000 N 
BRANCH  13  19
ATOM     18  C   UNL     1       4.344   3.178  11.315  0.00  0.00    +0.000 C 
ATOM     19  C   UNL     1       5.505   2.552  12.100  0.00  0.00    +0.000 C 
ATOM     20  C   UNL     1       6.280   1.589  11.202  0.00  0.00    +0.000 C 
ENDBRANCH  13  19
ENDBRANCH  12  17
ENDBRANCH   1  12
TORSDOF 4
ENDMDL
MODEL 8
REMARK VINA RESULT:      -6.4      2.666      4.102
REMARK  Name = 
REMARK  6 active torsions:
REMARK  status: ('A' for Active; 'I' for Inactive)
REMARK    1  A    between atoms: C_1  and  C_2
REMARK    2  A    between atoms: C_2  and  C_3
REMARK    3  A    between atoms: C_2  and  C_4
REMARK    4  A    between atoms: N_8  and  C_9
REMARK    5  A    between atoms: C_9  and  C_10
REMARK    6  A    between atoms: C_10  and  N_11
REMARK                            x       y       z     vdW  Elec       q    Type
REMARK                         _______ _______ _______ _____ _____    ______ ____
ROOT
ATOM      1  C   UNL     1       5.279   4.263  16.418  0.00  0.00    +0.000 C 
ENDROOT
BRANCH   1   2
ATOM      2  N   UNL     1       4.549   3.847  17.610  0.00  0.00    +0.000 N 
ATOM      3  C   UNL     1       4.052   2.543  17.558  0.00  0.00    +0.000 A 
ATOM      4  N   UNL     1       3.208   1.979  18.354  0.00  0.00    +0.000 NA
ATOM      5  C   UNL     1       2.687   2.853  19.306  0.00  0.00    +0.000 A 
ATOM      6  C   UNL     1       1.560   2.533  20.092  0.00  0.00    +0.000 A 
ATOM      7  C   UNL     1       1.143   3.634  20.810  0.00  0.00    +0.000 A 
ATOM      8  S   UNL     1       2.211   4.975  20.616  0.00  0.00    +0.000 S 
ATOM      9  C   UNL     1       3.134   4.135  19.463  0.00  0.00    +0.000 A 
ATOM     10  C   UNL     1       4.171   4.712  18.640  0.00  0.00    +0.000 A 
ATOM     11  O   UNL     1       4.660   5.824  18.799  0.00  0.00    +0.000 OA
ENDBRANCH   1   2
BRANCH   1  12
ATOM     12  C   UNL     1       4.889   3.829  15.007  0.00  0.00    +0.000 C 
BRANCH  12  17
ATOM     13  C   UNL     1       6.190   3.618  12.788  0.00  0.00    +0.000 A 
ATOM     14  N   UNL     1       7.240   4.201  12.243  0.00  0.00    +0.000 NA
ATOM     15  C   UNL     1       7.731   5.070  13.172  0.00  0.00    +0.000 A 
ATOM     16  C   UNL     1       6.968   5.031  14.309  0.00  0.00    +0.000 A 
ATOM     17  N   UNL     1       5.980   4.109  14.063  0.00  0.00    +0.000 N 
BRANCH  13  19
ATOM     18  C   UNL     1       4.286   3.306  11.210  0.00  0.00    +0.000 C 
ATOM     19  C   UNL     1       5.351   2.600  12.060  0.00  0.00    +0.000 C 
ATOM     20  C   UNL     1       6.229   1.722  11.168  0.00  0.00    +0.000 C 
ENDBRANCH  13  19
ENDBRANCH  12  17
ENDBRANCH   1  12
TORSDOF 4
ENDMDL
MODEL 9
REMARK VINA RESULT:      -6.4      4.160      5.070
REMARK  Name = 
REMARK  6 active torsions:
REMARK  status: ('A' for Active; 'I' for Inactive)
REMARK    1  A    between atoms: C_1  and  C_2
REMARK    2  A    between atoms: C_2  and  C_3
REMARK    3  A    between atoms: C_2  and  C_4
REMARK    4  A    between atoms: N_8  and  C_9
REMARK    5  A    between atoms: C_9  and  C_10
REMARK    6  A    between atoms: C_10  and  N_11
REMARK                            x       y       z     vdW  Elec       q    Type
REMARK                         _______ _______ _______ _____ _____    ______ ____
ROOT
ATOM      1  C   UNL     1       2.392   6.828  18.376  0.00  0.00    +0.000 C 
ENDROOT
BRANCH   1   2
ATOM      2  N   UNL     1       1.977   8.020  19.106  0.00  0.00    +0.000 N 
ATOM      3  C   UNL     1       1.713   7.805  20.460  0.00  0.00    +0.000 A 
ATOM      4  N   UNL     1       1.141   8.603  21.298  0.00  0.00    +0.000 NA
ATOM      5  C   UNL     1       0.660   9.766  20.702  0.00  0.00    +0.000 A 
ATOM      6  C   UNL     1      -0.230  10.641  21.359  0.00  0.00    +0.000 A 
ATOM      7  C   UNL     1      -0.692  11.605  20.487  0.00  0.00    +0.000 A 
ATOM      8  S   UNL     1       0.072  11.501  18.943  0.00  0.00    +0.000 S 
ATOM      9  C   UNL     1       0.898  10.087  19.395  0.00  0.00    +0.000 A 
ATOM     10  C   UNL     1       1.650   9.236  18.502  0.00  0.00    +0.000 A 
ATOM     11  O   UNL     1       1.960   9.520  17.351  0.00  0.00    +0.000 OA
ENDBRANCH   1   2
BRANCH   1  12
ATOM     12  C   UNL     1       3.836   6.567  17.955  0.00  0.00    +0.000 C 
BRANCH  12  17
ATOM     13  C   UNL     1       5.603   4.808  18.623  0.00  0.00    +0.000 A 
ATOM     14  N   UNL     1       5.605   3.665  19.280  0.00  0.00    +0.000 NA
ATOM     15  C   UNL     1       4.306   3.393  19.594  0.00  0.00    +0.000 A 
ATOM     16  C   UNL     1       3.486   4.388  19.130  0.00  0.00    +0.000 A 
ATOM     17  N   UNL     1       4.314   5.295  18.516  0.00  0.00    +0.000 N 
BRANCH  13  19
ATOM     18  C   UNL     1       7.798   5.778  19.298  0.00  0.00    +0.000 C 
ATOM     19  C   UNL     1       6.864   5.464  18.121  0.00  0.00    +0.000 C 
ATOM     20  C   UNL     1       7.577   4.556  17.120  0.00  0.00    +0.000 C 
ENDBRANCH  13  19
ENDBRANCH  12  17
ENDBRANCH   1  12
TORSDOF 4
ENDMDL
