MODEL 1
REMARK VINA RESULT:      -9.4      0.000      0.000
REMARK  Name = 
REMARK  4 active torsions:
REMARK  status: ('A' for Active; 'I' for Inactive)
REMARK    1  A    between atoms: N_4  and  C_5
REMARK    2  A    between atoms: C_8  and  C_9
REMARK    3  A    between atoms: C_11  and  C_12
REMARK    4  A    between atoms: N_14  and  C_15
REMARK                            x       y       z     vdW  Elec       q    Type
REMARK                         _______ _______ _______ _____ _____    ______ ____
ROOT
ATOM      1  C   UNL     1       8.779   9.888  18.247  0.00  0.00    +0.000 A 
ATOM      2  C   UNL     1       7.893   9.265  17.398  0.00  0.00    +0.000 A 
ATOM      3  C   UNL     1       7.764   7.934  17.861  0.00  0.00    +0.000 A 
ATOM      4  N   UNL     1       8.546   7.715  18.936  0.00  0.00    +0.000 NA
ATOM      5  N   UNL     1       9.131   8.913  19.148  0.00  0.00    +0.000 N 
ATOM      6  H   UNL     1       9.778   9.001  19.924  0.00  0.00    +0.000 HD
ENDROOT
BRANCH   1  10
ATOM      7  C   UNL     1      10.329  13.898  18.241  0.00  0.00    +0.000 A 
ATOM      8  C   UNL     1       9.018  13.625  17.821  0.00  0.00    +0.000 A 
ATOM      9  C   UNL     1       8.500  12.325  17.832  0.00  0.00    +0.000 A 
ATOM     10  C   UNL     1       9.288  11.253  18.256  0.00  0.00    +0.000 A 
ATOM     11  C   UNL     1      10.605  11.512  18.661  0.00  0.00    +0.000 A 
ATOM     12  C   UNL     1      11.113  12.819  18.657  0.00  0.00    +0.000 A 
BRANCH   7  16
ATOM     13  N   UNL     1      10.896  15.670  15.871  0.00  0.00    +0.000 NA
ATOM     14  C   UNL     1      11.045  15.989  17.107  0.00  0.00    +0.000 C 
ATOM     15  N   UNL     1      11.537  17.209  17.450  0.00  0.00    +0.000 N 
ATOM     16  N   UNL     1      10.787  15.227  18.205  0.00  0.00    +0.000 N 
ATOM     17  H   UNL     1      11.217  16.428  15.272  0.00  0.00    +0.000 HD
ATOM     18  H   UNL     1      11.522  17.891  16.704  0.00  0.00    +0.000 HD
ATOM     19  H   UNL     1      11.130  17.595  18.294  0.00  0.00    +0.000 HD
ATOM     20  H   UNL     1      11.293  15.501  19.033  0.00  0.00    +0.000 HD
ENDBRANCH   7  16
ENDBRANCH   1  10
BRANCH   3  21
ATOM     21  C   UNL     1       6.906   6.907  17.255  0.00  0.00    +0.000 C 
ATOM     22  O   UNL     1       7.315   6.259  16.296  0.00  0.00    +0.000 OA
ATOM     23  N   UNL     1       5.692   6.750  17.892  0.00  0.00    +0.000 N 
ATOM     24  H   UNL     1       5.586   7.310  18.734  0.00  0.00    +0.000 HD
BRANCH  23  25
ATOM     25  C   UNL     1       4.739   5.748  17.616  0.00  0.00    +0.000 A 
ATOM     26  C   UNL     1       4.988   4.688  16.735  0.00  0.00    +0.000 A 
ATOM     27  C   UNL     1       4.112   3.605  16.653  0.00  0.00    +0.000 A 
ATOM     28  C   UNL     1       2.980   3.576  17.454  0.00  0.00    +0.000 A 
ATOM     29  C   UNL     1       2.661   4.688  18.233  0.00  0.00    +0.000 A 
ATOM     30  C   UNL     1       3.525   5.781  18.307  0.00  0.00    +0.000 A 
ATOM     31  O   UNL     1       1.518   4.728  18.987  0.00  0.00    +0.000 OA
ATOM     32  C   UNL     1       1.311   3.430  19.540  0.00  0.00    +0.000 C 
ATOM     33  C   UNL     1       1.258   2.341  18.471  0.00  0.00    +0.000 C 
ATOM     34  O   UNL     1       2.265   2.415  17.458  0.00  0.00    +0.000 OA
ENDBRANCH  23  25
ENDBRANCH   3  21
TORSDOF 4
ENDMDL
MODEL 2
REMARK VINA RESULT:      -9.2      8.028     12.087
REMARK  Name = 
REMARK  4 active torsions:
REMARK  status: ('A' for Active; 'I' for Inactive)
REMARK    1  A    between atoms: N_4  and  C_5
REMARK    2  A    between atoms: C_8  and  C_9
REMARK    3  A    between atoms: C_11  and  C_12
REMARK    4  A    between atoms: N_14  and  C_15
REMARK                            x       y       z     vdW  Elec       q    Type
REMARK                         _______ _______ _______ _____ _____    ______ ____
ROOT
ATOM      1  C   UNL     1       1.517   7.785  20.412  0.00  0.00    +0.000 A 
ATOM      2  C   UNL     1       0.917   8.189  21.583  0.00  0.00    +0.000 A 
ATOM      3  C   UNL     1       0.525   9.535  21.388  0.00  0.00    +0.000 A 
ATOM      4  N   UNL     1       0.880   9.972  20.163  0.00  0.00    +0.000 NA
ATOM      5  N   UNL     1       1.461   8.892  19.600  0.00  0.00    +0.000 N 
ATOM      6  H   UNL     1       1.815   8.975  18.655  0.00  0.00    +0.000 HD
ENDROOT
BRANCH   1  10
ATOM      7  C   UNL     1       3.320   4.041  19.311  0.00  0.00    +0.000 A 
ATOM      8  C   UNL     1       2.480   4.141  20.429  0.00  0.00    +0.000 A 
ATOM      9  C   UNL     1       1.877   5.353  20.788  0.00  0.00    +0.000 A 
ATOM     10  C   UNL     1       2.110   6.508  20.039  0.00  0.00    +0.000 A 
ATOM     11  C   UNL     1       2.962   6.422  18.929  0.00  0.00    +0.000 A 
ATOM     12  C   UNL     1       3.553   5.202  18.570  0.00  0.00    +0.000 A 
BRANCH   7  16
ATOM     13  N   UNL     1       2.234   1.789  17.630  0.00  0.00    +0.000 NA
ATOM     14  C   UNL     1       3.359   1.795  18.250  0.00  0.00    +0.000 C 
ATOM     15  N   UNL     1       4.168   0.704  18.221  0.00  0.00    +0.000 N 
ATOM     16  N   UNL     1       3.893   2.794  19.005  0.00  0.00    +0.000 N 
ATOM     17  H   UNL     1       2.081   0.884  17.188  0.00  0.00    +0.000 HD
ATOM     18  H   UNL     1       3.943   0.035  17.497  0.00  0.00    +0.000 HD
ATOM     19  H   UNL     1       5.158   0.924  18.206  0.00  0.00    +0.000 HD
ATOM     20  H   UNL     1       4.576   2.489  19.681  0.00  0.00    +0.000 HD
ENDBRANCH   7  16
ENDBRANCH   1  10
BRANCH   3  21
ATOM     21  C   UNL     1      -0.165  10.368  22.382  0.00  0.00    +0.000 C 
ATOM     22  O   UNL     1      -0.014  10.140  23.578  0.00  0.00    +0.000 OA
ATOM     23  N   UNL     1      -0.909  11.390  21.830  0.00  0.00    +0.000 N 
ATOM     24  H   UNL     1      -0.820  11.475  20.821  0.00  0.00    +0.000 HD
BRANCH  23  25
ATOM     25  C   UNL     1      -1.554  12.420  22.546  0.00  0.00    +0.000 A 
ATOM     26  C   UNL     1      -2.873  12.313  23.005  0.00  0.00    +0.000 A 
ATOM     27  C   UNL     1      -3.400  13.253  23.891  0.00  0.00    +0.000 A 
ATOM     28  C   UNL     1      -2.610  14.308  24.323  0.00  0.00    +0.000 A 
ATOM     29  C   UNL     1      -1.345  14.491  23.767  0.00  0.00    +0.000 A 
ATOM     30  C   UNL     1      -0.817  13.563  22.869  0.00  0.00    +0.000 A 
ATOM     31  O   UNL     1      -0.559  15.558  24.116  0.00  0.00    +0.000 OA
ATOM     32  C   UNL     1      -0.726  15.787  25.513  0.00  0.00    +0.000 C 
ATOM     33  C   UNL     1      -2.187  15.999  25.899  0.00  0.00    +0.000 C 
ATOM     34  O   UNL     1      -3.122  15.085  25.320  0.00  0.00    +0.000 OA
ENDBRANCH  23  25
ENDBRANCH   3  21
TORSDOF 4
ENDMDL
MODEL 3
REMARK VINA RESULT:      -9.1      8.107     12.056
REMARK  Name = 
REMARK  4 active torsions:
REMARK  status: ('A' for Active; 'I' for Inactive)
REMARK    1  A    between atoms: N_4  and  C_5
REMARK    2  A    between atoms: C_8  and  C_9
REMARK    3  A    between atoms: C_11  and  C_12
REMARK    4  A    between atoms: N_14  and  C_15
REMARK                            x       y       z     vdW  Elec       q    Type
REMARK                         _______ _______ _______ _____ _____    ______ ____
ROOT
ATOM      1  C   UNL     1       1.510   7.776  20.468  0.00  0.00    +0.000 A 
ATOM      2  C   UNL     1       0.929   8.177  21.650  0.00  0.00    +0.000 A 
ATOM      3  C   UNL     1       0.530   9.522  21.463  0.00  0.00    +0.000 A 
ATOM      4  N   UNL     1       0.862   9.962  20.233  0.00  0.00    +0.000 NA
ATOM      5  N   UNL     1       1.436   8.884  19.659  0.00  0.00    +0.000 N 
ATOM      6  H   UNL     1       1.774   8.970  18.707  0.00  0.00    +0.000 HD
ENDROOT
BRANCH   1  10
ATOM      7  C   UNL     1       3.305   4.039  19.331  0.00  0.00    +0.000 A 
ATOM      8  C   UNL     1       2.467   4.131  20.452  0.00  0.00    +0.000 A 
ATOM      9  C   UNL     1       1.867   5.341  20.822  0.00  0.00    +0.000 A 
ATOM     10  C   UNL     1       2.100   6.502  20.083  0.00  0.00    +0.000 A 
ATOM     11  C   UNL     1       2.950   6.425  18.970  0.00  0.00    +0.000 A 
ATOM     12  C   UNL     1       3.539   5.207  18.600  0.00  0.00    +0.000 A 
BRANCH   7  16
ATOM     13  N   UNL     1       2.211   1.802  17.636  0.00  0.00    +0.000 NA
ATOM     14  C   UNL     1       3.339   1.802  18.252  0.00  0.00    +0.000 C 
ATOM     15  N   UNL     1       4.147   0.710  18.211  0.00  0.00    +0.000 N 
ATOM     16  N   UNL     1       3.876   2.794  19.013  0.00  0.00    +0.000 N 
ATOM     17  H   UNL     1       2.057   0.901  17.187  0.00  0.00    +0.000 HD
ATOM     18  H   UNL     1       3.918   0.047  17.484  0.00  0.00    +0.000 HD
ATOM     19  H   UNL     1       5.136   0.929  18.195  0.00  0.00    +0.000 HD
ATOM     20  H   UNL     1       4.561   2.483  19.684  0.00  0.00    +0.000 HD
ENDBRANCH   7  16
ENDBRANCH   1  10
BRANCH   3  21
ATOM     21  C   UNL     1      -0.146  10.351  22.470  0.00  0.00    +0.000 C 
ATOM     22  O   UNL     1      -0.015  10.089  23.662  0.00  0.00    +0.000 OA
ATOM     23  N   UNL     1      -0.852  11.409  21.936  0.00  0.00    +0.000 N 
ATOM     24  H   UNL     1      -0.749  11.516  20.930  0.00  0.00    +0.000 HD
BRANCH  23  25
ATOM     25  C   UNL     1      -1.473  12.441  22.671  0.00  0.00    +0.000 A 
ATOM     26  C   UNL     1      -0.846  13.664  22.939  0.00  0.00    +0.000 A 
ATOM     27  C   UNL     1      -1.563  14.734  23.474  0.00  0.00    +0.000 A 
ATOM     28  C   UNL     1      -2.916  14.585  23.745  0.00  0.00    +0.000 A 
ATOM     29  C   UNL     1      -3.511  13.333  23.604  0.00  0.00    +0.000 A 
ATOM     30  C   UNL     1      -2.795  12.255  23.083  0.00  0.00    +0.000 A 
ATOM     31  O   UNL     1      -4.828  13.128  23.923  0.00  0.00    +0.000 OA
ATOM     32  C   UNL     1      -5.564  14.280  23.515  0.00  0.00    +0.000 C 
ATOM     33  C   UNL     1      -5.017  15.567  24.125  0.00  0.00    +0.000 C 
ATOM     34  O   UNL     1      -3.595  15.715  24.096  0.00  0.00    +0.000 OA
ENDBRANCH  23  25
ENDBRANCH   3  21
TORSDOF 4
ENDMDL
MODEL 4
REMARK VINA RESULT:      -8.9      8.011     12.147
REMARK  Name = 
REMARK  4 active torsions:
REMARK  status: ('A' for Active; 'I' for Inactive)
REMARK    1  A    between atoms: N_4  and  C_5
REMARK    2  A    between atoms: C_8  and  C_9
REMARK    3  A    between atoms: C_11  and  C_12
REMARK    4  A    between atoms: N_14  and  C_15
REMARK                            x       y       z     vdW  Elec       q    Type
REMARK                         _______ _______ _______ _____ _____    ______ ____
ROOT
ATOM      1  C   UNL     1       1.363   7.681  20.411  0.00  0.00    +0.000 A 
ATOM      2  C   UNL     1       0.692   8.077  21.547  0.00  0.00    +0.000 A 
ATOM      3  C   UNL     1       0.521   9.478  21.443  0.00  0.00    +0.000 A 
ATOM      4  N   UNL     1       1.077   9.953  20.310  0.00  0.00    +0.000 NA
ATOM      5  N   UNL     1       1.560   8.846  19.709  0.00  0.00    +0.000 N 
ATOM      6  H   UNL     1       2.032   8.950  18.818  0.00  0.00    +0.000 HD
ENDROOT
BRANCH   1  10
ATOM      7  C   UNL     1       2.620   3.770  19.146  0.00  0.00    +0.000 A 
ATOM      8  C   UNL     1       2.900   4.908  18.375  0.00  0.00    +0.000 A 
ATOM      9  C   UNL     1       2.507   6.187  18.786  0.00  0.00    +0.000 A 
ATOM     10  C   UNL     1       1.807   6.363  19.981  0.00  0.00    +0.000 A 
ATOM     11  C   UNL     1       1.507   5.230  20.751  0.00  0.00    +0.000 A 
ATOM     12  C   UNL     1       1.914   3.953  20.338  0.00  0.00    +0.000 A 
BRANCH   7  16
ATOM     13  N   UNL     1       4.923   2.056  20.059  0.00  0.00    +0.000 NA
ATOM     14  C   UNL     1       4.103   1.777  19.109  0.00  0.00    +0.000 C 
ATOM     15  N   UNL     1       4.251   0.640  18.382  0.00  0.00    +0.000 N 
ATOM     16  N   UNL     1       3.043   2.514  18.677  0.00  0.00    +0.000 N 
ATOM     17  H   UNL     1       5.643   1.339  20.122  0.00  0.00    +0.000 HD
ATOM     18  H   UNL     1       4.861  -0.049  18.801  0.00  0.00    +0.000 HD
ATOM     19  H   UNL     1       3.376   0.214  18.098  0.00  0.00    +0.000 HD
ATOM     20  H   UNL     1       2.759   2.322  17.729  0.00  0.00    +0.000 HD
ENDBRANCH   7  16
ENDBRANCH   1  10
BRANCH   3  21
ATOM     21  C   UNL     1      -0.156  10.323  22.435  0.00  0.00    +0.000 C 
ATOM     22  O   UNL     1       0.020  10.118  23.632  0.00  0.00    +0.000 OA
ATOM     23  N   UNL     1      -0.918  11.330  21.879  0.00  0.00    +0.000 N 
ATOM     24  H   UNL     1      -0.850  11.397  20.867  0.00  0.00    +0.000 HD
BRANCH  23  25
ATOM     25  C   UNL     1      -1.558  12.368  22.589  0.00  0.00    +0.000 A 
ATOM     26  C   UNL     1      -2.868  12.262  23.072  0.00  0.00    +0.000 A 
ATOM     27  C   UNL     1      -3.386  13.213  23.950  0.00  0.00    +0.000 A 
ATOM     28  C   UNL     1      -2.595  14.280  24.352  0.00  0.00    +0.000 A 
ATOM     29  C   UNL     1      -1.341  14.460  23.772  0.00  0.00    +0.000 A 
ATOM     30  C   UNL     1      -0.822  13.520  22.880  0.00  0.00    +0.000 A 
ATOM     31  O   UNL     1      -0.555  15.537  24.090  0.00  0.00    +0.000 OA
ATOM     32  C   UNL     1      -0.700  15.789  25.486  0.00  0.00    +0.000 C 
ATOM     33  C   UNL     1      -2.156  15.998  25.893  0.00  0.00    +0.000 C 
ATOM     34  O   UNL     1      -3.095  15.070  25.344  0.00  0.00    +0.000 OA
ENDBRANCH  23  25
ENDBRANCH   3  21
TORSDOF 4
ENDMDL
MODEL 5
REMARK VINA RESULT:      -8.9      8.303     12.013
REMARK  Name = 
REMARK  4 active torsions:
REMARK  status: ('A' for Active; 'I' for Inactive)
REMARK    1  A    between atoms: N_4  and  C_5
REMARK    2  A    between atoms: C_8  and  C_9
REMARK    3  A    between atoms: C_11  and  C_12
REMARK    4  A    between atoms: N_14  and  C_15
REMARK                            x       y       z     vdW  Elec       q    Type
REMARK                         _______ _______ _______ _____ _____    ______ ____
ROOT
ATOM      1  C   UNL     1       1.325   8.166  20.966  0.00  0.00    +0.000 A 
ATOM      2  C   UNL     1       0.325   9.064  20.670  0.00  0.00    +0.000 A 
ATOM      3  C   UNL     1       0.385  10.072  21.662  0.00  0.00    +0.000 A 
ATOM      4  N   UNL     1       1.359   9.816  22.557  0.00  0.00    +0.000 NA
ATOM      5  N   UNL     1       1.912   8.672  22.102  0.00  0.00    +0.000 N 
ATOM      6  H   UNL     1       2.685   8.272  22.620  0.00  0.00    +0.000 HD
ENDROOT
BRANCH   1  10
ATOM      7  C   UNL     1       2.575   4.563  18.984  0.00  0.00    +0.000 A 
ATOM      8  C   UNL     1       1.895   4.518  20.210  0.00  0.00    +0.000 A 
ATOM      9  C   UNL     1       1.472   5.686  20.856  0.00  0.00    +0.000 A 
ATOM     10  C   UNL     1       1.730   6.938  20.296  0.00  0.00    +0.000 A 
ATOM     11  C   UNL     1       2.424   6.995  19.079  0.00  0.00    +0.000 A 
ATOM     12  C   UNL     1       2.835   5.820  18.432  0.00  0.00    +0.000 A 
BRANCH   7  16
ATOM     13  N   UNL     1       4.904   2.770  19.644  0.00  0.00    +0.000 NA
ATOM     14  C   UNL     1       4.045   2.579  18.708  0.00  0.00    +0.000 C 
ATOM     15  N   UNL     1       4.157   1.511  17.876  0.00  0.00    +0.000 N 
ATOM     16  N   UNL     1       2.972   3.353  18.387  0.00  0.00    +0.000 N 
ATOM     17  H   UNL     1       5.623   2.049  19.612  0.00  0.00    +0.000 HD
ATOM     18  H   UNL     1       4.780   0.786  18.206  0.00  0.00    +0.000 HD
ATOM     19  H   UNL     1       3.269   1.114  17.592  0.00  0.00    +0.000 HD
ATOM     20  H   UNL     1       2.649   3.247  17.438  0.00  0.00    +0.000 HD
ENDBRANCH   7  16
ENDBRANCH   1  10
BRANCH   3  21
ATOM     21  C   UNL     1      -0.498  11.244  21.732  0.00  0.00    +0.000 C 
ATOM     22  O   UNL     1      -0.806  11.837  20.702  0.00  0.00    +0.000 OA
ATOM     23  N   UNL     1      -0.938  11.533  23.007  0.00  0.00    +0.000 N 
ATOM     24  H   UNL     1      -0.654  10.857  23.711  0.00  0.00    +0.000 HD
BRANCH  23  25
ATOM     25  C   UNL     1      -1.900  12.507  23.346  0.00  0.00    +0.000 A 
ATOM     26  C   UNL     1      -1.623  13.880  23.345  0.00  0.00    +0.000 A 
ATOM     27  C   UNL     1      -2.648  14.817  23.471  0.00  0.00    +0.000 A 
ATOM     28  C   UNL     1      -3.960  14.385  23.601  0.00  0.00    +0.000 A 
ATOM     29  C   UNL     1      -4.225  13.024  23.736  0.00  0.00    +0.000 A 
ATOM     30  C   UNL     1      -3.202  12.081  23.625  0.00  0.00    +0.000 A 
ATOM     31  O   UNL     1      -5.499  12.559  23.932  0.00  0.00    +0.000 OA
ATOM     32  C   UNL     1      -6.381  13.347  23.135  0.00  0.00    +0.000 C 
ATOM     33  C   UNL     1      -6.260  14.839  23.431  0.00  0.00    +0.000 C 
ATOM     34  O   UNL     1      -4.927  15.346  23.540  0.00  0.00    +0.000 OA
ENDBRANCH  23  25
ENDBRANCH   3  21
TORSDOF 4
ENDMDL
MODEL 6
REMARK VINA RESULT:      -8.9      7.363     11.318
REMARK  Name = 
REMARK  4 active torsions:
REMARK  status: ('A' for Active; 'I' for Inactive)
REMARK    1  A    between atoms: N_4  and  C_5
REMARK    2  A    between atoms: C_8  and  C_9
REMARK    3  A    between atoms: C_11  and  C_12
REMARK    4  A    between atoms: N_14  and  C_15
REMARK                            x       y       z     vdW  Elec       q    Type
REMARK                         _______ _______ _______ _____ _____    ______ ____
ROOT
ATOM      1  C   UNL     1       2.044   8.331  18.799  0.00  0.00    +0.000 A 
ATOM      2  C   UNL     1       1.169   8.964  19.653  0.00  0.00    +0.000 A 
ATOM      3  C   UNL     1       1.024  10.286  19.169  0.00  0.00    +0.000 A 
ATOM      4  N   UNL     1       1.787  10.491  18.077  0.00  0.00    +0.000 NA
ATOM      5  N   UNL     1       2.374   9.293  17.875  0.00  0.00    +0.000 N 
ATOM      6  H   UNL     1       3.008   9.195  17.090  0.00  0.00    +0.000 HD
ENDROOT
BRANCH   1  10
ATOM      7  C   UNL     1       3.514   4.292  18.824  0.00  0.00    +0.000 A 
ATOM      8  C   UNL     1       3.823   5.171  17.775  0.00  0.00    +0.000 A 
ATOM      9  C   UNL     1       3.361   6.492  17.765  0.00  0.00    +0.000 A 
ATOM     10  C   UNL     1       2.561   6.970  18.805  0.00  0.00    +0.000 A 
ATOM     11  C   UNL     1       2.231   6.094  19.849  0.00  0.00    +0.000 A 
ATOM     12  C   UNL     1       2.707   4.775  19.857  0.00  0.00    +0.000 A 
BRANCH   7  16
ATOM     13  N   UNL     1       2.126   1.745  18.010  0.00  0.00    +0.000 NA
ATOM     14  C   UNL     1       3.342   1.848  18.412  0.00  0.00    +0.000 C 
ATOM     15  N   UNL     1       4.121   0.743  18.542  0.00  0.00    +0.000 N 
ATOM     16  N   UNL     1       4.010   2.978  18.773  0.00  0.00    +0.000 N 
ATOM     17  H   UNL     1       1.889   0.766  17.858  0.00  0.00    +0.000 HD
ATOM     18  H   UNL     1       3.766  -0.078  18.072  0.00  0.00    +0.000 HD
ATOM     19  H   UNL     1       5.096   0.894  18.307  0.00  0.00    +0.000 HD
ATOM     20  H   UNL     1       4.798   2.821  19.383  0.00  0.00    +0.000 HD
ENDBRANCH   7  16
ENDBRANCH   1  10
BRANCH   3  21
ATOM     21  C   UNL     1       0.170  11.318  19.773  0.00  0.00    +0.000 C 
ATOM     22  O   UNL     1      -0.639  11.923  19.076  0.00  0.00    +0.000 OA
ATOM     23  N   UNL     1       0.355  11.468  21.132  0.00  0.00    +0.000 N 
ATOM     24  H   UNL     1       0.998  10.797  21.543  0.00  0.00    +0.000 HD
BRANCH  23  25
ATOM     25  C   UNL     1      -0.423  12.277  21.985  0.00  0.00    +0.000 A 
ATOM     26  C   UNL     1      -0.147  13.633  22.205  0.00  0.00    +0.000 A 
ATOM     27  C   UNL     1      -1.057  14.449  22.877  0.00  0.00    +0.000 A 
ATOM     28  C   UNL     1      -2.252  13.912  23.335  0.00  0.00    +0.000 A 
ATOM     29  C   UNL     1      -2.471  12.539  23.235  0.00  0.00    +0.000 A 
ATOM     30  C   UNL     1      -1.557  11.715  22.578  0.00  0.00    +0.000 A 
ATOM     31  O   UNL     1      -3.607  11.959  23.735  0.00  0.00    +0.000 OA
ATOM     32  C   UNL     1      -4.699  12.841  23.480  0.00  0.00    +0.000 C 
ATOM     33  C   UNL     1      -4.466  14.237  24.050  0.00  0.00    +0.000 C 
ATOM     34  O   UNL     1      -3.170  14.796  23.821  0.00  0.00    +0.000 OA
ENDBRANCH  23  25
ENDBRANCH   3  21
TORSDOF 4
ENDMDL
MODEL 7
REMARK VINA RESULT:      -8.8      8.098     12.129
REMARK  Name = 
REMARK  4 active torsions:
REMARK  status: ('A' for Active; 'I' for Inactive)
REMARK    1  A    between atoms: N_4  and  C_5
REMARK    2  A    between atoms: C_8  and  C_9
REMARK    3  A    between atoms: C_11  and  C_12
REMARK    4  A    between atoms: N_14  and  C_15
REMARK                            x       y       z     vdW  Elec       q    Type
REMARK                         _______ _______ _______ _____ _____    ______ ____
ROOT
ATOM      1  C   UNL     1       1.321   7.655  20.458  0.00  0.00    +0.000 A 
ATOM      2  C   UNL     1       0.698   8.052  21.621  0.00  0.00    +0.000 A 
ATOM      3  C   UNL     1       0.500   9.448  21.512  0.00  0.00    +0.000 A 
ATOM      4  N   UNL     1       0.992   9.921  20.350  0.00  0.00    +0.000 NA
ATOM      5  N   UNL     1       1.465   8.816  19.737  0.00  0.00    +0.000 N 
ATOM      6  H   UNL     1       1.891   8.919  18.823  0.00  0.00    +0.000 HD
ENDROOT
BRANCH   1  10
ATOM      7  C   UNL     1       2.579   3.755  19.161  0.00  0.00    +0.000 A 
ATOM      8  C   UNL     1       2.958   4.910  18.461  0.00  0.00    +0.000 A 
ATOM      9  C   UNL     1       2.565   6.186  18.884  0.00  0.00    +0.000 A 
ATOM     10  C   UNL     1       1.766   6.340  20.019  0.00  0.00    +0.000 A 
ATOM     11  C   UNL     1       1.367   5.191  20.715  0.00  0.00    +0.000 A 
ATOM     12  C   UNL     1       1.775   3.918  20.292  0.00  0.00    +0.000 A 
BRANCH   7  16
ATOM     13  N   UNL     1       4.936   2.082  20.010  0.00  0.00    +0.000 NA
ATOM     14  C   UNL     1       4.093   1.787  19.086  0.00  0.00    +0.000 C 
ATOM     15  N   UNL     1       4.238   0.649  18.359  0.00  0.00    +0.000 N 
ATOM     16  N   UNL     1       3.009   2.505  18.683  0.00  0.00    +0.000 N 
ATOM     17  H   UNL     1       5.670   1.377  20.054  0.00  0.00    +0.000 HD
ATOM     18  H   UNL     1       4.871  -0.028  18.762  0.00  0.00    +0.000 HD
ATOM     19  H   UNL     1       3.362   0.208  18.102  0.00  0.00    +0.000 HD
ATOM     20  H   UNL     1       2.700   2.304  17.744  0.00  0.00    +0.000 HD
ENDBRANCH   7  16
ENDBRANCH   1  10
BRANCH   3  21
ATOM     21  C   UNL     1      -0.144  10.292  22.528  0.00  0.00    +0.000 C 
ATOM     22  O   UNL     1       0.038  10.058  23.719  0.00  0.00    +0.000 OA
ATOM     23  N   UNL     1      -0.882  11.332  22.001  0.00  0.00    +0.000 N 
ATOM     24  H   UNL     1      -0.821  11.418  20.990  0.00  0.00    +0.000 HD
BRANCH  23  25
ATOM     25  C   UNL     1      -1.484  12.373  22.738  0.00  0.00    +0.000 A 
ATOM     26  C   UNL     1      -0.832  13.581  23.015  0.00  0.00    +0.000 A 
ATOM     27  C   UNL     1      -1.528  14.663  23.553  0.00  0.00    +0.000 A 
ATOM     28  C   UNL     1      -2.885  14.543  23.817  0.00  0.00    +0.000 A 
ATOM     29  C   UNL     1      -3.507  13.304  23.667  0.00  0.00    +0.000 A 
ATOM     30  C   UNL     1      -2.811  12.213  23.145  0.00  0.00    +0.000 A 
ATOM     31  O   UNL     1      -4.829  13.126  23.981  0.00  0.00    +0.000 OA
ATOM     32  C   UNL     1      -5.538  14.295  23.576  0.00  0.00    +0.000 C 
ATOM     33  C   UNL     1      -4.966  15.568  24.194  0.00  0.00    +0.000 C 
ATOM     34  O   UNL     1      -3.541  15.685  24.171  0.00  0.00    +0.000 OA
ENDBRANCH  23  25
ENDBRANCH   3  21
TORSDOF 4
ENDMDL
MODEL 8
REMARK VINA RESULT:      -8.8      0.922      1.182
REMARK  Name = 
REMARK  4 active torsions:
REMARK  status: ('A' for Active; 'I' for Inactive)
REMARK    1  A    between atoms: N_4  and  C_5
REMARK    2  A    between atoms: C_8  and  C_9
REMARK    3  A    between atoms: C_11  and  C_12
REMARK    4  A    between atoms: N_14  and  C_15
REMARK                            x       y       z     vdW  Elec       q    Type
REMARK                         _______ _______ _______ _____ _____    ______ ____
ROOT
ATOM      1  C   UNL     1       8.673   9.595  18.263  0.00  0.00    +0.000 A 
ATOM      2  C   UNL     1       7.630   9.138  17.489  0.00  0.00    +0.000 A 
ATOM      3  C   UNL     1       7.433   7.783  17.843  0.00  0.00    +0.000 A 
ATOM      4  N   UNL     1       8.320   7.389  18.778  0.00  0.00    +0.000 NA
ATOM      5  N   UNL     1       9.040   8.506  19.017  0.00  0.00    +0.000 N 
ATOM      6  H   UNL     1       9.785   8.459  19.702  0.00  0.00    +0.000 HD
ENDROOT
BRANCH   1  10
ATOM      7  C   UNL     1      10.597  13.435  18.424  0.00  0.00    +0.000 A 
ATOM      8  C   UNL     1       9.327  13.283  17.851  0.00  0.00    +0.000 A 
ATOM      9  C   UNL     1       8.686  12.039  17.806  0.00  0.00    +0.000 A 
ATOM     10  C   UNL     1       9.309  10.903  18.327  0.00  0.00    +0.000 A 
ATOM     11  C   UNL     1      10.587  11.041  18.887  0.00  0.00    +0.000 A 
ATOM     12  C   UNL     1      11.217  12.293  18.938  0.00  0.00    +0.000 A 
BRANCH   7  16
ATOM     13  N   UNL     1      10.731  15.465  20.646  0.00  0.00    +0.000 NA
ATOM     14  C   UNL     1      11.210  15.607  19.462  0.00  0.00    +0.000 C 
ATOM     15  N   UNL     1      11.811  16.769  19.098  0.00  0.00    +0.000 N 
ATOM     16  N   UNL     1      11.185  14.712  18.437  0.00  0.00    +0.000 N 
ATOM     17  H   UNL     1      10.856  16.322  21.181  0.00  0.00    +0.000 HD
ATOM     18  H   UNL     1      12.068  17.369  19.870  0.00  0.00    +0.000 HD
ATOM     19  H   UNL     1      12.595  16.648  18.466  0.00  0.00    +0.000 HD
ATOM     20  H   UNL     1      11.275  15.124  17.521  0.00  0.00    +0.000 HD
ENDBRANCH   7  16
ENDBRANCH   1  10
BRANCH   3  21
ATOM     21  C   UNL     1       6.410   6.899  17.268  0.00  0.00    +0.000 C 
ATOM     22  O   UNL     1       6.362   6.732  16.053  0.00  0.00    +0.000 OA
ATOM     23  N   UNL     1       5.606   6.292  18.211  0.00  0.00    +0.000 N 
ATOM     24  H   UNL     1       5.875   6.479  19.174  0.00  0.00    +0.000 HD
BRANCH  23  25
ATOM     25  C   UNL     1       4.643   5.294  17.955  0.00  0.00    +0.000 A 
ATOM     26  C   UNL     1       4.933   4.127  17.236  0.00  0.00    +0.000 A 
ATOM     27  C   UNL     1       4.025   3.070  17.190  0.00  0.00    +0.000 A 
ATOM     28  C   UNL     1       2.816   3.175  17.864  0.00  0.00    +0.000 A 
ATOM     29  C   UNL     1       2.469   4.382  18.468  0.00  0.00    +0.000 A 
ATOM     30  C   UNL     1       3.367   5.448  18.504  0.00  0.00    +0.000 A 
ATOM     31  O   UNL     1       1.257   4.549  19.086  0.00  0.00    +0.000 OA
ATOM     32  C   UNL     1       0.939   3.335  19.763  0.00  0.00    +0.000 C 
ATOM     33  C   UNL     1       0.948   2.127  18.830  0.00  0.00    +0.000 C 
ATOM     34  O   UNL     1       2.054   2.045  17.928  0.00  0.00    +0.000 OA
ENDBRANCH  23  25
ENDBRANCH   3  21
TORSDOF 4
ENDMDL
MODEL 9
REMARK VINA RESULT:      -8.8      7.426     11.296
REMARK  Name = 
REMARK  4 active torsions:
REMARK  status: ('A' for Active; 'I' for Inactive)
REMARK    1  A    between atoms: N_4  and  C_5
REMARK    2  A    between atoms: C_8  and  C_9
REMARK    3  A    between atoms: C_11  and  C_12
REMARK    4  A    between atoms: N_14  and  C_15
REMARK                            x       y       z     vdW  Elec       q    Type
REMARK                         _______ _______ _______ _____ _____    ______ ____
ROOT
ATOM      1  C   UNL     1       2.057   8.323  18.868  0.00  0.00    +0.000 A 
ATOM      2  C   UNL     1       1.307   9.011  19.796  0.00  0.00    +0.000 A 
ATOM      3  C   UNL     1       1.123  10.313  19.275  0.00  0.00    +0.000 A 
ATOM      4  N   UNL     1       1.744  10.455  18.087  0.00  0.00    +0.000 NA
ATOM      5  N   UNL     1       2.282   9.237  17.868  0.00  0.00    +0.000 N 
ATOM      6  H   UNL     1       2.810   9.093  17.014  0.00  0.00    +0.000 HD
ENDROOT
BRANCH   1  10
ATOM      7  C   UNL     1       3.453   4.258  18.885  0.00  0.00    +0.000 A 
ATOM      8  C   UNL     1       3.745   5.121  17.819  0.00  0.00    +0.000 A 
ATOM      9  C   UNL     1       3.306   6.451  17.811  0.00  0.00    +0.000 A 
ATOM     10  C   UNL     1       2.549   6.953  18.871  0.00  0.00    +0.000 A 
ATOM     11  C   UNL     1       2.237   6.093  19.934  0.00  0.00    +0.000 A 
ATOM     12  C   UNL     1       2.690   4.765  19.939  0.00  0.00    +0.000 A 
BRANCH   7  16
ATOM     13  N   UNL     1       2.200   1.824  17.628  0.00  0.00    +0.000 NA
ATOM     14  C   UNL     1       3.317   1.856  18.263  0.00  0.00    +0.000 C 
ATOM     15  N   UNL     1       4.034   0.719  18.457  0.00  0.00    +0.000 N 
ATOM     16  N   UNL     1       3.925   2.934  18.831  0.00  0.00    +0.000 N 
ATOM     17  H   UNL     1       1.978   0.867  17.359  0.00  0.00    +0.000 HD
ATOM     18  H   UNL     1       3.760  -0.054  17.866  0.00  0.00    +0.000 HD
ATOM     19  H   UNL     1       5.038   0.853  18.425  0.00  0.00    +0.000 HD
ATOM     20  H   UNL     1       4.575   2.708  19.567  0.00  0.00    +0.000 HD
ENDBRANCH   7  16
ENDBRANCH   1  10
BRANCH   3  21
ATOM     21  C   UNL     1       0.369  11.389  19.934  0.00  0.00    +0.000 C 
ATOM     22  O   UNL     1       0.876  12.499  20.060  0.00  0.00    +0.000 OA
ATOM     23  N   UNL     1      -0.904  11.021  20.317  0.00  0.00    +0.000 N 
ATOM     24  H   UNL     1      -1.175  10.085  20.027  0.00  0.00    +0.000 HD
BRANCH  23  25
ATOM     25  C   UNL     1      -1.891  11.884  20.837  0.00  0.00    +0.000 A 
ATOM     26  C   UNL     1      -2.813  12.558  20.026  0.00  0.00    +0.000 A 
ATOM     27  C   UNL     1      -3.903  13.225  20.584  0.00  0.00    +0.000 A 
ATOM     28  C   UNL     1      -4.077  13.224  21.961  0.00  0.00    +0.000 A 
ATOM     29  C   UNL     1      -3.092  12.670  22.777  0.00  0.00    +0.000 A 
ATOM     30  C   UNL     1      -1.992  12.014  22.225  0.00  0.00    +0.000 A 
ATOM     31  O   UNL     1      -3.193  12.706  24.143  0.00  0.00    +0.000 OA
ATOM     32  C   UNL     1      -4.560  12.494  24.489  0.00  0.00    +0.000 C 
ATOM     33  C   UNL     1      -5.494  13.495  23.816  0.00  0.00    +0.000 C 
ATOM     34  O   UNL     1      -5.251  13.738  22.427  0.00  0.00    +0.000 OA
ENDBRANCH  23  25
ENDBRANCH   3  21
TORSDOF 4
ENDMDL
