MODEL 1
REMARK VINA RESULT:      -7.3      0.000      0.000
REMARK  Name = 
REMARK  4 active torsions:
REMARK  status: ('A' for Active; 'I' for Inactive)
REMARK    1  A    between atoms: C_2  and  C_3
REMARK    2  A    between atoms: C_3  and  N_4
REMARK    3  A    between atoms: C_5  and  C_6
REMARK    4  A    between atoms: C_18  and  C_19
REMARK                            x       y       z     vdW  Elec       q    Type
REMARK                         _______ _______ _______ _____ _____    ______ ____
ROOT
ATOM      1  N   UNL     1       5.468   5.202  18.023  0.00  0.00    +0.000 NA
ATOM      2  C   UNL     1       4.774   6.429  17.562  0.00  0.00    +0.000 C 
ATOM      3  C   UNL     1       5.116   6.633  16.079  0.00  0.00    +0.000 C 
ATOM      4  C   UNL     1       3.253   6.577  17.787  0.00  0.00    +0.000 C 
ATOM      5  N   UNL     1       2.795   6.210  19.115  0.00  0.00    +0.000 N 
ATOM      6  C   UNL     1       2.031   6.968  20.026  0.00  0.00    +0.000 A 
ATOM      7  S   UNL     1       1.589   8.561  19.962  0.00  0.00    +0.000 S 
ATOM      8  N   UNL     1       1.690   6.112  21.084  0.00  0.00    +0.000 N 
ATOM      9  C   UNL     1       2.231   4.855  20.838  0.00  0.00    +0.000 A 
ATOM     10  C   UNL     1       2.181   3.724  21.621  0.00  0.00    +0.000 A 
ATOM     11  C   UNL     1       2.871   2.606  21.154  0.00  0.00    +0.000 A 
ATOM     12  C   UNL     1       3.614   2.662  19.956  0.00  0.00    +0.000 A 
ATOM     13  C   UNL     1       3.684   3.839  19.183  0.00  0.00    +0.000 A 
ATOM     14  C   UNL     1       2.929   4.908  19.631  0.00  0.00    +0.000 A 
ATOM     15  C   UNL     1       4.676   3.945  18.043  0.00  0.00    +0.000 C 
ATOM     16  C   UNL     1       4.054   3.520  16.707  0.00  0.00    +0.000 C 
ATOM     17  H   UNL     1       1.169   6.390  21.902  0.00  0.00    +0.000 HD
ENDROOT
BRANCH   1  18
ATOM     18  C   UNL     1       6.155   5.411  19.318  0.00  0.00    +0.000 C 
BRANCH  18  20
ATOM     19  C   UNL     1       8.075   6.854  18.573  0.00  0.00    +0.000 C 
ATOM     20  C   UNL     1       7.615   5.745  19.166  0.00  0.00    +0.000 C 
ENDBRANCH  18  20
ENDBRANCH   1  18
TORSDOF 2
ENDMDL
MODEL 2
REMARK VINA RESULT:      -6.5      2.381      5.183
REMARK  Name = 
REMARK  4 active torsions:
REMARK  status: ('A' for Active; 'I' for Inactive)
REMARK    1  A    between atoms: C_2  and  C_3
REMARK    2  A    between atoms: C_3  and  N_4
REMARK    3  A    between atoms: C_5  and  C_6
REMARK    4  A    between atoms: C_18  and  C_19
REMARK                            x       y       z     vdW  Elec       q    Type
REMARK                         _______ _______ _______ _____ _____    ______ ____
ROOT
ATOM      1  N   UNL     1       2.988   5.205  18.161  0.00  0.00    +0.000 NA
ATOM      2  C   UNL     1       3.691   5.075  19.460  0.00  0.00    +0.000 C 
ATOM      3  C   UNL     1       2.706   4.467  20.469  0.00  0.00    +0.000 C 
ATOM      4  C   UNL     1       5.047   4.338  19.524  0.00  0.00    +0.000 C 
ATOM      5  N   UNL     1       5.987   4.698  18.478  0.00  0.00    +0.000 N 
ATOM      6  C   UNL     1       7.316   5.149  18.603  0.00  0.00    +0.000 A 
ATOM      7  S   UNL     1       8.156   5.597  19.958  0.00  0.00    +0.000 S 
ATOM      8  N   UNL     1       7.861   5.182  17.310  0.00  0.00    +0.000 N 
ATOM      9  C   UNL     1       6.892   4.765  16.404  0.00  0.00    +0.000 A 
ATOM     10  C   UNL     1       6.971   4.678  15.033  0.00  0.00    +0.000 A 
ATOM     11  C   UNL     1       5.815   4.284  14.361  0.00  0.00    +0.000 A 
ATOM     12  C   UNL     1       4.618   4.032  15.065  0.00  0.00    +0.000 A 
ATOM     13  C   UNL     1       4.544   4.160  16.468  0.00  0.00    +0.000 A 
ATOM     14  C   UNL     1       5.725   4.478  17.113  0.00  0.00    +0.000 A 
ATOM     15  C   UNL     1       3.200   4.122  17.166  0.00  0.00    +0.000 C 
ATOM     16  C   UNL     1       2.838   2.705  17.625  0.00  0.00    +0.000 C 
ATOM     17  H   UNL     1       8.793   5.497  17.088  0.00  0.00    +0.000 HD
ENDROOT
BRANCH   1  18
ATOM     18  C   UNL     1       3.206   6.535  17.548  0.00  0.00    +0.000 C 
BRANCH  18  20
ATOM     19  C   UNL     1       2.017   8.739  17.776  0.00  0.00    +0.000 C 
ATOM     20  C   UNL     1       2.582   7.658  18.331  0.00  0.00    +0.000 C 
ENDBRANCH  18  20
ENDBRANCH   1  18
TORSDOF 2
ENDMDL
MODEL 3
REMARK VINA RESULT:      -5.9      2.221      4.220
REMARK  Name = 
REMARK  4 active torsions:
REMARK  status: ('A' for Active; 'I' for Inactive)
REMARK    1  A    between atoms: C_2  and  C_3
REMARK    2  A    between atoms: C_3  and  N_4
REMARK    3  A    between atoms: C_5  and  C_6
REMARK    4  A    between atoms: C_18  and  C_19
REMARK                            x       y       z     vdW  Elec       q    Type
REMARK                         _______ _______ _______ _____ _____    ______ ____
ROOT
ATOM      1  N   UNL     1       6.160   5.553  16.469  0.00  0.00    +0.000 NA
ATOM      2  C   UNL     1       6.476   4.510  17.475  0.00  0.00    +0.000 C 
ATOM      3  C   UNL     1       8.005   4.395  17.566  0.00  0.00    +0.000 C 
ATOM      4  C   UNL     1       5.860   4.599  18.889  0.00  0.00    +0.000 C 
ATOM      5  N   UNL     1       4.442   4.910  18.917  0.00  0.00    +0.000 N 
ATOM      6  C   UNL     1       3.398   4.208  19.552  0.00  0.00    +0.000 A 
ATOM      7  S   UNL     1       3.417   2.725  20.287  0.00  0.00    +0.000 S 
ATOM      8  N   UNL     1       2.247   5.004  19.446  0.00  0.00    +0.000 N 
ATOM      9  C   UNL     1       2.568   6.170  18.760  0.00  0.00    +0.000 A 
ATOM     10  C   UNL     1       1.747   7.212  18.396  0.00  0.00    +0.000 A 
ATOM     11  C   UNL     1       2.327   8.238  17.649  0.00  0.00    +0.000 A 
ATOM     12  C   UNL     1       3.682   8.172  17.260  0.00  0.00    +0.000 A 
ATOM     13  C   UNL     1       4.501   7.079  17.611  0.00  0.00    +0.000 A 
ATOM     14  C   UNL     1       3.919   6.116  18.414  0.00  0.00    +0.000 A 
ATOM     15  C   UNL     1       5.869   6.918  16.980  0.00  0.00    +0.000 C 
ATOM     16  C   UNL     1       6.967   7.567  17.830  0.00  0.00    +0.000 C 
ATOM     17  H   UNL     1       1.334   4.740  19.785  0.00  0.00    +0.000 HD
ENDROOT
BRANCH   1  18
ATOM     18  C   UNL     1       5.107   5.108  15.527  0.00  0.00    +0.000 C 
BRANCH  18  20
ATOM     19  C   UNL     1       6.257   3.950  13.614  0.00  0.00    +0.000 C 
ATOM     20  C   UNL     1       5.506   3.901  14.722  0.00  0.00    +0.000 C 
ENDBRANCH  18  20
ENDBRANCH   1  18
TORSDOF 2
ENDMDL
MODEL 4
REMARK VINA RESULT:      -5.7      2.440      4.983
REMARK  Name = 
REMARK  4 active torsions:
REMARK  status: ('A' for Active; 'I' for Inactive)
REMARK    1  A    between atoms: C_2  and  C_3
REMARK    2  A    between atoms: C_3  and  N_4
REMARK    3  A    between atoms: C_5  and  C_6
REMARK    4  A    between atoms: C_18  and  C_19
REMARK                            x       y       z     vdW  Elec       q    Type
REMARK                         _______ _______ _______ _____ _____    ______ ____
ROOT
ATOM      1  N   UNL     1       2.650   3.518  19.259  0.00  0.00    +0.000 NA
ATOM      2  C   UNL     1       3.759   2.788  18.598  0.00  0.00    +0.000 C 
ATOM      3  C   UNL     1       3.274   1.360  18.307  0.00  0.00    +0.000 C 
ATOM      4  C   UNL     1       4.432   3.392  17.346  0.00  0.00    +0.000 C 
ATOM      5  N   UNL     1       4.750   4.805  17.446  0.00  0.00    +0.000 N 
ATOM      6  C   UNL     1       5.988   5.447  17.240  0.00  0.00    +0.000 A 
ATOM      7  S   UNL     1       7.492   4.794  17.020  0.00  0.00    +0.000 S 
ATOM      8  N   UNL     1       5.741   6.828  17.270  0.00  0.00    +0.000 N 
ATOM      9  C   UNL     1       4.385   7.038  17.492  0.00  0.00    +0.000 A 
ATOM     10  C   UNL     1       3.706   8.227  17.633  0.00  0.00    +0.000 A 
ATOM     11  C   UNL     1       2.342   8.142  17.914  0.00  0.00    +0.000 A 
ATOM     12  C   UNL     1       1.715   6.889  18.084  0.00  0.00    +0.000 A 
ATOM     13  C   UNL     1       2.433   5.681  17.972  0.00  0.00    +0.000 A 
ATOM     14  C   UNL     1       3.765   5.794  17.618  0.00  0.00    +0.000 A 
ATOM     15  C   UNL     1       1.795   4.374  18.396  0.00  0.00    +0.000 C 
ATOM     16  C   UNL     1       1.106   3.670  17.221  0.00  0.00    +0.000 C 
ATOM     17  H   UNL     1       6.451   7.539  17.182  0.00  0.00    +0.000 HD
ENDROOT
BRANCH   1  18
ATOM     18  C   UNL     1       3.116   4.268  20.448  0.00  0.00    +0.000 C 
BRANCH  18  20
ATOM     19  C   UNL     1       1.664   2.790  21.873  0.00  0.00    +0.000 C 
ATOM     20  C   UNL     1       2.354   3.924  21.700  0.00  0.00    +0.000 C 
ENDBRANCH  18  20
ENDBRANCH   1  18
TORSDOF 2
ENDMDL
MODEL 5
REMARK VINA RESULT:      -5.6      6.044      8.212
REMARK  Name = 
REMARK  4 active torsions:
REMARK  status: ('A' for Active; 'I' for Inactive)
REMARK    1  A    between atoms: C_2  and  C_3
REMARK    2  A    between atoms: C_3  and  N_4
REMARK    3  A    between atoms: C_5  and  C_6
REMARK    4  A    between atoms: C_18  and  C_19
REMARK                            x       y       z     vdW  Elec       q    Type
REMARK                         _______ _______ _______ _____ _____    ______ ____
ROOT
ATOM      1  N   UNL     1       1.260  11.023  19.331  0.00  0.00    +0.000 NA
ATOM      2  C   UNL     1       0.918  10.228  18.127  0.00  0.00    +0.000 C 
ATOM      3  C   UNL     1       1.892   9.043  18.054  0.00  0.00    +0.000 C 
ATOM      4  C   UNL     1      -0.534   9.743  17.919  0.00  0.00    +0.000 C 
ATOM      5  N   UNL     1      -1.553  10.746  18.165  0.00  0.00    +0.000 N 
ATOM      6  C   UNL     1      -2.593  11.174  17.315  0.00  0.00    +0.000 A 
ATOM      7  S   UNL     1      -2.864  10.824  15.720  0.00  0.00    +0.000 S 
ATOM      8  N   UNL     1      -3.419  12.019  18.072  0.00  0.00    +0.000 N 
ATOM      9  C   UNL     1      -2.902  12.117  19.359  0.00  0.00    +0.000 A 
ATOM     10  C   UNL     1      -3.362  12.863  20.420  0.00  0.00    +0.000 A 
ATOM     11  C   UNL     1      -2.605  12.821  21.592  0.00  0.00    +0.000 A 
ATOM     12  C   UNL     1      -1.407  12.079  21.653  0.00  0.00    +0.000 A 
ATOM     13  C   UNL     1      -0.931  11.348  20.545  0.00  0.00    +0.000 A 
ATOM     14  C   UNL     1      -1.741  11.347  19.424  0.00  0.00    +0.000 A 
ATOM     15  C   UNL     1       0.467  10.764  20.561  0.00  0.00    +0.000 C 
ATOM     16  C   UNL     1       0.474   9.320  21.075  0.00  0.00    +0.000 C 
ATOM     17  H   UNL     1      -4.229  12.501  17.713  0.00  0.00    +0.000 HD
ENDROOT
BRANCH   1  18
ATOM     18  C   UNL     1       1.316  12.474  19.036  0.00  0.00    +0.000 C 
BRANCH  18  20
ATOM     19  C   UNL     1       3.151  14.017  18.281  0.00  0.00    +0.000 C 
ATOM     20  C   UNL     1       2.489  12.858  18.175  0.00  0.00    +0.000 C 
ENDBRANCH  18  20
ENDBRANCH   1  18
TORSDOF 2
ENDMDL
MODEL 6
REMARK VINA RESULT:      -5.6      2.772      3.942
REMARK  Name = 
REMARK  4 active torsions:
REMARK  status: ('A' for Active; 'I' for Inactive)
REMARK    1  A    between atoms: C_2  and  C_3
REMARK    2  A    between atoms: C_3  and  N_4
REMARK    3  A    between atoms: C_5  and  C_6
REMARK    4  A    between atoms: C_18  and  C_19
REMARK                            x       y       z     vdW  Elec       q    Type
REMARK                         _______ _______ _______ _____ _____    ______ ____
ROOT
ATOM      1  N   UNL     1       5.473   5.010  16.895  0.00  0.00    +0.000 NA
ATOM      2  C   UNL     1       6.350   4.650  18.036  0.00  0.00    +0.000 C 
ATOM      3  C   UNL     1       7.429   5.736  18.159  0.00  0.00    +0.000 C 
ATOM      4  C   UNL     1       5.725   4.356  19.417  0.00  0.00    +0.000 C 
ATOM      5  N   UNL     1       4.560   3.491  19.388  0.00  0.00    +0.000 N 
ATOM      6  C   UNL     1       4.330   2.296  20.099  0.00  0.00    +0.000 A 
ATOM      7  S   UNL     1       5.370   1.403  21.027  0.00  0.00    +0.000 S 
ATOM      8  N   UNL     1       2.992   1.937  19.874  0.00  0.00    +0.000 N 
ATOM      9  C   UNL     1       2.407   2.884  19.041  0.00  0.00    +0.000 A 
ATOM     10  C   UNL     1       1.129   2.914  18.531  0.00  0.00    +0.000 A 
ATOM     11  C   UNL     1       0.825   3.961  17.660  0.00  0.00    +0.000 A 
ATOM     12  C   UNL     1       1.805   4.909  17.298  0.00  0.00    +0.000 A 
ATOM     13  C   UNL     1       3.121   4.844  17.802  0.00  0.00    +0.000 A 
ATOM     14  C   UNL     1       3.371   3.841  18.721  0.00  0.00    +0.000 A 
ATOM     15  C   UNL     1       4.207   5.720  17.214  0.00  0.00    +0.000 C 
ATOM     16  C   UNL     1       4.350   7.040  17.982  0.00  0.00    +0.000 C 
ATOM     17  H   UNL     1       2.553   1.104  20.235  0.00  0.00    +0.000 HD
ENDROOT
BRANCH   1  18
ATOM     18  C   UNL     1       5.217   3.851  16.010  0.00  0.00    +0.000 C 
BRANCH  18  20
ATOM     19  C   UNL     1       6.868   4.856  14.400  0.00  0.00    +0.000 C 
ATOM     20  C   UNL     1       5.915   3.957  14.680  0.00  0.00    +0.000 C 
ENDBRANCH  18  20
ENDBRANCH   1  18
TORSDOF 2
ENDMDL
MODEL 7
REMARK VINA RESULT:      -5.4      1.859      2.122
REMARK  Name = 
REMARK  4 active torsions:
REMARK  status: ('A' for Active; 'I' for Inactive)
REMARK    1  A    between atoms: C_2  and  C_3
REMARK    2  A    between atoms: C_3  and  N_4
REMARK    3  A    between atoms: C_5  and  C_6
REMARK    4  A    between atoms: C_18  and  C_19
REMARK                            x       y       z     vdW  Elec       q    Type
REMARK                         _______ _______ _______ _____ _____    ______ ____
ROOT
ATOM      1  N   UNL     1       6.335   4.763  17.398  0.00  0.00    +0.000 NA
ATOM      2  C   UNL     1       6.097   6.192  17.081  0.00  0.00    +0.000 C 
ATOM      3  C   UNL     1       7.161   6.631  16.064  0.00  0.00    +0.000 C 
ATOM      4  C   UNL     1       4.695   6.650  16.622  0.00  0.00    +0.000 C 
ATOM      5  N   UNL     1       3.594   6.119  17.405  0.00  0.00    +0.000 N 
ATOM      6  C   UNL     1       2.555   6.817  18.053  0.00  0.00    +0.000 A 
ATOM      7  S   UNL     1       2.368   8.444  18.296  0.00  0.00    +0.000 S 
ATOM      8  N   UNL     1       1.641   5.856  18.512  0.00  0.00    +0.000 N 
ATOM      9  C   UNL     1       2.103   4.593  18.161  0.00  0.00    +0.000 A 
ATOM     10  C   UNL     1       1.550   3.363  18.438  0.00  0.00    +0.000 A 
ATOM     11  C   UNL     1       2.266   2.243  18.014  0.00  0.00    +0.000 A 
ATOM     12  C   UNL     1       3.515   2.383  17.372  0.00  0.00    +0.000 A 
ATOM     13  C   UNL     1       4.084   3.649  17.127  0.00  0.00    +0.000 A 
ATOM     14  C   UNL     1       3.317   4.742  17.490  0.00  0.00    +0.000 A 
ATOM     15  C   UNL     1       5.521   3.762  16.661  0.00  0.00    +0.000 C 
ATOM     16  C   UNL     1       5.621   3.808  15.132  0.00  0.00    +0.000 C 
ATOM     17  H   UNL     1       0.809   6.064  19.043  0.00  0.00    +0.000 HD
ENDROOT
BRANCH   1  18
ATOM     18  C   UNL     1       6.290   4.508  18.856  0.00  0.00    +0.000 C 
BRANCH  18  20
ATOM     19  C   UNL     1       8.315   5.645  19.820  0.00  0.00    +0.000 C 
ATOM     20  C   UNL     1       6.987   5.569  19.665  0.00  0.00    +0.000 C 
ENDBRANCH  18  20
ENDBRANCH   1  18
TORSDOF 2
ENDMDL
MODEL 8
REMARK VINA RESULT:      -5.4      2.638      5.206
REMARK  Name = 
REMARK  4 active torsions:
REMARK  status: ('A' for Active; 'I' for Inactive)
REMARK    1  A    between atoms: C_2  and  C_3
REMARK    2  A    between atoms: C_3  and  N_4
REMARK    3  A    between atoms: C_5  and  C_6
REMARK    4  A    between atoms: C_18  and  C_19
REMARK                            x       y       z     vdW  Elec       q    Type
REMARK                         _______ _______ _______ _____ _____    ______ ____
ROOT
ATOM      1  N   UNL     1       3.395   3.842  18.903  0.00  0.00    +0.000 NA
ATOM      2  C   UNL     1       2.948   3.834  17.489  0.00  0.00    +0.000 C 
ATOM      3  C   UNL     1       1.454   4.191  17.467  0.00  0.00    +0.000 C 
ATOM      4  C   UNL     1       3.715   4.670  16.440  0.00  0.00    +0.000 C 
ATOM      5  N   UNL     1       5.160   4.559  16.511  0.00  0.00    +0.000 N 
ATOM      6  C   UNL     1       6.069   4.214  15.490  0.00  0.00    +0.000 A 
ATOM      7  S   UNL     1       5.776   3.641  13.965  0.00  0.00    +0.000 S 
ATOM      8  N   UNL     1       7.359   4.427  16.001  0.00  0.00    +0.000 N 
ATOM      9  C   UNL     1       7.253   4.890  17.308  0.00  0.00    +0.000 A 
ATOM     10  C   UNL     1       8.255   5.192  18.201  0.00  0.00    +0.000 A 
ATOM     11  C   UNL     1       7.860   5.579  19.482  0.00  0.00    +0.000 A 
ATOM     12  C   UNL     1       6.495   5.614  19.838  0.00  0.00    +0.000 A 
ATOM     13  C   UNL     1       5.481   5.267  18.921  0.00  0.00    +0.000 A 
ATOM     14  C   UNL     1       5.899   4.960  17.639  0.00  0.00    +0.000 A 
ATOM     15  C   UNL     1       4.055   5.078  19.397  0.00  0.00    +0.000 C 
ATOM     16  C   UNL     1       3.240   6.371  19.276  0.00  0.00    +0.000 C 
ATOM     17  H   UNL     1       8.213   4.234  15.501  0.00  0.00    +0.000 HD
ENDROOT
BRANCH   1  18
ATOM     18  C   UNL     1       4.205   2.646  19.231  0.00  0.00    +0.000 C 
BRANCH  18  20
ATOM     19  C   UNL     1       2.902   2.430  21.370  0.00  0.00    +0.000 C 
ATOM     20  C   UNL     1       3.984   2.149  20.634  0.00  0.00    +0.000 C 
ENDBRANCH  18  20
ENDBRANCH   1  18
TORSDOF 2
ENDMDL
MODEL 9
REMARK VINA RESULT:      -5.4      9.215     10.727
REMARK  Name = 
REMARK  4 active torsions:
REMARK  status: ('A' for Active; 'I' for Inactive)
REMARK    1  A    between atoms: C_2  and  C_3
REMARK    2  A    between atoms: C_3  and  N_4
REMARK    3  A    between atoms: C_5  and  C_6
REMARK    4  A    between atoms: C_18  and  C_19
REMARK                            x       y       z     vdW  Elec       q    Type
REMARK                         _______ _______ _______ _____ _____    ______ ____
ROOT
ATOM      1  N   UNL     1       8.611  15.893  19.124  0.00  0.00    +0.000 NA
ATOM      2  C   UNL     1       7.827  15.849  20.382  0.00  0.00    +0.000 C 
ATOM      3  C   UNL     1       6.615  16.777  20.213  0.00  0.00    +0.000 C 
ATOM      4  C   UNL     1       7.383  14.486  20.958  0.00  0.00    +0.000 C 
ATOM      5  N   UNL     1       8.415  13.465  20.973  0.00  0.00    +0.000 N 
ATOM      6  C   UNL     1       8.873  12.690  22.057  0.00  0.00    +0.000 A 
ATOM      7  S   UNL     1       8.532  12.826  23.671  0.00  0.00    +0.000 S 
ATOM      8  N   UNL     1       9.740  11.721  21.529  0.00  0.00    +0.000 N 
ATOM      9  C   UNL     1       9.821  11.893  20.152  0.00  0.00    +0.000 A 
ATOM     10  C   UNL     1      10.579  11.198  19.238  0.00  0.00    +0.000 A 
ATOM     11  C   UNL     1      10.515  11.628  17.912  0.00  0.00    +0.000 A 
ATOM     12  C   UNL     1       9.738  12.750  17.552  0.00  0.00    +0.000 A 
ATOM     13  C   UNL     1       8.995  13.474  18.508  0.00  0.00    +0.000 A 
ATOM     14  C   UNL     1       9.018  12.978  19.799  0.00  0.00    +0.000 A 
ATOM     15  C   UNL     1       8.373  14.805  18.141  0.00  0.00    +0.000 C 
ATOM     16  C   UNL     1       6.928  14.641  17.653  0.00  0.00    +0.000 C 
ATOM     17  H   UNL     1      10.244  11.042  22.079  0.00  0.00    +0.000 HD
ENDROOT
BRANCH   1  18
ATOM     18  C   UNL     1      10.059  16.061  19.383  0.00  0.00    +0.000 C 
BRANCH  18  20
ATOM     19  C   UNL     1      11.449  16.549  17.346  0.00  0.00    +0.000 C 
ATOM     20  C   UNL     1      10.735  16.974  18.396  0.00  0.00    +0.000 C 
ENDBRANCH  18  20
ENDBRANCH   1  18
TORSDOF 2
ENDMDL
