MODEL 1
REMARK VINA RESULT:      -8.0      0.000      0.000
REMARK  Name = 
REMARK  9 active torsions:
REMARK  status: ('A' for Active; 'I' for Inactive)
REMARK    1  A    between atoms: C_2  and  O_3
REMARK    2  A    between atoms: C_2  and  C_4
REMARK    3  A    between atoms: N_8  and  C_9
REMARK    4  A    between atoms: C_9  and  C_10
REMARK    5  A    between atoms: C_10  and  O_11
REMARK    6  A    between atoms: O_11  and  C_12
REMARK    7  A    between atoms: C_15  and  C_16
REMARK    8  A    between atoms: C_24  and  S_25
REMARK    9  A    between atoms: S_25  and  C_26
REMARK                            x       y       z     vdW  Elec       q    Type
REMARK                         _______ _______ _______ _____ _____    ______ ____
ROOT
ATOM      1  C   UNL     1       0.754   8.804  20.476  0.00  0.00    +0.000 A 
ATOM      2  C   UNL     1       1.346   7.630  20.980  0.00  0.00    +0.000 A 
ATOM      3  C   UNL     1       2.251   6.853  20.223  0.00  0.00    +0.000 A 
ATOM      4  C   UNL     1       2.555   7.194  18.900  0.00  0.00    +0.000 A 
ATOM      5  C   UNL     1       1.992   8.393  18.440  0.00  0.00    +0.000 A 
ATOM      6  C   UNL     1       1.196   9.247  19.233  0.00  0.00    +0.000 A 
ENDROOT
BRANCH   4   7
ATOM      7  C   UNL     1       3.429   6.393  17.996  0.00  0.00    +0.000 A 
ATOM      8  C   UNL     1       3.333   4.993  17.899  0.00  0.00    +0.000 A 
ATOM      9  C   UNL     1       4.095   4.270  16.964  0.00  0.00    +0.000 A 
ATOM     10  C   UNL     1       4.976   4.937  16.116  0.00  0.00    +0.000 A 
ATOM     11 CL   UNL     1       5.875   4.068  14.932  0.00  0.00    +0.000 Cl
ATOM     12  C   UNL     1       5.127   6.310  16.213  0.00  0.00    +0.000 A 
ATOM     13  C   UNL     1       4.380   7.020  17.158  0.00  0.00    +0.000 A 
ENDBRANCH   4   7
BRANCH   1  14
ATOM     14  O   UNL     1      -0.182   9.329  21.313  0.00  0.00    +0.000 OA
BRANCH  14  15
ATOM     15  C   UNL     1       0.028  10.427  22.210  0.00  0.00    +0.000 C 
BRANCH  15  16
ATOM     16  C   UNL     1      -1.187  10.890  23.072  0.00  0.00    +0.000 C 
BRANCH  16  21
ATOM     17  C   UNL     1      -2.301  13.253  23.465  0.00  0.00    +0.000 C 
ATOM     18  C   UNL     1      -2.403  14.303  22.348  0.00  0.00    +0.000 C 
ATOM     19  C   UNL     1      -0.985  14.380  21.817  0.00  0.00    +0.000 C 
ATOM     20  C   UNL     1      -0.407  13.006  22.138  0.00  0.00    +0.000 C 
ATOM     21  N   UNL     1      -1.558  12.248  22.672  0.00  0.00    +0.000 NA
BRANCH  17  23
ATOM     22  O   UNL     1      -4.506  12.206  23.374  0.00  0.00    +0.000 OA
ATOM     23  C   UNL     1      -3.723  12.943  23.950  0.00  0.00    +0.000 C 
BRANCH  23  24
ATOM     24  O   UNL     1      -4.122  13.691  25.006  0.00  0.00    +0.000 OA
ATOM     25  H   UNL     1      -3.703  13.426  25.841  0.00  0.00    +0.000 HD
ENDBRANCH  23  24
ENDBRANCH  17  23
ENDBRANCH  16  21
ENDBRANCH  15  16
ENDBRANCH  14  15
ENDBRANCH   1  14
BRANCH   6  26
ATOM     26  S   UNL     1       1.044  10.899  18.572  0.00  0.00    +0.000 S 
BRANCH  26  27
ATOM     27  C   UNL     1      -0.727  10.930  18.291  0.00  0.00    +0.000 A 
ATOM     28  C   UNL     1      -1.331   9.994  17.437  0.00  0.00    +0.000 A 
ATOM     29  C   UNL     1      -2.724   9.938  17.321  0.00  0.00    +0.000 A 
ATOM     30  C   UNL     1      -3.517  10.819  18.053  0.00  0.00    +0.000 A 
ATOM     31  C   UNL     1      -2.909  11.779  18.855  0.00  0.00    +0.000 A 
ATOM     32  F   UNL     1      -3.673  12.634  19.548  0.00  0.00    +0.000 F 
ATOM     33  C   UNL     1      -1.526  11.849  18.973  0.00  0.00    +0.000 A 
ENDBRANCH  26  27
ENDBRANCH   6  26
TORSDOF 9
ENDMDL
MODEL 2
REMARK VINA RESULT:      -7.9      4.507      9.135
REMARK  Name = 
REMARK  9 active torsions:
REMARK  status: ('A' for Active; 'I' for Inactive)
REMARK    1  A    between atoms: C_2  and  O_3
REMARK    2  A    between atoms: C_2  and  C_4
REMARK    3  A    between atoms: N_8  and  C_9
REMARK    4  A    between atoms: C_9  and  C_10
REMARK    5  A    between atoms: C_10  and  O_11
REMARK    6  A    between atoms: O_11  and  C_12
REMARK    7  A    between atoms: C_15  and  C_16
REMARK    8  A    between atoms: C_24  and  S_25
REMARK    9  A    between atoms: S_25  and  C_26
REMARK                            x       y       z     vdW  Elec       q    Type
REMARK                         _______ _______ _______ _____ _____    ______ ____
ROOT
ATOM      1  C   UNL     1       0.808   9.408  21.517  0.00  0.00    +0.000 A 
ATOM      2  C   UNL     1       0.131   9.241  22.740  0.00  0.00    +0.000 A 
ATOM      3  C   UNL     1      -0.732  10.227  23.269  0.00  0.00    +0.000 A 
ATOM      4  C   UNL     1      -0.905  11.451  22.614  0.00  0.00    +0.000 A 
ATOM      5  C   UNL     1      -0.260  11.572  21.375  0.00  0.00    +0.000 A 
ATOM      6  C   UNL     1       0.494  10.542  20.775  0.00  0.00    +0.000 A 
ENDROOT
BRANCH   4   7
ATOM      7  C   UNL     1      -1.725  12.583  23.134  0.00  0.00    +0.000 A 
ATOM      8  C   UNL     1      -3.080  12.437  23.480  0.00  0.00    +0.000 A 
ATOM      9  C   UNL     1      -3.804  13.491  24.067  0.00  0.00    +0.000 A 
ATOM     10  C   UNL     1      -3.185  14.715  24.307  0.00  0.00    +0.000 A 
ATOM     11 CL   UNL     1      -4.046  15.995  25.071  0.00  0.00    +0.000 Cl
ATOM     12  C   UNL     1      -1.864  14.907  23.939  0.00  0.00    +0.000 A 
ATOM     13  C   UNL     1      -1.156  13.862  23.340  0.00  0.00    +0.000 A 
ENDBRANCH   4   7
BRANCH   1  14
ATOM     14  O   UNL     1       1.686   8.401  21.254  0.00  0.00    +0.000 OA
BRANCH  14  15
ATOM     15  C   UNL     1       1.362   7.165  20.604  0.00  0.00    +0.000 C 
BRANCH  15  16
ATOM     16  C   UNL     1       2.458   6.525  19.697  0.00  0.00    +0.000 C 
BRANCH  16  21
ATOM     17  C   UNL     1       3.271   4.012  19.783  0.00  0.00    +0.000 C 
ATOM     18  C   UNL     1       2.319   2.837  19.506  0.00  0.00    +0.000 C 
ATOM     19  C   UNL     1       1.141   3.126  20.414  0.00  0.00    +0.000 C 
ATOM     20  C   UNL     1       1.178   4.642  20.578  0.00  0.00    +0.000 C 
ATOM     21  N   UNL     1       2.249   5.077  19.658  0.00  0.00    +0.000 NA
BRANCH  17  23
ATOM     22  O   UNL     1       4.378   4.387  17.639  0.00  0.00    +0.000 OA
ATOM     23  C   UNL     1       4.421   3.935  18.771  0.00  0.00    +0.000 C 
BRANCH  23  24
ATOM     24  O   UNL     1       5.460   3.166  19.173  0.00  0.00    +0.000 OA
ATOM     25  H   UNL     1       6.238   3.684  19.437  0.00  0.00    +0.000 HD
ENDBRANCH  23  24
ENDBRANCH  17  23
ENDBRANCH  16  21
ENDBRANCH  15  16
ENDBRANCH  14  15
ENDBRANCH   1  14
BRANCH   6  26
ATOM     26  S   UNL     1       0.765  10.782  19.026  0.00  0.00    +0.000 S 
BRANCH  26  27
ATOM     27  C   UNL     1      -0.939  10.731  18.467  0.00  0.00    +0.000 A 
ATOM     28  C   UNL     1      -1.902  11.580  19.033  0.00  0.00    +0.000 A 
ATOM     29  C   UNL     1      -3.198  11.630  18.508  0.00  0.00    +0.000 A 
ATOM     30  C   UNL     1      -3.536  10.829  17.419  0.00  0.00    +0.000 A 
ATOM     31  C   UNL     1      -2.591   9.952  16.897  0.00  0.00    +0.000 A 
ATOM     32  F   UNL     1      -2.923   9.173  15.859  0.00  0.00    +0.000 F 
ATOM     33  C   UNL     1      -1.303   9.887  17.416  0.00  0.00    +0.000 A 
ENDBRANCH  26  27
ENDBRANCH   6  26
TORSDOF 9
ENDMDL
MODEL 3
REMARK VINA RESULT:      -7.8      5.799     10.430
REMARK  Name = 
REMARK  9 active torsions:
REMARK  status: ('A' for Active; 'I' for Inactive)
REMARK    1  A    between atoms: C_2  and  O_3
REMARK    2  A    between atoms: C_2  and  C_4
REMARK    3  A    between atoms: N_8  and  C_9
REMARK    4  A    between atoms: C_9  and  C_10
REMARK    5  A    between atoms: C_10  and  O_11
REMARK    6  A    between atoms: O_11  and  C_12
REMARK    7  A    between atoms: C_15  and  C_16
REMARK    8  A    between atoms: C_24  and  S_25
REMARK    9  A    between atoms: S_25  and  C_26
REMARK                            x       y       z     vdW  Elec       q    Type
REMARK                         _______ _______ _______ _____ _____    ______ ____
ROOT
ATOM      1  C   UNL     1       2.332   6.351  18.895  0.00  0.00    +0.000 A 
ATOM      2  C   UNL     1       2.267   7.644  18.342  0.00  0.00    +0.000 A 
ATOM      3  C   UNL     1       1.753   8.748  19.056  0.00  0.00    +0.000 A 
ATOM      4  C   UNL     1       1.227   8.586  20.343  0.00  0.00    +0.000 A 
ATOM      5  C   UNL     1       1.350   7.301  20.889  0.00  0.00    +0.000 A 
ATOM      6  C   UNL     1       1.984   6.223  20.236  0.00  0.00    +0.000 A 
ENDROOT
BRANCH   4   7
ATOM      7  C   UNL     1       0.587   9.671  21.141  0.00  0.00    +0.000 A 
ATOM      8  C   UNL     1       0.586  11.014  20.725  0.00  0.00    +0.000 A 
ATOM      9  C   UNL     1      -0.114  12.002  21.441  0.00  0.00    +0.000 A 
ATOM     10  C   UNL     1      -0.816  11.663  22.595  0.00  0.00    +0.000 A 
ATOM     11 CL   UNL     1      -1.718  12.854  23.451  0.00  0.00    +0.000 Cl
ATOM     12  C   UNL     1      -0.800  10.358  23.058  0.00  0.00    +0.000 A 
ATOM     13  C   UNL     1      -0.087   9.385  22.351  0.00  0.00    +0.000 A 
ENDBRANCH   4   7
BRANCH   1  14
ATOM     14  O   UNL     1       2.738   5.409  18.000  0.00  0.00    +0.000 OA
BRANCH  14  15
ATOM     15  C   UNL     1       3.944   5.461  17.228  0.00  0.00    +0.000 C 
BRANCH  15  16
ATOM     16  C   UNL     1       4.332   4.185  16.419  0.00  0.00    +0.000 C 
BRANCH  16  21
ATOM     17  C   UNL     1       6.930   4.265  15.943  0.00  0.00    +0.000 C 
ATOM     18  C   UNL     1       7.509   4.940  14.690  0.00  0.00    +0.000 C 
ATOM     19  C   UNL     1       6.703   4.327  13.563  0.00  0.00    +0.000 C 
ATOM     20  C   UNL     1       5.388   3.940  14.232  0.00  0.00    +0.000 C 
ATOM     21  N   UNL     1       5.506   4.487  15.599  0.00  0.00    +0.000 NA
BRANCH  17  23
ATOM     22  O   UNL     1       7.822   4.386  18.213  0.00  0.00    +0.000 OA
ATOM     23  C   UNL     1       7.535   4.954  17.172  0.00  0.00    +0.000 C 
BRANCH  23  24
ATOM     24  O   UNL     1       7.582   6.304  17.082  0.00  0.00    +0.000 OA
ATOM     25  H   UNL     1       7.062   6.655  16.340  0.00  0.00    +0.000 HD
ENDBRANCH  23  24
ENDBRANCH  17  23
ENDBRANCH  16  21
ENDBRANCH  15  16
ENDBRANCH  14  15
ENDBRANCH   1  14
BRANCH   6  26
ATOM     26  S   UNL     1       2.435   4.889  21.334  0.00  0.00    +0.000 S 
BRANCH  26  27
ATOM     27  C   UNL     1       2.142   3.504  20.233  0.00  0.00    +0.000 A 
ATOM     28  C   UNL     1       0.844   3.207  19.789  0.00  0.00    +0.000 A 
ATOM     29  C   UNL     1       0.634   2.210  18.830  0.00  0.00    +0.000 A 
ATOM     30  C   UNL     1       1.720   1.504  18.317  0.00  0.00    +0.000 A 
ATOM     31  C   UNL     1       2.997   1.767  18.801  0.00  0.00    +0.000 A 
ATOM     32  F   UNL     1       4.038   1.077  18.315  0.00  0.00    +0.000 F 
ATOM     33  C   UNL     1       3.216   2.750  19.759  0.00  0.00    +0.000 A 
ENDBRANCH  26  27
ENDBRANCH   6  26
TORSDOF 9
ENDMDL
MODEL 4
REMARK VINA RESULT:      -7.7      3.502      5.718
REMARK  Name = 
REMARK  9 active torsions:
REMARK  status: ('A' for Active; 'I' for Inactive)
REMARK    1  A    between atoms: C_2  and  O_3
REMARK    2  A    between atoms: C_2  and  C_4
REMARK    3  A    between atoms: N_8  and  C_9
REMARK    4  A    between atoms: C_9  and  C_10
REMARK    5  A    between atoms: C_10  and  O_11
REMARK    6  A    between atoms: O_11  and  C_12
REMARK    7  A    between atoms: C_15  and  C_16
REMARK    8  A    between atoms: C_24  and  S_25
REMARK    9  A    between atoms: S_25  and  C_26
REMARK                            x       y       z     vdW  Elec       q    Type
REMARK                         _______ _______ _______ _____ _____    ______ ____
ROOT
ATOM      1  C   UNL     1       1.975   7.633  19.894  0.00  0.00    +0.000 A 
ATOM      2  C   UNL     1       2.292   8.359  18.731  0.00  0.00    +0.000 A 
ATOM      3  C   UNL     1       3.058   7.808  17.680  0.00  0.00    +0.000 A 
ATOM      4  C   UNL     1       3.589   6.518  17.782  0.00  0.00    +0.000 A 
ATOM      5  C   UNL     1       3.217   5.799  18.926  0.00  0.00    +0.000 A 
ATOM      6  C   UNL     1       2.342   6.291  19.917  0.00  0.00    +0.000 A 
ENDROOT
BRANCH   4   7
ATOM      7  C   UNL     1       4.478   5.883  16.766  0.00  0.00    +0.000 A 
ATOM      8  C   UNL     1       4.763   4.506  16.767  0.00  0.00    +0.000 A 
ATOM      9  C   UNL     1       5.518   3.914  15.739  0.00  0.00    +0.000 A 
ATOM     10  C   UNL     1       6.011   4.694  14.696  0.00  0.00    +0.000 A 
ATOM     11 CL   UNL     1       6.892   3.971  13.405  0.00  0.00    +0.000 Cl
ATOM     12  C   UNL     1       5.786   6.060  14.686  0.00  0.00    +0.000 A 
ATOM     13  C   UNL     1       5.051   6.645  15.721  0.00  0.00    +0.000 A 
ENDBRANCH   4   7
BRANCH   1  14
ATOM     14  O   UNL     1       1.341   8.386  20.835  0.00  0.00    +0.000 OA
BRANCH  14  15
ATOM     15  C   UNL     1       0.415   9.446  20.566  0.00  0.00    +0.000 C 
BRANCH  15  16
ATOM     16  C   UNL     1       0.811  10.879  21.038  0.00  0.00    +0.000 C 
BRANCH  16  21
ATOM     17  C   UNL     1      -1.630  11.823  20.671  0.00  0.00    +0.000 C 
ATOM     18  C   UNL     1      -2.326  12.711  21.715  0.00  0.00    +0.000 C 
ATOM     19  C   UNL     1      -2.165  11.924  23.000  0.00  0.00    +0.000 C 
ATOM     20  C   UNL     1      -0.906  11.099  22.760  0.00  0.00    +0.000 C 
ATOM     21  N   UNL     1      -0.399  11.586  21.461  0.00  0.00    +0.000 NA
BRANCH  17  23
ATOM     22  O   UNL     1      -1.534  12.106  18.248  0.00  0.00    +0.000 OA
ATOM     23  C   UNL     1      -1.555  12.611  19.358  0.00  0.00    +0.000 C 
BRANCH  23  24
ATOM     24  O   UNL     1      -1.343  13.938  19.521  0.00  0.00    +0.000 OA
ATOM     25  H   UNL     1      -0.402  14.176  19.532  0.00  0.00    +0.000 HD
ENDBRANCH  23  24
ENDBRANCH  17  23
ENDBRANCH  16  21
ENDBRANCH  15  16
ENDBRANCH  14  15
ENDBRANCH   1  14
BRANCH   6  26
ATOM     26  S   UNL     1       1.661   5.015  20.966  0.00  0.00    +0.000 S 
BRANCH  26  27
ATOM     27  C   UNL     1       2.243   3.574  20.071  0.00  0.00    +0.000 A 
ATOM     28  C   UNL     1       1.571   3.126  18.923  0.00  0.00    +0.000 A 
ATOM     29  C   UNL     1       2.100   2.083  18.155  0.00  0.00    +0.000 A 
ATOM     30  C   UNL     1       3.299   1.482  18.535  0.00  0.00    +0.000 A 
ATOM     31  C   UNL     1       3.931   1.895  19.702  0.00  0.00    +0.000 A 
ATOM     32  F   UNL     1       5.076   1.306  20.072  0.00  0.00    +0.000 F 
ATOM     33  C   UNL     1       3.410   2.925  20.478  0.00  0.00    +0.000 A 
ENDBRANCH  26  27
ENDBRANCH   6  26
TORSDOF 9
ENDMDL
MODEL 5
REMARK VINA RESULT:      -7.6      0.937      1.362
REMARK  Name = 
REMARK  9 active torsions:
REMARK  status: ('A' for Active; 'I' for Inactive)
REMARK    1  A    between atoms: C_2  and  O_3
REMARK    2  A    between atoms: C_2  and  C_4
REMARK    3  A    between atoms: N_8  and  C_9
REMARK    4  A    between atoms: C_9  and  C_10
REMARK    5  A    between atoms: C_10  and  O_11
REMARK    6  A    between atoms: O_11  and  C_12
REMARK    7  A    between atoms: C_15  and  C_16
REMARK    8  A    between atoms: C_24  and  S_25
REMARK    9  A    between atoms: S_25  and  C_26
REMARK                            x       y       z     vdW  Elec       q    Type
REMARK                         _______ _______ _______ _____ _____    ______ ____
ROOT
ATOM      1  C   UNL     1       0.361   9.475  20.768  0.00  0.00    +0.000 A 
ATOM      2  C   UNL     1       1.045   8.380  21.330  0.00  0.00    +0.000 A 
ATOM      3  C   UNL     1       1.902   7.553  20.571  0.00  0.00    +0.000 A 
ATOM      4  C   UNL     1       2.063   7.758  19.196  0.00  0.00    +0.000 A 
ATOM      5  C   UNL     1       1.411   8.884  18.673  0.00  0.00    +0.000 A 
ATOM      6  C   UNL     1       0.662   9.794  19.448  0.00  0.00    +0.000 A 
ENDROOT
BRANCH   4   7
ATOM      7  C   UNL     1       2.876   6.889  18.298  0.00  0.00    +0.000 A 
ATOM      8  C   UNL     1       3.932   7.389  17.517  0.00  0.00    +0.000 A 
ATOM      9  C   UNL     1       4.751   6.534  16.758  0.00  0.00    +0.000 A 
ATOM     10  C   UNL     1       4.518   5.161  16.759  0.00  0.00    +0.000 A 
ATOM     11 CL   UNL     1       5.546   4.100  15.875  0.00  0.00    +0.000 Cl
ATOM     12  C   UNL     1       3.460   4.639  17.483  0.00  0.00    +0.000 A 
ATOM     13  C   UNL     1       2.638   5.496  18.219  0.00  0.00    +0.000 A 
ENDBRANCH   4   7
BRANCH   1  14
ATOM     14  O   UNL     1      -0.510  10.060  21.636  0.00  0.00    +0.000 OA
BRANCH  14  15
ATOM     15  C   UNL     1      -0.506  11.443  22.010  0.00  0.00    +0.000 C 
BRANCH  15  16
ATOM     16  C   UNL     1      -1.495  11.884  23.133  0.00  0.00    +0.000 C 
BRANCH  16  21
ATOM     17  C   UNL     1      -3.658  13.399  23.215  0.00  0.00    +0.000 C 
ATOM     18  C   UNL     1      -4.139  14.201  21.995  0.00  0.00    +0.000 C 
ATOM     19  C   UNL     1      -2.892  14.944  21.558  0.00  0.00    +0.000 C 
ATOM     20  C   UNL     1      -1.754  14.056  22.052  0.00  0.00    +0.000 C 
ATOM     21  N   UNL     1      -2.437  12.856  22.577  0.00  0.00    +0.000 NA
BRANCH  17  23
ATOM     22  O   UNL     1      -5.828  12.298  23.007  0.00  0.00    +0.000 OA
ATOM     23  C   UNL     1      -4.790  12.449  23.629  0.00  0.00    +0.000 C 
BRANCH  23  24
ATOM     24  O   UNL     1      -4.625  11.894  24.853  0.00  0.00    +0.000 OA
ATOM     25  H   UNL     1      -5.465  11.710  25.304  0.00  0.00    +0.000 HD
ENDBRANCH  23  24
ENDBRANCH  17  23
ENDBRANCH  16  21
ENDBRANCH  15  16
ENDBRANCH  14  15
ENDBRANCH   1  14
BRANCH   6  26
ATOM     26  S   UNL     1       0.382  11.360  18.637  0.00  0.00    +0.000 S 
BRANCH  26  27
ATOM     27  C   UNL     1      -1.353  11.161  18.228  0.00  0.00    +0.000 A 
ATOM     28  C   UNL     1      -1.773  10.125  17.380  0.00  0.00    +0.000 A 
ATOM     29  C   UNL     1      -3.136   9.893  17.168  0.00  0.00    +0.000 A 
ATOM     30  C   UNL     1      -4.082  10.699  17.797  0.00  0.00    +0.000 A 
ATOM     31  C   UNL     1      -3.658  11.757  18.593  0.00  0.00    +0.000 A 
ATOM     32  F   UNL     1      -4.570  12.538  19.187  0.00  0.00    +0.000 F 
ATOM     33  C   UNL     1      -2.306  12.002  18.806  0.00  0.00    +0.000 A 
ENDBRANCH  26  27
ENDBRANCH   6  26
TORSDOF 9
ENDMDL
MODEL 6
REMARK VINA RESULT:      -7.6      4.440      9.106
REMARK  Name = 
REMARK  9 active torsions:
REMARK  status: ('A' for Active; 'I' for Inactive)
REMARK    1  A    between atoms: C_2  and  O_3
REMARK    2  A    between atoms: C_2  and  C_4
REMARK    3  A    between atoms: N_8  and  C_9
REMARK    4  A    between atoms: C_9  and  C_10
REMARK    5  A    between atoms: C_10  and  O_11
REMARK    6  A    between atoms: O_11  and  C_12
REMARK    7  A    between atoms: C_15  and  C_16
REMARK    8  A    between atoms: C_24  and  S_25
REMARK    9  A    between atoms: S_25  and  C_26
REMARK                            x       y       z     vdW  Elec       q    Type
REMARK                         _______ _______ _______ _____ _____    ______ ____
ROOT
ATOM      1  C   UNL     1       0.804   9.347  21.324  0.00  0.00    +0.000 A 
ATOM      2  C   UNL     1       0.164   9.121  22.558  0.00  0.00    +0.000 A 
ATOM      3  C   UNL     1      -0.692  10.073  23.153  0.00  0.00    +0.000 A 
ATOM      4  C   UNL     1      -0.896  11.323  22.558  0.00  0.00    +0.000 A 
ATOM      5  C   UNL     1      -0.288  11.504  21.307  0.00  0.00    +0.000 A 
ATOM      6  C   UNL     1       0.458  10.509  20.641  0.00  0.00    +0.000 A 
ENDROOT
BRANCH   4   7
ATOM      7  C   UNL     1      -1.710  12.422  23.150  0.00  0.00    +0.000 A 
ATOM      8  C   UNL     1      -1.200  13.717  23.352  0.00  0.00    +0.000 A 
ATOM      9  C   UNL     1      -2.018  14.763  23.814  0.00  0.00    +0.000 A 
ATOM     10  C   UNL     1      -3.362  14.528  24.093  0.00  0.00    +0.000 A 
ATOM     11 CL   UNL     1      -4.385  15.813  24.609  0.00  0.00    +0.000 Cl
ATOM     12  C   UNL     1      -3.888  13.256  23.947  0.00  0.00    +0.000 A 
ATOM     13  C   UNL     1      -3.065  12.216  23.505  0.00  0.00    +0.000 A 
ENDBRANCH   4   7
BRANCH   1  14
ATOM     14  O   UNL     1       1.683   8.362  20.992  0.00  0.00    +0.000 OA
BRANCH  14  15
ATOM     15  C   UNL     1       1.687   7.633  19.758  0.00  0.00    +0.000 C 
BRANCH  15  16
ATOM     16  C   UNL     1       2.853   6.623  19.527  0.00  0.00    +0.000 C 
BRANCH  16  21
ATOM     17  C   UNL     1       3.022   4.010  19.176  0.00  0.00    +0.000 C 
ATOM     18  C   UNL     1       1.775   3.114  19.100  0.00  0.00    +0.000 C 
ATOM     19  C   UNL     1       0.989   3.512  20.334  0.00  0.00    +0.000 C 
ATOM     20  C   UNL     1       1.436   4.947  20.596  0.00  0.00    +0.000 C 
ATOM     21  N   UNL     1       2.295   5.273  19.439  0.00  0.00    +0.000 NA
BRANCH  17  23
ATOM     22  O   UNL     1       3.917   4.697  17.011  0.00  0.00    +0.000 OA
ATOM     23  C   UNL     1       3.805   3.837  17.868  0.00  0.00    +0.000 C 
BRANCH  23  24
ATOM     24  O   UNL     1       4.243   2.575  17.649  0.00  0.00    +0.000 OA
ATOM     25  H   UNL     1       3.590   2.019  17.194  0.00  0.00    +0.000 HD
ENDBRANCH  23  24
ENDBRANCH  17  23
ENDBRANCH  16  21
ENDBRANCH  15  16
ENDBRANCH  14  15
ENDBRANCH   1  14
BRANCH   6  26
ATOM     26  S   UNL     1       0.676  10.828  18.897  0.00  0.00    +0.000 S 
BRANCH  26  27
ATOM     27  C   UNL     1      -1.041  10.762  18.382  0.00  0.00    +0.000 A 
ATOM     28  C   UNL     1      -1.994  11.612  18.964  0.00  0.00    +0.000 A 
ATOM     29  C   UNL     1      -3.303  11.651  18.471  0.00  0.00    +0.000 A 
ATOM     30  C   UNL     1      -3.664  10.837  17.399  0.00  0.00    +0.000 A 
ATOM     31  C   UNL     1      -2.729   9.959  16.863  0.00  0.00    +0.000 A 
ATOM     32  F   UNL     1      -3.082   9.167  15.841  0.00  0.00    +0.000 F 
ATOM     33  C   UNL     1      -1.428   9.906  17.350  0.00  0.00    +0.000 A 
ENDBRANCH  26  27
ENDBRANCH   6  26
TORSDOF 9
ENDMDL
MODEL 7
REMARK VINA RESULT:      -7.6      4.376      8.737
REMARK  Name = 
REMARK  9 active torsions:
REMARK  status: ('A' for Active; 'I' for Inactive)
REMARK    1  A    between atoms: C_2  and  O_3
REMARK    2  A    between atoms: C_2  and  C_4
REMARK    3  A    between atoms: N_8  and  C_9
REMARK    4  A    between atoms: C_9  and  C_10
REMARK    5  A    between atoms: C_10  and  O_11
REMARK    6  A    between atoms: O_11  and  C_12
REMARK    7  A    between atoms: C_15  and  C_16
REMARK    8  A    between atoms: C_24  and  S_25
REMARK    9  A    between atoms: S_25  and  C_26
REMARK                            x       y       z     vdW  Elec       q    Type
REMARK                         _______ _______ _______ _____ _____    ______ ____
ROOT
ATOM      1  C   UNL     1       1.171   9.026  19.278  0.00  0.00    +0.000 A 
ATOM      2  C   UNL     1       0.853   9.297  17.933  0.00  0.00    +0.000 A 
ATOM      3  C   UNL     1      -0.338   9.955  17.555  0.00  0.00    +0.000 A 
ATOM      4  C   UNL     1      -1.290  10.319  18.514  0.00  0.00    +0.000 A 
ATOM      5  C   UNL     1      -0.927  10.083  19.847  0.00  0.00    +0.000 A 
ATOM      6  C   UNL     1       0.318   9.550  20.243  0.00  0.00    +0.000 A 
ENDROOT
BRANCH   4   7
ATOM      7  C   UNL     1      -2.611  10.939  18.206  0.00  0.00    +0.000 A 
ATOM      8  C   UNL     1      -3.289  10.710  16.995  0.00  0.00    +0.000 A 
ATOM      9  C   UNL     1      -4.580  11.221  16.771  0.00  0.00    +0.000 A 
ATOM     10  C   UNL     1      -5.210  11.982  17.752  0.00  0.00    +0.000 A 
ATOM     11 CL   UNL     1      -6.811  12.569  17.509  0.00  0.00    +0.000 Cl
ATOM     12  C   UNL     1      -4.555  12.263  18.939  0.00  0.00    +0.000 A 
ATOM     13  C   UNL     1      -3.265  11.767  19.148  0.00  0.00    +0.000 A 
ENDBRANCH   4   7
BRANCH   1  14
ATOM     14  O   UNL     1       2.297   8.272  19.416  0.00  0.00    +0.000 OA
BRANCH  14  15
ATOM     15  C   UNL     1       2.329   6.886  19.778  0.00  0.00    +0.000 C 
BRANCH  15  16
ATOM     16  C   UNL     1       2.188   5.843  18.626  0.00  0.00    +0.000 C 
BRANCH  16  21
ATOM     17  C   UNL     1       3.356   3.812  19.847  0.00  0.00    +0.000 C 
ATOM     18  C   UNL     1       2.649   2.461  20.042  0.00  0.00    +0.000 C 
ATOM     19  C   UNL     1       1.318   2.853  20.652  0.00  0.00    +0.000 C 
ATOM     20  C   UNL     1       1.096   4.274  20.145  0.00  0.00    +0.000 C 
ATOM     21  N   UNL     1       2.213   4.498  19.204  0.00  0.00    +0.000 NA
BRANCH  17  23
ATOM     22  O   UNL     1       5.741   3.992  19.355  0.00  0.00    +0.000 OA
ATOM     23  C   UNL     1       4.642   3.558  19.051  0.00  0.00    +0.000 C 
BRANCH  23  24
ATOM     24  O   UNL     1       4.444   2.938  17.864  0.00  0.00    +0.000 OA
ATOM     25  H   UNL     1       4.231   3.553  17.143  0.00  0.00    +0.000 HD
ENDBRANCH  23  24
ENDBRANCH  17  23
ENDBRANCH  16  21
ENDBRANCH  15  16
ENDBRANCH  14  15
ENDBRANCH   1  14
BRANCH   6  26
ATOM     26  S   UNL     1       0.697   9.827  21.967  0.00  0.00    +0.000 S 
BRANCH  26  27
ATOM     27  C   UNL     1      -0.393  11.218  22.276  0.00  0.00    +0.000 A 
ATOM     28  C   UNL     1      -0.165  12.455  21.653  0.00  0.00    +0.000 A 
ATOM     29  C   UNL     1      -1.087  13.498  21.793  0.00  0.00    +0.000 A 
ATOM     30  C   UNL     1      -2.236  13.309  22.560  0.00  0.00    +0.000 A 
ATOM     31  C   UNL     1      -2.427  12.099  23.216  0.00  0.00    +0.000 A 
ATOM     32  F   UNL     1      -3.526  11.924  23.964  0.00  0.00    +0.000 F 
ATOM     33  C   UNL     1      -1.514  11.058  23.091  0.00  0.00    +0.000 A 
ENDBRANCH  26  27
ENDBRANCH   6  26
TORSDOF 9
ENDMDL
MODEL 8
REMARK VINA RESULT:      -7.6      2.288      3.553
REMARK  Name = 
REMARK  9 active torsions:
REMARK  status: ('A' for Active; 'I' for Inactive)
REMARK    1  A    between atoms: C_2  and  O_3
REMARK    2  A    between atoms: C_2  and  C_4
REMARK    3  A    between atoms: N_8  and  C_9
REMARK    4  A    between atoms: C_9  and  C_10
REMARK    5  A    between atoms: C_10  and  O_11
REMARK    6  A    between atoms: O_11  and  C_12
REMARK    7  A    between atoms: C_15  and  C_16
REMARK    8  A    between atoms: C_24  and  S_25
REMARK    9  A    between atoms: S_25  and  C_26
REMARK                            x       y       z     vdW  Elec       q    Type
REMARK                         _______ _______ _______ _____ _____    ______ ____
ROOT
ATOM      1  C   UNL     1      -0.800  11.209  22.234  0.00  0.00    +0.000 A 
ATOM      2  C   UNL     1      -0.173  10.195  22.983  0.00  0.00    +0.000 A 
ATOM      3  C   UNL     1       0.601   9.178  22.382  0.00  0.00    +0.000 A 
ATOM      4  C   UNL     1       0.729   9.104  20.990  0.00  0.00    +0.000 A 
ATOM      5  C   UNL     1       0.138  10.153  20.272  0.00  0.00    +0.000 A 
ATOM      6  C   UNL     1      -0.522  11.247  20.871  0.00  0.00    +0.000 A 
ENDROOT
BRANCH   4   7
ATOM      7  C   UNL     1       1.452   8.023  20.261  0.00  0.00    +0.000 A 
ATOM      8  C   UNL     1       1.612   6.731  20.790  0.00  0.00    +0.000 A 
ATOM      9  C   UNL     1       2.205   5.700  20.040  0.00  0.00    +0.000 A 
ATOM     10  C   UNL     1       2.659   5.949  18.747  0.00  0.00    +0.000 A 
ATOM     11 CL   UNL     1       3.339   4.682  17.801  0.00  0.00    +0.000 Cl
ATOM     12  C   UNL     1       2.557   7.220  18.210  0.00  0.00    +0.000 A 
ATOM     13  C   UNL     1       1.984   8.245  18.968  0.00  0.00    +0.000 A 
ENDBRANCH   4   7
BRANCH   1  14
ATOM     14  O   UNL     1      -1.600  12.011  22.990  0.00  0.00    +0.000 OA
BRANCH  14  15
ATOM     15  C   UNL     1      -3.010  12.187  22.807  0.00  0.00    +0.000 C 
BRANCH  15  16
ATOM     16  C   UNL     1      -3.855  12.555  24.065  0.00  0.00    +0.000 C 
BRANCH  16  21
ATOM     17  C   UNL     1      -6.376  13.319  23.864  0.00  0.00    +0.000 C 
ATOM     18  C   UNL     1      -6.788  14.575  23.079  0.00  0.00    +0.000 C 
ATOM     19  C   UNL     1      -5.870  15.645  23.636  0.00  0.00    +0.000 C 
ATOM     20  C   UNL     1      -4.653  14.861  24.114  0.00  0.00    +0.000 C 
ATOM     21  N   UNL     1      -4.917  13.479  23.666  0.00  0.00    +0.000 NA
BRANCH  17  23
ATOM     22  O   UNL     1      -7.835  11.361  23.862  0.00  0.00    +0.000 OA
ATOM     23  C   UNL     1      -7.104  12.118  23.246  0.00  0.00    +0.000 C 
BRANCH  23  24
ATOM     24  O   UNL     1      -6.744  11.851  21.969  0.00  0.00    +0.000 OA
ATOM     25  H   UNL     1      -5.862  11.451  21.897  0.00  0.00    +0.000 HD
ENDBRANCH  23  24
ENDBRANCH  17  23
ENDBRANCH  16  21
ENDBRANCH  15  16
ENDBRANCH  14  15
ENDBRANCH   1  14
BRANCH   6  26
ATOM     26  S   UNL     1      -0.723  12.645  19.778  0.00  0.00    +0.000 S 
BRANCH  26  27
ATOM     27  C   UNL     1      -2.043  12.008  18.744  0.00  0.00    +0.000 A 
ATOM     28  C   UNL     1      -3.369  12.000  19.203  0.00  0.00    +0.000 A 
ATOM     29  C   UNL     1      -4.411  11.625  18.349  0.00  0.00    +0.000 A 
ATOM     30  C   UNL     1      -4.131  11.253  17.036  0.00  0.00    +0.000 A 
ATOM     31  C   UNL     1      -2.810  11.212  16.604  0.00  0.00    +0.000 A 
ATOM     32  F   UNL     1      -2.541  10.841  15.345  0.00  0.00    +0.000 F 
ATOM     33  C   UNL     1      -1.765  11.575  17.447  0.00  0.00    +0.000 A 
ENDBRANCH  26  27
ENDBRANCH   6  26
TORSDOF 9
ENDMDL
MODEL 9
REMARK VINA RESULT:      -7.5      1.928      2.905
REMARK  Name = 
REMARK  9 active torsions:
REMARK  status: ('A' for Active; 'I' for Inactive)
REMARK    1  A    between atoms: C_2  and  O_3
REMARK    2  A    between atoms: C_2  and  C_4
REMARK    3  A    between atoms: N_8  and  C_9
REMARK    4  A    between atoms: C_9  and  C_10
REMARK    5  A    between atoms: C_10  and  O_11
REMARK    6  A    between atoms: O_11  and  C_12
REMARK    7  A    between atoms: C_15  and  C_16
REMARK    8  A    between atoms: C_24  and  S_25
REMARK    9  A    between atoms: S_25  and  C_26
REMARK                            x       y       z     vdW  Elec       q    Type
REMARK                         _______ _______ _______ _____ _____    ______ ____
ROOT
ATOM      1  C   UNL     1      -0.046  10.789  21.894  0.00  0.00    +0.000 A 
ATOM      2  C   UNL     1       0.613   9.817  22.670  0.00  0.00    +0.000 A 
ATOM      3  C   UNL     1       1.275   8.710  22.095  0.00  0.00    +0.000 A 
ATOM      4  C   UNL     1       1.252   8.502  20.711  0.00  0.00    +0.000 A 
ATOM      5  C   UNL     1       0.633   9.510  19.959  0.00  0.00    +0.000 A 
ATOM      6  C   UNL     1       0.087  10.687  20.513  0.00  0.00    +0.000 A 
ENDROOT
BRANCH   4   7
ATOM      7  C   UNL     1       1.847   7.323  20.020  0.00  0.00    +0.000 A 
ATOM      8  C   UNL     1       1.774   6.022  20.548  0.00  0.00    +0.000 A 
ATOM      9  C   UNL     1       2.250   4.911  19.828  0.00  0.00    +0.000 A 
ATOM     10  C   UNL     1       2.818   5.086  18.569  0.00  0.00    +0.000 A 
ATOM     11 CL   UNL     1       3.357   3.729  17.657  0.00  0.00    +0.000 Cl
ATOM     12  C   UNL     1       2.945   6.358  18.037  0.00  0.00    +0.000 A 
ATOM     13  C   UNL     1       2.488   7.459  18.766  0.00  0.00    +0.000 A 
ENDBRANCH   4   7
BRANCH   1  14
ATOM     14  O   UNL     1      -0.727  11.698  22.646  0.00  0.00    +0.000 OA
BRANCH  14  15
ATOM     15  C   UNL     1      -2.154  11.796  22.741  0.00  0.00    +0.000 C 
BRANCH  15  16
ATOM     16  C   UNL     1      -2.745  13.141  23.263  0.00  0.00    +0.000 C 
BRANCH  16  21
ATOM     17  C   UNL     1      -5.365  13.480  23.340  0.00  0.00    +0.000 C 
ATOM     18  C   UNL     1      -6.220  13.517  22.064  0.00  0.00    +0.000 C 
ATOM     19  C   UNL     1      -5.501  14.530  21.195  0.00  0.00    +0.000 C 
ATOM     20  C   UNL     1      -4.058  14.461  21.684  0.00  0.00    +0.000 C 
ATOM     21  N   UNL     1      -4.060  13.345  22.652  0.00  0.00    +0.000 NA
BRANCH  17  23
ATOM     22  O   UNL     1      -7.014  11.881  24.166  0.00  0.00    +0.000 OA
ATOM     23  C   UNL     1      -5.885  12.339  24.223  0.00  0.00    +0.000 C 
BRANCH  23  24
ATOM     24  O   UNL     1      -5.034  11.970  25.209  0.00  0.00    +0.000 OA
ATOM     25  H   UNL     1      -5.486  11.743  26.037  0.00  0.00    +0.000 HD
ENDBRANCH  23  24
ENDBRANCH  17  23
ENDBRANCH  16  21
ENDBRANCH  15  16
ENDBRANCH  14  15
ENDBRANCH   1  14
BRANCH   6  26
ATOM     26  S   UNL     1      -0.169  11.988  19.316  0.00  0.00    +0.000 S 
BRANCH  26  27
ATOM     27  C   UNL     1      -1.763  11.473  18.675  0.00  0.00    +0.000 A 
ATOM     28  C   UNL     1      -2.949  12.035  19.174  0.00  0.00    +0.000 A 
ATOM     29  C   UNL     1      -4.180  11.728  18.584  0.00  0.00    +0.000 A 
ATOM     30  C   UNL     1      -4.230  10.855  17.499  0.00  0.00    +0.000 A 
ATOM     31  C   UNL     1      -3.058  10.261  17.046  0.00  0.00    +0.000 A 
ATOM     32  F   UNL     1      -3.111   9.411  16.011  0.00  0.00    +0.000 F 
ATOM     33  C   UNL     1      -1.830  10.552  17.628  0.00  0.00    +0.000 A 
ENDBRANCH  26  27
ENDBRANCH   6  26
TORSDOF 9
ENDMDL
