MODEL 1
REMARK VINA RESULT:      -8.2      0.000      0.000
REMARK  Name = 
REMARK  6 active torsions:
REMARK  status: ('A' for Active; 'I' for Inactive)
REMARK    1  A    between atoms: O_1  and  C_2
REMARK    2  A    between atoms: C_2  and  C_3
REMARK    3  A    between atoms: C_4  and  C_5
REMARK    4  A    between atoms: C_15  and  N_16
REMARK    5  A    between atoms: N_16  and  C_17
REMARK    6  A    between atoms: C_17  and  C_18
REMARK                            x       y       z     vdW  Elec       q    Type
REMARK                         _______ _______ _______ _____ _____    ______ ____
ROOT
ATOM      1  C   UNL     1       5.640   4.644  17.791  0.00  0.00    +0.000 C 
ATOM      2  C   UNL     1       6.989   5.286  17.404  0.00  0.00    +0.000 C 
ATOM      3  C   UNL     1       6.963   5.964  16.039  0.00  0.00    +0.000 C 
ATOM      4  C   UNL     1       6.528   4.987  14.963  0.00  0.00    +0.000 C 
ATOM      5  C   UNL     1       5.172   4.379  15.278  0.00  0.00    +0.000 C 
ATOM      6  C   UNL     1       5.119   3.678  16.649  0.00  0.00    +0.000 C 
ENDROOT
BRANCH   1   7
ATOM      7  O   UNL     1       5.881   3.888  18.987  0.00  0.00    +0.000 OA
ATOM      8  H   UNL     1       6.584   3.248  18.783  0.00  0.00    +0.000 HD
ENDBRANCH   1   7
BRANCH   1   9
ATOM      9  C   UNL     1       4.647   5.699  18.098  0.00  0.00    +0.000 C 
ATOM     10  C   UNL     1       3.817   6.528  18.359  0.00  0.00    +0.000 C 
BRANCH  10  11
ATOM     11  C   UNL     1       2.805   7.494  18.647  0.00  0.00    +0.000 A 
ATOM     12  C   UNL     1       2.187   7.492  19.898  0.00  0.00    +0.000 A 
ATOM     13  C   UNL     1       1.220   8.451  20.202  0.00  0.00    +0.000 A 
ATOM     14  C   UNL     1       0.871   9.412  19.253  0.00  0.00    +0.000 A 
ATOM     15  C   UNL     1       1.483   9.411  17.999  0.00  0.00    +0.000 A 
ATOM     16  C   UNL     1       2.450   8.451  17.693  0.00  0.00    +0.000 A 
ENDBRANCH  10  11
ENDBRANCH   1   9
BRANCH   6  17
ATOM     17  N   UNL     1       3.744   3.160  16.890  0.00  0.00    +0.000 NA
ATOM     18  H   UNL     1       3.366   2.792  16.016  0.00  0.00    +0.000 HD
BRANCH  17  19
ATOM     19  C   UNL     1       3.666   2.121  17.924  0.00  0.00    +0.000 C 
BRANCH  19  20
ATOM     20  C   UNL     1       2.875   2.590  19.123  0.00  0.00    +0.000 A 
ATOM     21  C   UNL     1       1.679   3.289  18.877  0.00  0.00    +0.000 A 
ATOM     22  C   UNL     1       0.889   3.759  19.922  0.00  0.00    +0.000 A 
ATOM     23  C   UNL     1       1.279   3.541  21.236  0.00  0.00    +0.000 A 
ATOM     24  C   UNL     1       2.464   2.862  21.509  0.00  0.00    +0.000 A 
ATOM     25  C   UNL     1       3.268   2.392  20.462  0.00  0.00    +0.000 A 
ATOM     26 CL   UNL     1       4.736   1.594  20.899  0.00  0.00    +0.000 Cl
ENDBRANCH  19  20
ENDBRANCH  17  19
ENDBRANCH   6  17
TORSDOF 6
ENDMDL
MODEL 2
REMARK VINA RESULT:      -8.2      1.151      1.506
REMARK  Name = 
REMARK  6 active torsions:
REMARK  status: ('A' for Active; 'I' for Inactive)
REMARK    1  A    between atoms: O_1  and  C_2
REMARK    2  A    between atoms: C_2  and  C_3
REMARK    3  A    between atoms: C_4  and  C_5
REMARK    4  A    between atoms: C_15  and  N_16
REMARK    5  A    between atoms: N_16  and  C_17
REMARK    6  A    between atoms: C_17  and  C_18
REMARK                            x       y       z     vdW  Elec       q    Type
REMARK                         _______ _______ _______ _____ _____    ______ ____
ROOT
ATOM      1  C   UNL     1       5.616   4.604  17.914  0.00  0.00    +0.000 C 
ATOM      2  C   UNL     1       6.993   5.223  17.592  0.00  0.00    +0.000 C 
ATOM      3  C   UNL     1       7.039   5.918  16.236  0.00  0.00    +0.000 C 
ATOM      4  C   UNL     1       6.630   4.964  15.130  0.00  0.00    +0.000 C 
ATOM      5  C   UNL     1       5.250   4.380  15.379  0.00  0.00    +0.000 C 
ATOM      6  C   UNL     1       5.124   3.664  16.738  0.00  0.00    +0.000 C 
ENDROOT
BRANCH   1   7
ATOM      7  O   UNL     1       5.791   3.829  19.109  0.00  0.00    +0.000 OA
ATOM      8  H   UNL     1       5.893   2.902  18.835  0.00  0.00    +0.000 HD
ENDBRANCH   1   7
BRANCH   1   9
ATOM      9  C   UNL     1       4.632   5.676  18.192  0.00  0.00    +0.000 C 
ATOM     10  C   UNL     1       3.808   6.520  18.422  0.00  0.00    +0.000 C 
BRANCH  10  11
ATOM     11  C   UNL     1       2.805   7.507  18.666  0.00  0.00    +0.000 A 
ATOM     12  C   UNL     1       2.164   7.546  19.905  0.00  0.00    +0.000 A 
ATOM     13  C   UNL     1       1.206   8.526  20.167  0.00  0.00    +0.000 A 
ATOM     14  C   UNL     1       0.889   9.467  19.187  0.00  0.00    +0.000 A 
ATOM     15  C   UNL     1       1.523   9.425  17.945  0.00  0.00    +0.000 A 
ATOM     16  C   UNL     1       2.481   8.444  17.682  0.00  0.00    +0.000 A 
ENDBRANCH  10  11
ENDBRANCH   1   9
BRANCH   6  17
ATOM     17  N   UNL     1       3.730   3.171  16.913  0.00  0.00    +0.000 NA
ATOM     18  H   UNL     1       3.394   2.794  16.028  0.00  0.00    +0.000 HD
BRANCH  17  19
ATOM     19  C   UNL     1       3.580   2.154  17.961  0.00  0.00    +0.000 C 
BRANCH  19  20
ATOM     20  C   UNL     1       2.782   2.677  19.133  0.00  0.00    +0.000 A 
ATOM     21  C   UNL     1       3.122   2.201  20.412  0.00  0.00    +0.000 A 
ATOM     22  C   UNL     1       2.437   2.626  21.547  0.00  0.00    +0.000 A 
ATOM     23  C   UNL     1       1.398   3.538  21.426  0.00  0.00    +0.000 A 
ATOM     24  C   UNL     1       1.033   4.017  20.170  0.00  0.00    +0.000 A 
ATOM     25  C   UNL     1       1.712   3.588  19.023  0.00  0.00    +0.000 A 
ATOM     26 CL   UNL     1       1.164   4.210  17.508  0.00  0.00    +0.000 Cl
ENDBRANCH  19  20
ENDBRANCH  17  19
ENDBRANCH   6  17
TORSDOF 6
ENDMDL
MODEL 3
REMARK VINA RESULT:      -8.0      1.416      1.827
REMARK  Name = 
REMARK  6 active torsions:
REMARK  status: ('A' for Active; 'I' for Inactive)
REMARK    1  A    between atoms: O_1  and  C_2
REMARK    2  A    between atoms: C_2  and  C_3
REMARK    3  A    between atoms: C_4  and  C_5
REMARK    4  A    between atoms: C_15  and  N_16
REMARK    5  A    between atoms: N_16  and  C_17
REMARK    6  A    between atoms: C_17  and  C_18
REMARK                            x       y       z     vdW  Elec       q    Type
REMARK                         _______ _______ _______ _____ _____    ______ ____
ROOT
ATOM      1  C   UNL     1       6.145   5.698  17.348  0.00  0.00    +0.000 C 
ATOM      2  C   UNL     1       6.576   6.155  15.937  0.00  0.00    +0.000 C 
ATOM      3  C   UNL     1       5.656   5.649  14.833  0.00  0.00    +0.000 C 
ATOM      4  C   UNL     1       5.548   4.136  14.875  0.00  0.00    +0.000 C 
ATOM      5  C   UNL     1       5.066   3.650  16.231  0.00  0.00    +0.000 C 
ATOM      6  C   UNL     1       5.947   4.128  17.402  0.00  0.00    +0.000 C 
ENDROOT
BRANCH   1   7
ATOM      7  O   UNL     1       7.205   6.080  18.237  0.00  0.00    +0.000 OA
ATOM      8  H   UNL     1       7.357   5.331  18.838  0.00  0.00    +0.000 HD
ENDBRANCH   1   7
BRANCH   1   9
ATOM      9  C   UNL     1       4.913   6.410  17.757  0.00  0.00    +0.000 C 
ATOM     10  C   UNL     1       3.933   7.019  18.092  0.00  0.00    +0.000 C 
BRANCH  10  11
ATOM     11  C   UNL     1       2.787   7.755  18.523  0.00  0.00    +0.000 A 
ATOM     12  C   UNL     1       2.249   7.513  19.788  0.00  0.00    +0.000 A 
ATOM     13  C   UNL     1       1.150   8.249  20.232  0.00  0.00    +0.000 A 
ATOM     14  C   UNL     1       0.589   9.227  19.411  0.00  0.00    +0.000 A 
ATOM     15  C   UNL     1       1.121   9.464  18.143  0.00  0.00    +0.000 A 
ATOM     16  C   UNL     1       2.220   8.728  17.696  0.00  0.00    +0.000 A 
ENDBRANCH  10  11
ENDBRANCH   1   9
BRANCH   6  17
ATOM     17  N   UNL     1       5.371   3.645  18.687  0.00  0.00    +0.000 NA
ATOM     18  H   UNL     1       5.039   4.444  19.228  0.00  0.00    +0.000 HD
BRANCH  17  19
ATOM     19  C   UNL     1       4.276   2.680  18.529  0.00  0.00    +0.000 C 
BRANCH  19  20
ATOM     20  C   UNL     1       3.137   2.971  19.479  0.00  0.00    +0.000 A 
ATOM     21  C   UNL     1       3.242   2.466  20.788  0.00  0.00    +0.000 A 
ATOM     22  C   UNL     1       2.238   2.684  21.728  0.00  0.00    +0.000 A 
ATOM     23  C   UNL     1       1.109   3.411  21.379  0.00  0.00    +0.000 A 
ATOM     24  C   UNL     1       0.975   3.914  20.087  0.00  0.00    +0.000 A 
ATOM     25  C   UNL     1       1.977   3.692  19.133  0.00  0.00    +0.000 A 
ATOM     26 CL   UNL     1       1.705   4.323  17.549  0.00  0.00    +0.000 Cl
ENDBRANCH  19  20
ENDBRANCH  17  19
ENDBRANCH   6  17
TORSDOF 6
ENDMDL
MODEL 4
REMARK VINA RESULT:      -8.0      1.407      2.050
REMARK  Name = 
REMARK  6 active torsions:
REMARK  status: ('A' for Active; 'I' for Inactive)
REMARK    1  A    between atoms: O_1  and  C_2
REMARK    2  A    between atoms: C_2  and  C_3
REMARK    3  A    between atoms: C_4  and  C_5
REMARK    4  A    between atoms: C_15  and  N_16
REMARK    5  A    between atoms: N_16  and  C_17
REMARK    6  A    between atoms: C_17  and  C_18
REMARK                            x       y       z     vdW  Elec       q    Type
REMARK                         _______ _______ _______ _____ _____    ______ ____
ROOT
ATOM      1  C   UNL     1       6.261   5.546  17.352  0.00  0.00    +0.000 C 
ATOM      2  C   UNL     1       6.784   6.063  15.994  0.00  0.00    +0.000 C 
ATOM      3  C   UNL     1       5.902   5.662  14.817  0.00  0.00    +0.000 C 
ATOM      4  C   UNL     1       5.730   4.155  14.765  0.00  0.00    +0.000 C 
ATOM      5  C   UNL     1       5.157   3.615  16.064  0.00  0.00    +0.000 C 
ATOM      6  C   UNL     1       5.994   3.986  17.303  0.00  0.00    +0.000 C 
ENDROOT
BRANCH   1   7
ATOM      7  O   UNL     1       7.287   5.829  18.313  0.00  0.00    +0.000 OA
ATOM      8  H   UNL     1       6.855   6.247  19.077  0.00  0.00    +0.000 HD
ENDBRANCH   1   7
BRANCH   1   9
ATOM      9  C   UNL     1       5.040   6.288  17.740  0.00  0.00    +0.000 C 
ATOM     10  C   UNL     1       4.070   6.916  18.071  0.00  0.00    +0.000 C 
BRANCH  10  11
ATOM     11  C   UNL     1       2.930   7.660  18.503  0.00  0.00    +0.000 A 
ATOM     12  C   UNL     1       2.374   8.621  17.657  0.00  0.00    +0.000 A 
ATOM     13  C   UNL     1       1.241   9.332  18.055  0.00  0.00    +0.000 A 
ATOM     14  C   UNL     1       0.665   9.082  19.301  0.00  0.00    +0.000 A 
ATOM     15  C   UNL     1       1.225   8.128  20.152  0.00  0.00    +0.000 A 
ATOM     16  C   UNL     1       2.360   7.417  19.755  0.00  0.00    +0.000 A 
ENDBRANCH  10  11
ENDBRANCH   1   9
BRANCH   6  17
ATOM     17  N   UNL     1       5.331   3.457  18.527  0.00  0.00    +0.000 NA
ATOM     18  H   UNL     1       5.145   4.228  19.168  0.00  0.00    +0.000 HD
BRANCH  17  19
ATOM     19  C   UNL     1       4.082   2.732  18.267  0.00  0.00    +0.000 C 
BRANCH  19  20
ATOM     20  C   UNL     1       3.043   3.017  19.328  0.00  0.00    +0.000 A 
ATOM     21  C   UNL     1       3.268   2.488  20.612  0.00  0.00    +0.000 A 
ATOM     22  C   UNL     1       2.363   2.698  21.648  0.00  0.00    +0.000 A 
ATOM     23  C   UNL     1       1.213   3.441  21.422  0.00  0.00    +0.000 A 
ATOM     24  C   UNL     1       0.960   3.967  20.157  0.00  0.00    +0.000 A 
ATOM     25  C   UNL     1       1.863   3.753  19.108  0.00  0.00    +0.000 A 
ATOM     26 CL   UNL     1       1.445   4.414  17.567  0.00  0.00    +0.000 Cl
ENDBRANCH  19  20
ENDBRANCH  17  19
ENDBRANCH   6  17
TORSDOF 6
ENDMDL
MODEL 5
REMARK VINA RESULT:      -7.9      2.561      5.230
REMARK  Name = 
REMARK  6 active torsions:
REMARK  status: ('A' for Active; 'I' for Inactive)
REMARK    1  A    between atoms: O_1  and  C_2
REMARK    2  A    between atoms: C_2  and  C_3
REMARK    3  A    between atoms: C_4  and  C_5
REMARK    4  A    between atoms: C_15  and  N_16
REMARK    5  A    between atoms: N_16  and  C_17
REMARK    6  A    between atoms: C_17  and  C_18
REMARK                            x       y       z     vdW  Elec       q    Type
REMARK                         _______ _______ _______ _____ _____    ______ ____
ROOT
ATOM      1  C   UNL     1       5.432   6.246  17.533  0.00  0.00    +0.000 C 
ATOM      2  C   UNL     1       6.080   7.647  17.524  0.00  0.00    +0.000 C 
ATOM      3  C   UNL     1       7.604   7.605  17.528  0.00  0.00    +0.000 C 
ATOM      4  C   UNL     1       8.115   6.807  18.713  0.00  0.00    +0.000 C 
ATOM      5  C   UNL     1       7.547   5.399  18.723  0.00  0.00    +0.000 C 
ATOM      6  C   UNL     1       6.006   5.360  18.713  0.00  0.00    +0.000 C 
ENDROOT
BRANCH   1   7
ATOM      7  O   UNL     1       4.025   6.454  17.728  0.00  0.00    +0.000 OA
ATOM      8  H   UNL     1       3.582   5.613  17.527  0.00  0.00    +0.000 HD
ENDBRANCH   1   7
BRANCH   1   9
ATOM      9  C   UNL     1       5.629   5.588  16.221  0.00  0.00    +0.000 C 
ATOM     10  C   UNL     1       5.825   5.062  15.158  0.00  0.00    +0.000 C 
BRANCH  10  11
ATOM     11  C   UNL     1       6.075   4.472  13.883  0.00  0.00    +0.000 A 
ATOM     12  C   UNL     1       7.251   4.783  13.198  0.00  0.00    +0.000 A 
ATOM     13  C   UNL     1       7.522   4.187  11.966  0.00  0.00    +0.000 A 
ATOM     14  C   UNL     1       6.615   3.280  11.418  0.00  0.00    +0.000 A 
ATOM     15  C   UNL     1       5.435   2.973  12.097  0.00  0.00    +0.000 A 
ATOM     16  C   UNL     1       5.163   3.570  13.330  0.00  0.00    +0.000 A 
ENDBRANCH  10  11
ENDBRANCH   1   9
BRANCH   6  17
ATOM     17  N   UNL     1       5.545   3.945  18.674  0.00  0.00    +0.000 NA
ATOM     18  H   UNL     1       6.336   3.340  18.453  0.00  0.00    +0.000 HD
BRANCH  17  19
ATOM     19  C   UNL     1       4.916   3.484  19.917  0.00  0.00    +0.000 C 
BRANCH  19  20
ATOM     20  C   UNL     1       3.418   3.345  19.764  0.00  0.00    +0.000 A 
ATOM     21  C   UNL     1       2.610   4.280  20.437  0.00  0.00    +0.000 A 
ATOM     22  C   UNL     1       1.222   4.225  20.354  0.00  0.00    +0.000 A 
ATOM     23  C   UNL     1       0.613   3.234  19.597  0.00  0.00    +0.000 A 
ATOM     24  C   UNL     1       1.388   2.290  18.929  0.00  0.00    +0.000 A 
ATOM     25  C   UNL     1       2.786   2.334  19.014  0.00  0.00    +0.000 A 
ATOM     26 CL   UNL     1       3.661   1.100  18.182  0.00  0.00    +0.000 Cl
ENDBRANCH  19  20
ENDBRANCH  17  19
ENDBRANCH   6  17
TORSDOF 6
ENDMDL
MODEL 6
REMARK VINA RESULT:      -7.8      2.722      5.250
REMARK  Name = 
REMARK  6 active torsions:
REMARK  status: ('A' for Active; 'I' for Inactive)
REMARK    1  A    between atoms: O_1  and  C_2
REMARK    2  A    between atoms: C_2  and  C_3
REMARK    3  A    between atoms: C_4  and  C_5
REMARK    4  A    between atoms: C_15  and  N_16
REMARK    5  A    between atoms: N_16  and  C_17
REMARK    6  A    between atoms: C_17  and  C_18
REMARK                            x       y       z     vdW  Elec       q    Type
REMARK                         _______ _______ _______ _____ _____    ______ ____
ROOT
ATOM      1  C   UNL     1       5.392   6.077  17.580  0.00  0.00    +0.000 C 
ATOM      2  C   UNL     1       5.941   7.519  17.535  0.00  0.00    +0.000 C 
ATOM      3  C   UNL     1       7.463   7.583  17.470  0.00  0.00    +0.000 C 
ATOM      4  C   UNL     1       8.081   6.831  18.634  0.00  0.00    +0.000 C 
ATOM      5  C   UNL     1       7.612   5.386  18.676  0.00  0.00    +0.000 C 
ATOM      6  C   UNL     1       6.079   5.241  18.736  0.00  0.00    +0.000 C 
ENDROOT
BRANCH   1   7
ATOM      7  O   UNL     1       3.985   6.189  17.839  0.00  0.00    +0.000 OA
ATOM      8  H   UNL     1       3.538   6.218  16.976  0.00  0.00    +0.000 HD
ENDBRANCH   1   7
BRANCH   1   9
ATOM      9  C   UNL     1       5.575   5.425  16.264  0.00  0.00    +0.000 C 
ATOM     10  C   UNL     1       5.753   4.916  15.189  0.00  0.00    +0.000 C 
BRANCH  10  11
ATOM     11  C   UNL     1       5.966   4.348  13.896  0.00  0.00    +0.000 A 
ATOM     12  C   UNL     1       7.178   4.564  13.240  0.00  0.00    +0.000 A 
ATOM     13  C   UNL     1       7.410   3.988  11.991  0.00  0.00    +0.000 A 
ATOM     14  C   UNL     1       6.428   3.195  11.398  0.00  0.00    +0.000 A 
ATOM     15  C   UNL     1       5.211   2.985  12.049  0.00  0.00    +0.000 A 
ATOM     16  C   UNL     1       4.978   3.562  13.298  0.00  0.00    +0.000 A 
ENDBRANCH  10  11
ENDBRANCH   1   9
BRANCH   6  17
ATOM     17  N   UNL     1       5.715   3.797  18.724  0.00  0.00    +0.000 NA
ATOM     18  H   UNL     1       6.567   3.237  18.703  0.00  0.00    +0.000 HD
BRANCH  17  19
ATOM     19  C   UNL     1       4.888   3.377  19.861  0.00  0.00    +0.000 C 
BRANCH  19  20
ATOM     20  C   UNL     1       3.479   3.043  19.429  0.00  0.00    +0.000 A 
ATOM     21  C   UNL     1       3.297   2.589  18.110  0.00  0.00    +0.000 A 
ATOM     22  C   UNL     1       2.033   2.262  17.627  0.00  0.00    +0.000 A 
ATOM     23  C   UNL     1       0.924   2.382  18.453  0.00  0.00    +0.000 A 
ATOM     24  C   UNL     1       1.074   2.839  19.760  0.00  0.00    +0.000 A 
ATOM     25  C   UNL     1       2.342   3.178  20.251  0.00  0.00    +0.000 A 
ATOM     26 CL   UNL     1       2.423   3.770  21.871  0.00  0.00    +0.000 Cl
ENDBRANCH  19  20
ENDBRANCH  17  19
ENDBRANCH   6  17
TORSDOF 6
ENDMDL
MODEL 7
REMARK VINA RESULT:      -7.8      3.269      4.450
REMARK  Name = 
REMARK  6 active torsions:
REMARK  status: ('A' for Active; 'I' for Inactive)
REMARK    1  A    between atoms: O_1  and  C_2
REMARK    2  A    between atoms: C_2  and  C_3
REMARK    3  A    between atoms: C_4  and  C_5
REMARK    4  A    between atoms: C_15  and  N_16
REMARK    5  A    between atoms: N_16  and  C_17
REMARK    6  A    between atoms: C_17  and  C_18
REMARK                            x       y       z     vdW  Elec       q    Type
REMARK                         _______ _______ _______ _____ _____    ______ ____
ROOT
ATOM      1  C   UNL     1       6.738   5.347  17.750  0.00  0.00    +0.000 C 
ATOM      2  C   UNL     1       7.538   4.529  16.713  0.00  0.00    +0.000 C 
ATOM      3  C   UNL     1       7.319   4.996  15.278  0.00  0.00    +0.000 C 
ATOM      4  C   UNL     1       5.843   4.974  14.927  0.00  0.00    +0.000 C 
ATOM      5  C   UNL     1       5.028   5.820  15.890  0.00  0.00    +0.000 C 
ATOM      6  C   UNL     1       5.204   5.409  17.365  0.00  0.00    +0.000 C 
ENDROOT
BRANCH   1   7
ATOM      7  O   UNL     1       6.893   4.668  19.004  0.00  0.00    +0.000 OA
ATOM      8  H   UNL     1       6.724   5.321  19.705  0.00  0.00    +0.000 HD
ENDBRANCH   1   7
BRANCH   1   9
ATOM      9  C   UNL     1       7.316   6.704  17.878  0.00  0.00    +0.000 C 
ATOM     10  C   UNL     1       7.777   7.805  18.019  0.00  0.00    +0.000 C 
BRANCH  10  11
ATOM     11  C   UNL     1       8.291   9.125  18.204  0.00  0.00    +0.000 A 
ATOM     12  C   UNL     1       7.851  10.158  17.376  0.00  0.00    +0.000 A 
ATOM     13  C   UNL     1       8.321  11.457  17.567  0.00  0.00    +0.000 A 
ATOM     14  C   UNL     1       9.234  11.723  18.588  0.00  0.00    +0.000 A 
ATOM     15  C   UNL     1       9.682  10.690  19.412  0.00  0.00    +0.000 A 
ATOM     16  C   UNL     1       9.213   9.389  19.220  0.00  0.00    +0.000 A 
ENDBRANCH  10  11
ENDBRANCH   1   9
BRANCH   6  17
ATOM     17  N   UNL     1       4.409   6.322  18.233  0.00  0.00    +0.000 NA
ATOM     18  H   UNL     1       4.784   7.268  18.157  0.00  0.00    +0.000 HD
BRANCH  17  19
ATOM     19  C   UNL     1       2.974   6.345  17.926  0.00  0.00    +0.000 C 
BRANCH  19  20
ATOM     20  C   UNL     1       2.249   5.190  18.577  0.00  0.00    +0.000 A 
ATOM     21  C   UNL     1       2.107   4.008  17.826  0.00  0.00    +0.000 A 
ATOM     22  C   UNL     1       1.450   2.897  18.346  0.00  0.00    +0.000 A 
ATOM     23  C   UNL     1       0.921   2.944  19.628  0.00  0.00    +0.000 A 
ATOM     24  C   UNL     1       1.037   4.104  20.389  0.00  0.00    +0.000 A 
ATOM     25  C   UNL     1       1.690   5.229  19.870  0.00  0.00    +0.000 A 
ATOM     26 CL   UNL     1       1.752   6.633  20.874  0.00  0.00    +0.000 Cl
ENDBRANCH  19  20
ENDBRANCH  17  19
ENDBRANCH   6  17
TORSDOF 6
ENDMDL
MODEL 8
REMARK VINA RESULT:      -7.8      3.166      4.265
REMARK  Name = 
REMARK  6 active torsions:
REMARK  status: ('A' for Active; 'I' for Inactive)
REMARK    1  A    between atoms: O_1  and  C_2
REMARK    2  A    between atoms: C_2  and  C_3
REMARK    3  A    between atoms: C_4  and  C_5
REMARK    4  A    between atoms: C_15  and  N_16
REMARK    5  A    between atoms: N_16  and  C_17
REMARK    6  A    between atoms: C_17  and  C_18
REMARK                            x       y       z     vdW  Elec       q    Type
REMARK                         _______ _______ _______ _____ _____    ______ ____
ROOT
ATOM      1  C   UNL     1       7.015   5.204  17.557  0.00  0.00    +0.000 C 
ATOM      2  C   UNL     1       7.580   4.686  16.217  0.00  0.00    +0.000 C 
ATOM      3  C   UNL     1       6.904   5.306  14.999  0.00  0.00    +0.000 C 
ATOM      4  C   UNL     1       5.404   5.085  15.048  0.00  0.00    +0.000 C 
ATOM      5  C   UNL     1       4.800   5.638  16.328  0.00  0.00    +0.000 C 
ATOM      6  C   UNL     1       5.439   5.060  17.606  0.00  0.00    +0.000 C 
ENDROOT
BRANCH   1   7
ATOM      7  O   UNL     1       7.604   4.392  18.583  0.00  0.00    +0.000 OA
ATOM      8  H   UNL     1       8.565   4.395  18.433  0.00  0.00    +0.000 HD
ENDBRANCH   1   7
BRANCH   1   9
ATOM      9  C   UNL     1       7.434   6.608  17.775  0.00  0.00    +0.000 C 
ATOM     10  C   UNL     1       7.809   7.735  17.952  0.00  0.00    +0.000 C 
BRANCH  10  11
ATOM     11  C   UNL     1       8.274   9.063  18.196  0.00  0.00    +0.000 A 
ATOM     12  C   UNL     1       9.157   9.302  19.250  0.00  0.00    +0.000 A 
ATOM     13  C   UNL     1       9.644  10.589  19.477  0.00  0.00    +0.000 A 
ATOM     14  C   UNL     1       9.247  11.639  18.650  0.00  0.00    +0.000 A 
ATOM     15  C   UNL     1       8.358  11.404  17.600  0.00  0.00    +0.000 A 
ATOM     16  C   UNL     1       7.869  10.117  17.372  0.00  0.00    +0.000 A 
ENDBRANCH  10  11
ENDBRANCH   1   9
BRANCH   6  17
ATOM     17  N   UNL     1       4.820   5.694  18.802  0.00  0.00    +0.000 NA
ATOM     18  H   UNL     1       5.212   6.628  18.928  0.00  0.00    +0.000 HD
BRANCH  17  19
ATOM     19  C   UNL     1       3.356   5.789  18.741  0.00  0.00    +0.000 C 
BRANCH  19  20
ATOM     20  C   UNL     1       2.694   4.626  19.443  0.00  0.00    +0.000 A 
ATOM     21  C   UNL     1       2.558   4.706  20.841  0.00  0.00    +0.000 A 
ATOM     22  C   UNL     1       1.964   3.678  21.568  0.00  0.00    +0.000 A 
ATOM     23  C   UNL     1       1.494   2.549  20.913  0.00  0.00    +0.000 A 
ATOM     24  C   UNL     1       1.626   2.439  19.531  0.00  0.00    +0.000 A 
ATOM     25  C   UNL     1       2.230   3.465  18.793  0.00  0.00    +0.000 A 
ATOM     26 CL   UNL     1       2.380   3.222  17.090  0.00  0.00    +0.000 Cl
ENDBRANCH  19  20
ENDBRANCH  17  19
ENDBRANCH   6  17
TORSDOF 6
ENDMDL
MODEL 9
REMARK VINA RESULT:      -7.6      2.708      5.242
REMARK  Name = 
REMARK  6 active torsions:
REMARK  status: ('A' for Active; 'I' for Inactive)
REMARK    1  A    between atoms: O_1  and  C_2
REMARK    2  A    between atoms: C_2  and  C_3
REMARK    3  A    between atoms: C_4  and  C_5
REMARK    4  A    between atoms: C_15  and  N_16
REMARK    5  A    between atoms: N_16  and  C_17
REMARK    6  A    between atoms: C_17  and  C_18
REMARK                            x       y       z     vdW  Elec       q    Type
REMARK                         _______ _______ _______ _____ _____    ______ ____
ROOT
ATOM      1  C   UNL     1       5.203   5.870  17.462  0.00  0.00    +0.000 C 
ATOM      2  C   UNL     1       5.820   7.283  17.537  0.00  0.00    +0.000 C 
ATOM      3  C   UNL     1       7.344   7.275  17.541  0.00  0.00    +0.000 C 
ATOM      4  C   UNL     1       7.873   6.419  18.677  0.00  0.00    +0.000 C 
ATOM      5  C   UNL     1       7.336   5.000  18.603  0.00  0.00    +0.000 C 
ATOM      6  C   UNL     1       5.796   4.928  18.588  0.00  0.00    +0.000 C 
ENDROOT
BRANCH   1   7
ATOM      7  O   UNL     1       3.792   6.035  17.667  0.00  0.00    +0.000 OA
ATOM      8  H   UNL     1       3.681   6.559  18.479  0.00  0.00    +0.000 HD
ENDBRANCH   1   7
BRANCH   1   9
ATOM      9  C   UNL     1       5.415   5.295  16.114  0.00  0.00    +0.000 C 
ATOM     10  C   UNL     1       5.586   4.795  15.035  0.00  0.00    +0.000 C 
BRANCH  10  11
ATOM     11  C   UNL     1       5.820   4.180  13.767  0.00  0.00    +0.000 A 
ATOM     12  C   UNL     1       4.775   3.520  13.118  0.00  0.00    +0.000 A 
ATOM     13  C   UNL     1       4.983   2.943  11.865  0.00  0.00    +0.000 A 
ATOM     14  C   UNL     1       6.237   3.026  11.261  0.00  0.00    +0.000 A 
ATOM     15  C   UNL     1       7.285   3.678  11.912  0.00  0.00    +0.000 A 
ATOM     16  C   UNL     1       7.079   4.255  13.167  0.00  0.00    +0.000 A 
ENDBRANCH  10  11
ENDBRANCH   1   9
BRANCH   6  17
ATOM     17  N   UNL     1       5.366   3.508  18.464  0.00  0.00    +0.000 NA
ATOM     18  H   UNL     1       6.156   2.944  18.151  0.00  0.00    +0.000 HD
BRANCH  17  19
ATOM     19  C   UNL     1       4.824   2.935  19.702  0.00  0.00    +0.000 C 
BRANCH  19  20
ATOM     20  C   UNL     1       3.317   3.042  19.750  0.00  0.00    +0.000 A 
ATOM     21  C   UNL     1       2.723   3.252  21.008  0.00  0.00    +0.000 A 
ATOM     22  C   UNL     1       1.342   3.359  21.145  0.00  0.00    +0.000 A 
ATOM     23  C   UNL     1       0.526   3.259  20.027  0.00  0.00    +0.000 A 
ATOM     24  C   UNL     1       1.087   3.041  18.771  0.00  0.00    +0.000 A 
ATOM     25  C   UNL     1       2.475   2.924  18.627  0.00  0.00    +0.000 A 
ATOM     26 CL   UNL     1       3.075   2.619  17.036  0.00  0.00    +0.000 Cl
ENDBRANCH  19  20
ENDBRANCH  17  19
ENDBRANCH   6  17
TORSDOF 6
ENDMDL
