MODEL 1
REMARK VINA RESULT:      -7.4      0.000      0.000
REMARK  Name = 
REMARK  2 active torsions:
REMARK  status: ('A' for Active; 'I' for Inactive)
REMARK    1  A    between atoms: C_2  and  C_3
REMARK    2  A    between atoms: C_4  and  C_5
REMARK                            x       y       z     vdW  Elec       q    Type
REMARK                         _______ _______ _______ _____ _____    ______ ____
ROOT
ATOM      1  C   UNL     1       5.346   4.809  18.249  0.00  0.00    +0.000 A 
ATOM      2  C   UNL     1       4.147   4.096  18.222  0.00  0.00    +0.000 A 
ATOM      3  N   UNL     1       3.979   3.668  16.920  0.00  0.00    +0.000 N 
ATOM      4  C   UNL     1       5.030   4.060  16.124  0.00  0.00    +0.000 A 
ATOM      5  C   UNL     1       5.282   3.815  14.768  0.00  0.00    +0.000 A 
ATOM      6  C   UNL     1       6.455   4.345  14.221  0.00  0.00    +0.000 A 
ATOM      7  C   UNL     1       7.334   5.095  14.995  0.00  0.00    +0.000 A 
ATOM      8  C   UNL     1       7.063   5.332  16.347  0.00  0.00    +0.000 A 
ATOM      9  C   UNL     1       5.892   4.800  16.927  0.00  0.00    +0.000 A 
ATOM     10  H   UNL     1       3.183   3.138  16.588  0.00  0.00    +0.000 HD
ENDROOT
BRANCH   2  11
ATOM     11  C   UNL     1       3.172   3.805  19.283  0.00  0.00    +0.000 A 
ATOM     12  C   UNL     1       3.488   2.913  20.318  0.00  0.00    +0.000 A 
ATOM     13  C   UNL     1       2.535   2.547  21.271  0.00  0.00    +0.000 A 
ATOM     14  C   UNL     1       1.260   3.102  21.228  0.00  0.00    +0.000 A 
ATOM     15  C   UNL     1       0.944   4.030  20.238  0.00  0.00    +0.000 A 
ATOM     16  C   UNL     1       1.891   4.377  19.268  0.00  0.00    +0.000 A 
ENDBRANCH   2  11
BRANCH   1  18
ATOM     17  O   UNL     1       7.101   5.218  19.788  0.00  0.00    +0.000 OA
ATOM     18  C   UNL     1       5.949   5.420  19.421  0.00  0.00    +0.000 C 
ENDBRANCH   1  18
TORSDOF 2
ENDMDL
MODEL 2
REMARK VINA RESULT:      -7.4      0.142      1.175
REMARK  Name = 
REMARK  2 active torsions:
REMARK  status: ('A' for Active; 'I' for Inactive)
REMARK    1  A    between atoms: C_2  and  C_3
REMARK    2  A    between atoms: C_4  and  C_5
REMARK                            x       y       z     vdW  Elec       q    Type
REMARK                         _______ _______ _______ _____ _____    ______ ____
ROOT
ATOM      1  C   UNL     1       5.348   4.829  18.155  0.00  0.00    +0.000 A 
ATOM      2  C   UNL     1       4.178   4.069  18.143  0.00  0.00    +0.000 A 
ATOM      3  N   UNL     1       4.022   3.619  16.847  0.00  0.00    +0.000 N 
ATOM      4  C   UNL     1       5.054   4.042  16.042  0.00  0.00    +0.000 A 
ATOM      5  C   UNL     1       5.309   3.790  14.687  0.00  0.00    +0.000 A 
ATOM      6  C   UNL     1       6.459   4.359  14.129  0.00  0.00    +0.000 A 
ATOM      7  C   UNL     1       7.310   5.153  14.890  0.00  0.00    +0.000 A 
ATOM      8  C   UNL     1       7.035   5.395  16.239  0.00  0.00    +0.000 A 
ATOM      9  C   UNL     1       5.889   4.825  16.831  0.00  0.00    +0.000 A 
ATOM     10  H   UNL     1       3.246   3.054  16.525  0.00  0.00    +0.000 HD
ENDROOT
BRANCH   2  11
ATOM     11  C   UNL     1       3.219   3.754  19.211  0.00  0.00    +0.000 A 
ATOM     12  C   UNL     1       1.979   4.407  19.272  0.00  0.00    +0.000 A 
ATOM     13  C   UNL     1       1.105   4.195  20.341  0.00  0.00    +0.000 A 
ATOM     14  C   UNL     1       1.439   3.292  21.345  0.00  0.00    +0.000 A 
ATOM     15  C   UNL     1       2.644   2.596  21.273  0.00  0.00    +0.000 A 
ATOM     16  C   UNL     1       3.531   2.827  20.216  0.00  0.00    +0.000 A 
ENDBRANCH   2  11
BRANCH   1  18
ATOM     17  O   UNL     1       6.965   5.110  19.865  0.00  0.00    +0.000 OA
ATOM     18  C   UNL     1       5.931   5.477  19.318  0.00  0.00    +0.000 C 
ENDBRANCH   1  18
TORSDOF 2
ENDMDL
MODEL 3
REMARK VINA RESULT:      -7.2      2.179      5.659
REMARK  Name = 
REMARK  2 active torsions:
REMARK  status: ('A' for Active; 'I' for Inactive)
REMARK    1  A    between atoms: C_2  and  C_3
REMARK    2  A    between atoms: C_4  and  C_5
REMARK                            x       y       z     vdW  Elec       q    Type
REMARK                         _______ _______ _______ _____ _____    ______ ____
ROOT
ATOM      1  C   UNL     1       4.075   4.065  17.786  0.00  0.00    +0.000 A 
ATOM      2  C   UNL     1       4.637   5.081  18.561  0.00  0.00    +0.000 A 
ATOM      3  N   UNL     1       3.777   5.278  19.623  0.00  0.00    +0.000 N 
ATOM      4  C   UNL     1       2.706   4.417  19.569  0.00  0.00    +0.000 A 
ATOM      5  C   UNL     1       1.630   4.251  20.450  0.00  0.00    +0.000 A 
ATOM      6  C   UNL     1       0.678   3.276  20.133  0.00  0.00    +0.000 A 
ATOM      7  C   UNL     1       0.793   2.507  18.979  0.00  0.00    +0.000 A 
ATOM      8  C   UNL     1       1.873   2.691  18.110  0.00  0.00    +0.000 A 
ATOM      9  C   UNL     1       2.854   3.660  18.412  0.00  0.00    +0.000 A 
ATOM     10  H   UNL     1       3.911   5.971  20.349  0.00  0.00    +0.000 HD
ENDROOT
BRANCH   2  11
ATOM     11  C   UNL     1       5.867   5.864  18.381  0.00  0.00    +0.000 A 
ATOM     12  C   UNL     1       7.002   5.598  19.162  0.00  0.00    +0.000 A 
ATOM     13  C   UNL     1       8.140   6.404  19.077  0.00  0.00    +0.000 A 
ATOM     14  C   UNL     1       8.176   7.464  18.176  0.00  0.00    +0.000 A 
ATOM     15  C   UNL     1       7.077   7.710  17.355  0.00  0.00    +0.000 A 
ATOM     16  C   UNL     1       5.928   6.919  17.459  0.00  0.00    +0.000 A 
ENDBRANCH   2  11
BRANCH   1  18
ATOM     17  O   UNL     1       4.926   4.143  15.575  0.00  0.00    +0.000 OA
ATOM     18  C   UNL     1       4.650   3.496  16.579  0.00  0.00    +0.000 C 
ENDBRANCH   1  18
TORSDOF 2
ENDMDL
MODEL 4
REMARK VINA RESULT:      -7.1      1.705      2.092
REMARK  Name = 
REMARK  2 active torsions:
REMARK  status: ('A' for Active; 'I' for Inactive)
REMARK    1  A    between atoms: C_2  and  C_3
REMARK    2  A    between atoms: C_4  and  C_5
REMARK                            x       y       z     vdW  Elec       q    Type
REMARK                         _______ _______ _______ _____ _____    ______ ____
ROOT
ATOM      1  C   UNL     1       3.899   5.317  17.764  0.00  0.00    +0.000 A 
ATOM      2  C   UNL     1       3.681   4.018  18.226  0.00  0.00    +0.000 A 
ATOM      3  N   UNL     1       4.408   3.186  17.399  0.00  0.00    +0.000 N 
ATOM      4  C   UNL     1       5.095   3.901  16.446  0.00  0.00    +0.000 A 
ATOM      5  C   UNL     1       5.971   3.467  15.442  0.00  0.00    +0.000 A 
ATOM      6  C   UNL     1       6.535   4.439  14.610  0.00  0.00    +0.000 A 
ATOM      7  C   UNL     1       6.228   5.787  14.769  0.00  0.00    +0.000 A 
ATOM      8  C   UNL     1       5.349   6.200  15.775  0.00  0.00    +0.000 A 
ATOM      9  C   UNL     1       4.775   5.241  16.636  0.00  0.00    +0.000 A 
ATOM     10  H   UNL     1       4.431   2.177  17.477  0.00  0.00    +0.000 HD
ENDROOT
BRANCH   2  11
ATOM     11  C   UNL     1       2.860   3.513  19.336  0.00  0.00    +0.000 A 
ATOM     12  C   UNL     1       1.463   3.632  19.302  0.00  0.00    +0.000 A 
ATOM     13  C   UNL     1       0.681   3.254  20.395  0.00  0.00    +0.000 A 
ATOM     14  C   UNL     1       1.282   2.709  21.525  0.00  0.00    +0.000 A 
ATOM     15  C   UNL     1       2.664   2.535  21.556  0.00  0.00    +0.000 A 
ATOM     16  C   UNL     1       3.450   2.937  20.471  0.00  0.00    +0.000 A 
ENDBRANCH   2  11
BRANCH   1  18
ATOM     17  O   UNL     1       2.310   7.060  18.000  0.00  0.00    +0.000 OA
ATOM     18  C   UNL     1       3.360   6.532  18.351  0.00  0.00    +0.000 C 
ENDBRANCH   1  18
TORSDOF 2
ENDMDL
MODEL 5
REMARK VINA RESULT:      -7.1      2.186      5.749
REMARK  Name = 
REMARK  2 active torsions:
REMARK  status: ('A' for Active; 'I' for Inactive)
REMARK    1  A    between atoms: C_2  and  C_3
REMARK    2  A    between atoms: C_4  and  C_5
REMARK                            x       y       z     vdW  Elec       q    Type
REMARK                         _______ _______ _______ _____ _____    ______ ____
ROOT
ATOM      1  C   UNL     1       4.047   4.041  17.806  0.00  0.00    +0.000 A 
ATOM      2  C   UNL     1       4.559   5.061  18.609  0.00  0.00    +0.000 A 
ATOM      3  N   UNL     1       3.669   5.215  19.653  0.00  0.00    +0.000 N 
ATOM      4  C   UNL     1       2.627   4.323  19.559  0.00  0.00    +0.000 A 
ATOM      5  C   UNL     1       1.535   4.110  20.411  0.00  0.00    +0.000 A 
ATOM      6  C   UNL     1       0.621   3.113  20.056  0.00  0.00    +0.000 A 
ATOM      7  C   UNL     1       0.787   2.367  18.894  0.00  0.00    +0.000 A 
ATOM      8  C   UNL     1       1.882   2.597  18.054  0.00  0.00    +0.000 A 
ATOM      9  C   UNL     1       2.825   3.590  18.395  0.00  0.00    +0.000 A 
ATOM     10  H   UNL     1       3.765   5.899  20.393  0.00  0.00    +0.000 HD
ENDROOT
BRANCH   2  11
ATOM     11  C   UNL     1       5.769   5.884  18.472  0.00  0.00    +0.000 A 
ATOM     12  C   UNL     1       5.814   6.937  17.546  0.00  0.00    +0.000 A 
ATOM     13  C   UNL     1       6.992   7.656  17.330  0.00  0.00    +0.000 A 
ATOM     14  C   UNL     1       8.133   7.362  18.070  0.00  0.00    +0.000 A 
ATOM     15  C   UNL     1       8.091   6.354  19.032  0.00  0.00    +0.000 A 
ATOM     16  C   UNL     1       6.919   5.616  19.230  0.00  0.00    +0.000 A 
ENDBRANCH   2  11
BRANCH   1  18
ATOM     17  O   UNL     1       4.922   4.176  15.607  0.00  0.00    +0.000 OA
ATOM     18  C   UNL     1       4.668   3.509  16.604  0.00  0.00    +0.000 C 
ENDBRANCH   1  18
TORSDOF 2
ENDMDL
MODEL 6
REMARK VINA RESULT:      -7.0      3.396      4.274
REMARK  Name = 
REMARK  2 active torsions:
REMARK  status: ('A' for Active; 'I' for Inactive)
REMARK    1  A    between atoms: C_2  and  C_3
REMARK    2  A    between atoms: C_4  and  C_5
REMARK                            x       y       z     vdW  Elec       q    Type
REMARK                         _______ _______ _______ _____ _____    ______ ____
ROOT
ATOM      1  C   UNL     1       3.088   5.373  17.740  0.00  0.00    +0.000 A 
ATOM      2  C   UNL     1       3.194   6.740  17.995  0.00  0.00    +0.000 A 
ATOM      3  N   UNL     1       4.396   7.144  17.449  0.00  0.00    +0.000 N 
ATOM      4  C   UNL     1       5.048   6.097  16.841  0.00  0.00    +0.000 A 
ATOM      5  C   UNL     1       6.261   6.067  16.142  0.00  0.00    +0.000 A 
ATOM      6  C   UNL     1       6.678   4.838  15.619  0.00  0.00    +0.000 A 
ATOM      7  C   UNL     1       5.917   3.687  15.797  0.00  0.00    +0.000 A 
ATOM      8  C   UNL     1       4.710   3.737  16.502  0.00  0.00    +0.000 A 
ATOM      9  C   UNL     1       4.261   4.966  17.029  0.00  0.00    +0.000 A 
ATOM     10  H   UNL     1       4.758   8.088  17.494  0.00  0.00    +0.000 HD
ENDROOT
BRANCH   2  11
ATOM     11  C   UNL     1       2.292   7.665  18.698  0.00  0.00    +0.000 A 
ATOM     12  C   UNL     1       1.662   8.710  18.007  0.00  0.00    +0.000 A 
ATOM     13  C   UNL     1       0.890   9.657  18.682  0.00  0.00    +0.000 A 
ATOM     14  C   UNL     1       0.700   9.549  20.056  0.00  0.00    +0.000 A 
ATOM     15  C   UNL     1       1.276   8.487  20.751  0.00  0.00    +0.000 A 
ATOM     16  C   UNL     1       2.071   7.552  20.078  0.00  0.00    +0.000 A 
ENDBRANCH   2  11
BRANCH   1  18
ATOM     17  O   UNL     1       1.112   4.136  17.311  0.00  0.00    +0.000 OA
ATOM     18  C   UNL     1       1.967   4.522  18.101  0.00  0.00    +0.000 C 
ENDBRANCH   1  18
TORSDOF 2
ENDMDL
MODEL 7
REMARK VINA RESULT:      -7.0      3.422      4.178
REMARK  Name = 
REMARK  2 active torsions:
REMARK  status: ('A' for Active; 'I' for Inactive)
REMARK    1  A    between atoms: C_2  and  C_3
REMARK    2  A    between atoms: C_4  and  C_5
REMARK                            x       y       z     vdW  Elec       q    Type
REMARK                         _______ _______ _______ _____ _____    ______ ____
ROOT
ATOM      1  C   UNL     1       3.142   5.448  17.733  0.00  0.00    +0.000 A 
ATOM      2  C   UNL     1       3.277   6.821  17.946  0.00  0.00    +0.000 A 
ATOM      3  N   UNL     1       4.491   7.181  17.395  0.00  0.00    +0.000 N 
ATOM      4  C   UNL     1       5.122   6.101  16.823  0.00  0.00    +0.000 A 
ATOM      5  C   UNL     1       6.338   6.022  16.132  0.00  0.00    +0.000 A 
ATOM      6  C   UNL     1       6.730   4.768  15.651  0.00  0.00    +0.000 A 
ATOM      7  C   UNL     1       5.942   3.641  15.859  0.00  0.00    +0.000 A 
ATOM      8  C   UNL     1       4.733   3.739  16.555  0.00  0.00    +0.000 A 
ATOM      9  C   UNL     1       4.309   4.994  17.042  0.00  0.00    +0.000 A 
ATOM     10  H   UNL     1       4.874   8.117  17.413  0.00  0.00    +0.000 HD
ENDROOT
BRANCH   2  11
ATOM     11  C   UNL     1       2.393   7.786  18.615  0.00  0.00    +0.000 A 
ATOM     12  C   UNL     1       2.084   7.645  19.976  0.00  0.00    +0.000 A 
ATOM     13  C   UNL     1       1.163   8.492  20.596  0.00  0.00    +0.000 A 
ATOM     14  C   UNL     1       0.567   9.521  19.875  0.00  0.00    +0.000 A 
ATOM     15  C   UNL     1       0.903   9.708  18.535  0.00  0.00    +0.000 A 
ATOM     16  C   UNL     1       1.806   8.845  17.907  0.00  0.00    +0.000 A 
ENDBRANCH   2  11
BRANCH   1  18
ATOM     17  O   UNL     1       1.143   4.239  17.330  0.00  0.00    +0.000 OA
ATOM     18  C   UNL     1       2.000   4.634  18.114  0.00  0.00    +0.000 C 
ENDBRANCH   1  18
TORSDOF 2
ENDMDL
MODEL 8
REMARK VINA RESULT:      -6.9      1.580      1.666
REMARK  Name = 
REMARK  2 active torsions:
REMARK  status: ('A' for Active; 'I' for Inactive)
REMARK    1  A    between atoms: C_2  and  C_3
REMARK    2  A    between atoms: C_4  and  C_5
REMARK                            x       y       z     vdW  Elec       q    Type
REMARK                         _______ _______ _______ _____ _____    ______ ____
ROOT
ATOM      1  C   UNL     1       3.799   5.393  17.628  0.00  0.00    +0.000 A 
ATOM      2  C   UNL     1       3.640   4.135  18.212  0.00  0.00    +0.000 A 
ATOM      3  N   UNL     1       4.446   3.272  17.497  0.00  0.00    +0.000 N 
ATOM      4  C   UNL     1       5.126   3.930  16.500  0.00  0.00    +0.000 A 
ATOM      5  C   UNL     1       6.063   3.454  15.573  0.00  0.00    +0.000 A 
ATOM      6  C   UNL     1       6.600   4.372  14.665  0.00  0.00    +0.000 A 
ATOM      7  C   UNL     1       6.210   5.708  14.678  0.00  0.00    +0.000 A 
ATOM      8  C   UNL     1       5.270   6.162  15.608  0.00  0.00    +0.000 A 
ATOM      9  C   UNL     1       4.720   5.260  16.542  0.00  0.00    +0.000 A 
ATOM     10  H   UNL     1       4.525   2.279  17.677  0.00  0.00    +0.000 HD
ENDROOT
BRANCH   2  11
ATOM     11  C   UNL     1       2.809   3.692  19.340  0.00  0.00    +0.000 A 
ATOM     12  C   UNL     1       3.401   3.192  20.510  0.00  0.00    +0.000 A 
ATOM     13  C   UNL     1       2.623   2.669  21.544  0.00  0.00    +0.000 A 
ATOM     14  C   UNL     1       1.236   2.677  21.445  0.00  0.00    +0.000 A 
ATOM     15  C   UNL     1       0.629   3.218  20.313  0.00  0.00    +0.000 A 
ATOM     16  C   UNL     1       1.409   3.718  19.265  0.00  0.00    +0.000 A 
ENDBRANCH   2  11
BRANCH   1  18
ATOM     17  O   UNL     1       2.947   6.902  19.245  0.00  0.00    +0.000 OA
ATOM     18  C   UNL     1       3.168   6.624  18.071  0.00  0.00    +0.000 C 
ENDBRANCH   1  18
TORSDOF 2
ENDMDL
MODEL 9
REMARK VINA RESULT:      -6.9      2.515      5.419
REMARK  Name = 
REMARK  2 active torsions:
REMARK  status: ('A' for Active; 'I' for Inactive)
REMARK    1  A    between atoms: C_2  and  C_3
REMARK    2  A    between atoms: C_4  and  C_5
REMARK                            x       y       z     vdW  Elec       q    Type
REMARK                         _______ _______ _______ _____ _____    ______ ____
ROOT
ATOM      1  C   UNL     1       3.386   5.343  18.636  0.00  0.00    +0.000 A 
ATOM      2  C   UNL     1       4.716   4.988  18.407  0.00  0.00    +0.000 A 
ATOM      3  N   UNL     1       4.743   3.609  18.344  0.00  0.00    +0.000 N 
ATOM      4  C   UNL     1       3.486   3.075  18.501  0.00  0.00    +0.000 A 
ATOM      5  C   UNL     1       3.056   1.742  18.470  0.00  0.00    +0.000 A 
ATOM      6  C   UNL     1       1.692   1.496  18.658  0.00  0.00    +0.000 A 
ATOM      7  C   UNL     1       0.798   2.540  18.878  0.00  0.00    +0.000 A 
ATOM      8  C   UNL     1       1.247   3.863  18.909  0.00  0.00    +0.000 A 
ATOM      9  C   UNL     1       2.617   4.140  18.711  0.00  0.00    +0.000 A 
ATOM     10  H   UNL     1       5.581   3.057  18.206  0.00  0.00    +0.000 HD
ENDROOT
BRANCH   2  11
ATOM     11  C   UNL     1       5.925   5.812  18.262  0.00  0.00    +0.000 A 
ATOM     12  C   UNL     1       7.024   5.621  19.113  0.00  0.00    +0.000 A 
ATOM     13  C   UNL     1       8.134   6.467  19.056  0.00  0.00    +0.000 A 
ATOM     14  C   UNL     1       8.181   7.491  18.116  0.00  0.00    +0.000 A 
ATOM     15  C   UNL     1       7.121   7.662  17.228  0.00  0.00    +0.000 A 
ATOM     16  C   UNL     1       5.997   6.831  17.302  0.00  0.00    +0.000 A 
ENDBRANCH   2  11
BRANCH   1  18
ATOM     17  O   UNL     1       2.338   7.157  19.745  0.00  0.00    +0.000 OA
ATOM     18  C   UNL     1       2.871   6.698  18.741  0.00  0.00    +0.000 C 
ENDBRANCH   1  18
TORSDOF 2
ENDMDL
