MODEL 1
REMARK VINA RESULT:      -6.7      0.000      0.000
REMARK  Name = 
REMARK  6 active torsions:
REMARK  status: ('A' for Active; 'I' for Inactive)
REMARK    1  A    between atoms: C_1  and  O_2
REMARK    2  A    between atoms: O_2  and  C_3
REMARK    3  A    between atoms: C_3  and  C_5
REMARK    4  A    between atoms: C_10  and  N_11
REMARK    5  A    between atoms: C_12  and  S_13
REMARK    6  A    between atoms: C_17  and  N_18
REMARK                            x       y       z     vdW  Elec       q    Type
REMARK                         _______ _______ _______ _____ _____    ______ ____
ROOT
ATOM      1  N   UNL     1       2.699   6.291  18.260  0.00  0.00    +0.000 NA
ATOM      2  C   UNL     1       2.140   6.822  19.315  0.00  0.00    +0.000 C 
ATOM      3  N   UNL     1       1.651   8.135  19.282  0.00  0.00    +0.000 N 
ATOM      4  C   UNL     1       1.408   8.909  20.506  0.00  0.00    +0.000 C 
ATOM      5  C   UNL     1       0.432  10.049  20.269  0.00  0.00    +0.000 C 
ATOM      6  C   UNL     1       0.835  10.993  19.128  0.00  0.00    +0.000 C 
ATOM      7  C   UNL     1       1.079  10.135  17.877  0.00  0.00    +0.000 C 
ATOM      8  C   UNL     1       1.986   8.926  18.082  0.00  0.00    +0.000 C 
ENDROOT
BRANCH   1  14
ATOM      9  C   UNL     1       4.381   4.474  18.384  0.00  0.00    +0.000 A 
ATOM     10  C   UNL     1       4.663   3.098  18.248  0.00  0.00    +0.000 A 
ATOM     11  C   UNL     1       3.676   2.190  17.860  0.00  0.00    +0.000 A 
ATOM     12  C   UNL     1       2.399   2.653  17.566  0.00  0.00    +0.000 A 
ATOM     13  C   UNL     1       2.124   4.015  17.672  0.00  0.00    +0.000 A 
ATOM     14  C   UNL     1       3.074   4.940  18.147  0.00  0.00    +0.000 A 
BRANCH   9  15
ATOM     15  C   UNL     1       5.539   5.332  18.741  0.00  0.00    +0.000 C 
ATOM     16  O   UNL     1       6.197   5.161  19.759  0.00  0.00    +0.000 OA
BRANCH  15  18
ATOM     17  C   UNL     1       7.234   6.536  17.674  0.00  0.00    +0.000 C 
ATOM     18  O   UNL     1       5.849   6.194  17.743  0.00  0.00    +0.000 OA
ENDBRANCH  15  18
ENDBRANCH   9  15
ENDBRANCH   1  14
BRANCH   6  19
ATOM     19  N   UNL     1       1.857  12.034  19.409  0.00  0.00    +0.000 NA
ATOM     20  C   UNL     1       2.136  12.858  18.220  0.00  0.00    +0.000 C 
ATOM     21  C   UNL     1       3.275  13.853  18.434  0.00  0.00    +0.000 C 
ATOM     22  C   UNL     1       2.990  14.738  19.637  0.00  0.00    +0.000 C 
ATOM     23  C   UNL     1       2.782  13.861  20.860  0.00  0.00    +0.000 C 
ATOM     24  C   UNL     1       1.675  12.833  20.622  0.00  0.00    +0.000 C 
ENDBRANCH   6  19
BRANCH   2  25
ATOM     25  S   UNL     1       1.900   5.918  20.820  0.00  0.00    +0.000 S 
ATOM     26  H   UNL     1       2.573   6.801  21.571  0.00  0.00    +0.000 HD
ENDBRANCH   2  25
TORSDOF 5
ENDMDL
MODEL 2
REMARK VINA RESULT:      -6.3      1.991      2.364
REMARK  Name = 
REMARK  6 active torsions:
REMARK  status: ('A' for Active; 'I' for Inactive)
REMARK    1  A    between atoms: C_1  and  O_2
REMARK    2  A    between atoms: O_2  and  C_3
REMARK    3  A    between atoms: C_3  and  C_5
REMARK    4  A    between atoms: C_10  and  N_11
REMARK    5  A    between atoms: C_12  and  S_13
REMARK    6  A    between atoms: C_17  and  N_18
REMARK                            x       y       z     vdW  Elec       q    Type
REMARK                         _______ _______ _______ _____ _____    ______ ____
ROOT
ATOM      1  N   UNL     1       4.218   6.835  17.141  0.00  0.00    +0.000 NA
ATOM      2  C   UNL     1       3.583   6.743  18.280  0.00  0.00    +0.000 C 
ATOM      3  N   UNL     1       2.573   7.655  18.612  0.00  0.00    +0.000 N 
ATOM      4  C   UNL     1       2.131   7.863  19.997  0.00  0.00    +0.000 C 
ATOM      5  C   UNL     1       0.740   8.470  20.062  0.00  0.00    +0.000 C 
ATOM      6  C   UNL     1       0.587   9.773  19.266  0.00  0.00    +0.000 C 
ATOM      7  C   UNL     1       1.063   9.503  17.831  0.00  0.00    +0.000 C 
ATOM      8  C   UNL     1       2.419   8.815  17.713  0.00  0.00    +0.000 C 
ENDROOT
BRANCH   1  14
ATOM      9  C   UNL     1       6.498   5.877  16.983  0.00  0.00    +0.000 A 
ATOM     10  C   UNL     1       7.338   4.878  16.446  0.00  0.00    +0.000 A 
ATOM     11  C   UNL     1       6.843   3.904  15.577  0.00  0.00    +0.000 A 
ATOM     12  C   UNL     1       5.506   3.940  15.200  0.00  0.00    +0.000 A 
ATOM     13  C   UNL     1       4.680   4.942  15.706  0.00  0.00    +0.000 A 
ATOM     14  C   UNL     1       5.130   5.881  16.654  0.00  0.00    +0.000 A 
BRANCH   9  15
ATOM     15  C   UNL     1       7.171   6.883  17.842  0.00  0.00    +0.000 C 
ATOM     16  O   UNL     1       7.778   6.579  18.862  0.00  0.00    +0.000 OA
BRANCH  15  18
ATOM     17  C   UNL     1       8.115   9.020  17.822  0.00  0.00    +0.000 C 
ATOM     18  O   UNL     1       7.155   8.114  17.278  0.00  0.00    +0.000 OA
ENDBRANCH  15  18
ENDBRANCH   9  15
ENDBRANCH   1  14
BRANCH   6  19
ATOM     19  N   UNL     1       1.077  11.032  19.885  0.00  0.00    +0.000 NA
ATOM     20  C   UNL     1       1.654  11.942  18.881  0.00  0.00    +0.000 C 
ATOM     21  C   UNL     1       2.286  13.190  19.496  0.00  0.00    +0.000 C 
ATOM     22  C   UNL     1       1.276  13.927  20.362  0.00  0.00    +0.000 C 
ATOM     23  C   UNL     1       0.757  12.982  21.432  0.00  0.00    +0.000 C 
ATOM     24  C   UNL     1       0.171  11.712  20.813  0.00  0.00    +0.000 C 
ENDBRANCH   6  19
BRANCH   2  25
ATOM     25  S   UNL     1       3.900   5.443  19.442  0.00  0.00    +0.000 S 
ATOM     26  H   UNL     1       4.745   4.792  18.630  0.00  0.00    +0.000 HD
ENDBRANCH   2  25
TORSDOF 5
ENDMDL
MODEL 3
REMARK VINA RESULT:      -6.1      2.877      4.306
REMARK  Name = 
REMARK  6 active torsions:
REMARK  status: ('A' for Active; 'I' for Inactive)
REMARK    1  A    between atoms: C_1  and  O_2
REMARK    2  A    between atoms: O_2  and  C_3
REMARK    3  A    between atoms: C_3  and  C_5
REMARK    4  A    between atoms: C_10  and  N_11
REMARK    5  A    between atoms: C_12  and  S_13
REMARK    6  A    between atoms: C_17  and  N_18
REMARK                            x       y       z     vdW  Elec       q    Type
REMARK                         _______ _______ _______ _____ _____    ______ ____
ROOT
ATOM      1  N   UNL     1       2.509   6.475  19.499  0.00  0.00    +0.000 NA
ATOM      2  C   UNL     1       2.499   7.527  18.723  0.00  0.00    +0.000 C 
ATOM      3  N   UNL     1       1.775   8.672  19.080  0.00  0.00    +0.000 N 
ATOM      4  C   UNL     1       1.388   9.690  18.094  0.00  0.00    +0.000 C 
ATOM      5  C   UNL     1       1.091  11.028  18.751  0.00  0.00    +0.000 C 
ATOM      6  C   UNL     1       0.041  10.958  19.867  0.00  0.00    +0.000 C 
ATOM      7  C   UNL     1       0.490   9.881  20.866  0.00  0.00    +0.000 C 
ATOM      8  C   UNL     1       0.883   8.543  20.248  0.00  0.00    +0.000 C 
ENDROOT
BRANCH   1  14
ATOM      9  C   UNL     1       2.820   4.048  19.102  0.00  0.00    +0.000 A 
ATOM     10  C   UNL     1       3.718   2.974  18.916  0.00  0.00    +0.000 A 
ATOM     11  C   UNL     1       5.100   3.171  18.950  0.00  0.00    +0.000 A 
ATOM     12  C   UNL     1       5.604   4.439  19.212  0.00  0.00    +0.000 A 
ATOM     13  C   UNL     1       4.720   5.495  19.424  0.00  0.00    +0.000 A 
ATOM     14  C   UNL     1       3.326   5.345  19.306  0.00  0.00    +0.000 A 
BRANCH   9  15
ATOM     15  C   UNL     1       1.381   3.684  19.103  0.00  0.00    +0.000 C 
ATOM     16  O   UNL     1       0.833   3.162  18.140  0.00  0.00    +0.000 OA
BRANCH  15  18
ATOM     17  C   UNL     1       1.228   2.893  21.297  0.00  0.00    +0.000 C 
ATOM     18  O   UNL     1       0.822   3.857  20.324  0.00  0.00    +0.000 OA
ENDBRANCH  15  18
ENDBRANCH   9  15
ENDBRANCH   1  14
BRANCH   6  19
ATOM     19  N   UNL     1      -1.393  10.922  19.478  0.00  0.00    +0.000 NA
ATOM     20  C   UNL     1      -2.039  12.233  19.661  0.00  0.00    +0.000 C 
ATOM     21  C   UNL     1      -3.544  12.202  19.395  0.00  0.00    +0.000 C 
ATOM     22  C   UNL     1      -3.827  11.662  18.002  0.00  0.00    +0.000 C 
ATOM     23  C   UNL     1      -3.212  10.279  17.872  0.00  0.00    +0.000 C 
ATOM     24  C   UNL     1      -1.716  10.307  18.189  0.00  0.00    +0.000 C 
ENDBRANCH   6  19
BRANCH   2  25
ATOM     25  S   UNL     1       3.437   7.609  17.222  0.00  0.00    +0.000 S 
ATOM     26  H   UNL     1       3.591   6.281  17.131  0.00  0.00    +0.000 HD
ENDBRANCH   2  25
TORSDOF 5
ENDMDL
MODEL 4
REMARK VINA RESULT:      -6.0      1.016      1.621
REMARK  Name = 
REMARK  6 active torsions:
REMARK  status: ('A' for Active; 'I' for Inactive)
REMARK    1  A    between atoms: C_1  and  O_2
REMARK    2  A    between atoms: O_2  and  C_3
REMARK    3  A    between atoms: C_3  and  C_5
REMARK    4  A    between atoms: C_10  and  N_11
REMARK    5  A    between atoms: C_12  and  S_13
REMARK    6  A    between atoms: C_17  and  N_18
REMARK                            x       y       z     vdW  Elec       q    Type
REMARK                         _______ _______ _______ _____ _____    ______ ____
ROOT
ATOM      1  N   UNL     1       2.420   6.803  17.944  0.00  0.00    +0.000 NA
ATOM      2  C   UNL     1       2.033   7.242  19.113  0.00  0.00    +0.000 C 
ATOM      3  N   UNL     1       1.327   8.447  19.226  0.00  0.00    +0.000 N 
ATOM      4  C   UNL     1       1.237   9.185  20.493  0.00  0.00    +0.000 C 
ATOM      5  C   UNL     1       0.048  10.130  20.515  0.00  0.00    +0.000 C 
ATOM      6  C   UNL     1       0.007  11.112  19.336  0.00  0.00    +0.000 C 
ATOM      7  C   UNL     1       0.105  10.292  18.041  0.00  0.00    +0.000 C 
ATOM      8  C   UNL     1       1.233   9.267  18.003  0.00  0.00    +0.000 C 
ENDROOT
BRANCH   1  14
ATOM      9  C   UNL     1       4.279   5.354  17.174  0.00  0.00    +0.000 A 
ATOM     10  C   UNL     1       4.769   4.045  16.980  0.00  0.00    +0.000 A 
ATOM     11  C   UNL     1       3.994   2.927  17.292  0.00  0.00    +0.000 A 
ATOM     12  C   UNL     1       2.701   3.102  17.767  0.00  0.00    +0.000 A 
ATOM     13  C   UNL     1       2.203   4.393  17.934  0.00  0.00    +0.000 A 
ATOM     14  C   UNL     1       2.992   5.538  17.714  0.00  0.00    +0.000 A 
BRANCH   9  15
ATOM     15  C   UNL     1       5.185   6.447  16.741  0.00  0.00    +0.000 C 
ATOM     16  O   UNL     1       5.133   6.942  15.622  0.00  0.00    +0.000 OA
BRANCH  15  18
ATOM     17  C   UNL     1       7.306   7.146  17.428  0.00  0.00    +0.000 C 
ATOM     18  O   UNL     1       5.939   6.909  17.767  0.00  0.00    +0.000 OA
ENDBRANCH  15  18
ENDBRANCH   9  15
ENDBRANCH   1  14
BRANCH   6  19
ATOM     19  N   UNL     1       0.866  12.322  19.404  0.00  0.00    +0.000 NA
ATOM     20  C   UNL     1       1.147  12.713  20.797  0.00  0.00    +0.000 C 
ATOM     21  C   UNL     1       1.919  14.027  20.906  0.00  0.00    +0.000 C 
ATOM     22  C   UNL     1       3.210  13.955  20.106  0.00  0.00    +0.000 C 
ATOM     23  C   UNL     1       2.879  13.624  18.660  0.00  0.00    +0.000 C 
ATOM     24  C   UNL     1       2.063  12.335  18.560  0.00  0.00    +0.000 C 
ENDBRANCH   6  19
BRANCH   2  25
ATOM     25  S   UNL     1       2.308   6.333  20.609  0.00  0.00    +0.000 S 
ATOM     26  H   UNL     1       3.552   5.965  20.270  0.00  0.00    +0.000 HD
ENDBRANCH   2  25
TORSDOF 5
ENDMDL
MODEL 5
REMARK VINA RESULT:      -5.9      2.840      4.280
REMARK  Name = 
REMARK  6 active torsions:
REMARK  status: ('A' for Active; 'I' for Inactive)
REMARK    1  A    between atoms: C_1  and  O_2
REMARK    2  A    between atoms: O_2  and  C_3
REMARK    3  A    between atoms: C_3  and  C_5
REMARK    4  A    between atoms: C_10  and  N_11
REMARK    5  A    between atoms: C_12  and  S_13
REMARK    6  A    between atoms: C_17  and  N_18
REMARK                            x       y       z     vdW  Elec       q    Type
REMARK                         _______ _______ _______ _____ _____    ______ ____
ROOT
ATOM      1  N   UNL     1       2.579   6.290  19.799  0.00  0.00    +0.000 NA
ATOM      2  C   UNL     1       2.594   7.276  18.941  0.00  0.00    +0.000 C 
ATOM      3  N   UNL     1       1.881   8.456  19.194  0.00  0.00    +0.000 N 
ATOM      4  C   UNL     1       1.522   9.396  18.125  0.00  0.00    +0.000 C 
ATOM      5  C   UNL     1       1.234  10.786  18.667  0.00  0.00    +0.000 C 
ATOM      6  C   UNL     1       0.169  10.820  19.771  0.00  0.00    +0.000 C 
ATOM      7  C   UNL     1       0.590   9.821  20.858  0.00  0.00    +0.000 C 
ATOM      8  C   UNL     1       0.972   8.433  20.356  0.00  0.00    +0.000 C 
ENDROOT
BRANCH   1  14
ATOM      9  C   UNL     1       2.971   3.869  20.156  0.00  0.00    +0.000 A 
ATOM     10  C   UNL     1       3.847   2.769  20.023  0.00  0.00    +0.000 A 
ATOM     11  C   UNL     1       5.122   2.920  19.476  0.00  0.00    +0.000 A 
ATOM     12  C   UNL     1       5.555   4.183  19.089  0.00  0.00    +0.000 A 
ATOM     13  C   UNL     1       4.704   5.275  19.245  0.00  0.00    +0.000 A 
ATOM     14  C   UNL     1       3.382   5.139  19.709  0.00  0.00    +0.000 A 
BRANCH   9  15
ATOM     15  C   UNL     1       1.673   3.575  20.812  0.00  0.00    +0.000 C 
ATOM     16  O   UNL     1       1.577   3.341  22.010  0.00  0.00    +0.000 OA
BRANCH  15  18
ATOM     17  C   UNL     1       0.531   2.756  18.945  0.00  0.00    +0.000 C 
ATOM     18  O   UNL     1       0.632   3.752  19.963  0.00  0.00    +0.000 OA
ENDBRANCH  15  18
ENDBRANCH   9  15
ENDBRANCH   1  14
BRANCH   6  19
ATOM     19  N   UNL     1      -1.260  10.771  19.365  0.00  0.00    +0.000 NA
ATOM     20  C   UNL     1      -1.922  12.075  19.548  0.00  0.00    +0.000 C 
ATOM     21  C   UNL     1      -3.423  12.029  19.265  0.00  0.00    +0.000 C 
ATOM     22  C   UNL     1      -3.686  11.493  17.866  0.00  0.00    +0.000 C 
ATOM     23  C   UNL     1      -3.054  10.117  17.735  0.00  0.00    +0.000 C 
ATOM     24  C   UNL     1      -1.562  10.160  18.069  0.00  0.00    +0.000 C 
ENDBRANCH   6  19
BRANCH   2  25
ATOM     25  S   UNL     1       3.553   7.226  17.451  0.00  0.00    +0.000 S 
ATOM     26  H   UNL     1       4.540   7.986  17.946  0.00  0.00    +0.000 HD
ENDBRANCH   2  25
TORSDOF 5
ENDMDL
MODEL 6
REMARK VINA RESULT:      -5.9      6.384      9.720
REMARK  Name = 
REMARK  6 active torsions:
REMARK  status: ('A' for Active; 'I' for Inactive)
REMARK    1  A    between atoms: C_1  and  O_2
REMARK    2  A    between atoms: O_2  and  C_3
REMARK    3  A    between atoms: C_3  and  C_5
REMARK    4  A    between atoms: C_10  and  N_11
REMARK    5  A    between atoms: C_12  and  S_13
REMARK    6  A    between atoms: C_17  and  N_18
REMARK                            x       y       z     vdW  Elec       q    Type
REMARK                         _______ _______ _______ _____ _____    ______ ____
ROOT
ATOM      1  N   UNL     1       3.881  15.254  18.628  0.00  0.00    +0.000 NA
ATOM      2  C   UNL     1       4.671  15.437  19.653  0.00  0.00    +0.000 C 
ATOM      3  N   UNL     1       6.063  15.376  19.503  0.00  0.00    +0.000 N 
ATOM      4  C   UNL     1       6.963  15.157  20.643  0.00  0.00    +0.000 C 
ATOM      5  C   UNL     1       8.375  15.632  20.349  0.00  0.00    +0.000 C 
ATOM      6  C   UNL     1       8.988  15.028  19.078  0.00  0.00    +0.000 C 
ATOM      7  C   UNL     1       8.010  15.282  17.921  0.00  0.00    +0.000 C 
ATOM      8  C   UNL     1       6.560  14.900  18.198  0.00  0.00    +0.000 C 
ENDROOT
BRANCH   1  14
ATOM      9  C   UNL     1       1.562  14.417  18.885  0.00  0.00    +0.000 A 
ATOM     10  C   UNL     1       0.181  14.709  18.885  0.00  0.00    +0.000 A 
ATOM     11  C   UNL     1      -0.287  16.000  18.631  0.00  0.00    +0.000 A 
ATOM     12  C   UNL     1       0.620  17.010  18.334  0.00  0.00    +0.000 A 
ATOM     13  C   UNL     1       1.982  16.718  18.305  0.00  0.00    +0.000 A 
ATOM     14  C   UNL     1       2.488  15.450  18.646  0.00  0.00    +0.000 A 
BRANCH   9  15
ATOM     15  C   UNL     1       1.913  12.992  19.108  0.00  0.00    +0.000 C 
ATOM     16  O   UNL     1       2.359  12.277  18.220  0.00  0.00    +0.000 OA
BRANCH  15  18
ATOM     17  C   UNL     1       0.982  11.529  20.674  0.00  0.00    +0.000 C 
ATOM     18  O   UNL     1       1.824  12.653  20.417  0.00  0.00    +0.000 OA
ENDBRANCH  15  18
ENDBRANCH   9  15
ENDBRANCH   1  14
BRANCH   6  19
ATOM     19  N   UNL     1       9.553  13.656  19.159  0.00  0.00    +0.000 NA
ATOM     20  C   UNL     1      10.006  13.177  17.841  0.00  0.00    +0.000 C 
ATOM     21  C   UNL     1      10.473  11.722  17.861  0.00  0.00    +0.000 C 
ATOM     22  C   UNL     1      11.566  11.527  18.900  0.00  0.00    +0.000 C 
ATOM     23  C   UNL     1      11.042  11.961  20.259  0.00  0.00    +0.000 C 
ATOM     24  C   UNL     1      10.529  13.401  20.220  0.00  0.00    +0.000 C 
ENDBRANCH   6  19
BRANCH   2  25
ATOM     25  S   UNL     1       4.057  15.834  21.267  0.00  0.00    +0.000 S 
ATOM     26  H   UNL     1       5.073  16.659  21.556  0.00  0.00    +0.000 HD
ENDBRANCH   2  25
TORSDOF 5
ENDMDL
MODEL 7
REMARK VINA RESULT:      -5.9      7.545     10.085
REMARK  Name = 
REMARK  6 active torsions:
REMARK  status: ('A' for Active; 'I' for Inactive)
REMARK    1  A    between atoms: C_1  and  O_2
REMARK    2  A    between atoms: O_2  and  C_3
REMARK    3  A    between atoms: C_3  and  C_5
REMARK    4  A    between atoms: C_10  and  N_11
REMARK    5  A    between atoms: C_12  and  S_13
REMARK    6  A    between atoms: C_17  and  N_18
REMARK                            x       y       z     vdW  Elec       q    Type
REMARK                         _______ _______ _______ _____ _____    ______ ____
ROOT
ATOM      1  N   UNL     1       3.769  14.659  18.741  0.00  0.00    +0.000 NA
ATOM      2  C   UNL     1       4.571  14.898  19.745  0.00  0.00    +0.000 C 
ATOM      3  N   UNL     1       5.955  14.995  19.548  0.00  0.00    +0.000 N 
ATOM      4  C   UNL     1       6.914  14.842  20.649  0.00  0.00    +0.000 C 
ATOM      5  C   UNL     1       8.255  15.479  20.323  0.00  0.00    +0.000 C 
ATOM      6  C   UNL     1       8.883  14.983  19.014  0.00  0.00    +0.000 C 
ATOM      7  C   UNL     1       7.841  15.161  17.899  0.00  0.00    +0.000 C 
ATOM      8  C   UNL     1       6.452  14.615  18.211  0.00  0.00    +0.000 C 
ENDROOT
BRANCH   1  14
ATOM      9  C   UNL     1       1.614  15.882  18.662  0.00  0.00    +0.000 A 
ATOM     10  C   UNL     1       0.206  15.826  18.748  0.00  0.00    +0.000 A 
ATOM     11  C   UNL     1      -0.458  14.624  19.000  0.00  0.00    +0.000 A 
ATOM     12  C   UNL     1       0.281  13.466  19.209  0.00  0.00    +0.000 A 
ATOM     13  C   UNL     1       1.672  13.523  19.154  0.00  0.00    +0.000 A 
ATOM     14  C   UNL     1       2.364  14.701  18.812  0.00  0.00    +0.000 A 
BRANCH   9  15
ATOM     15  C   UNL     1       2.188  17.235  18.453  0.00  0.00    +0.000 C 
ATOM     16  O   UNL     1       2.626  17.915  19.373  0.00  0.00    +0.000 OA
BRANCH  15  18
ATOM     17  C   UNL     1       1.256  18.372  16.636  0.00  0.00    +0.000 C 
ATOM     18  O   UNL     1       2.299  17.534  17.136  0.00  0.00    +0.000 OA
ENDBRANCH  15  18
ENDBRANCH   9  15
ENDBRANCH   1  14
BRANCH   6  19
ATOM     19  N   UNL     1       9.597  13.679  19.030  0.00  0.00    +0.000 NA
ATOM     20  C   UNL     1      10.277  13.416  17.751  0.00  0.00    +0.000 C 
ATOM     21  C   UNL     1      10.912  12.028  17.684  0.00  0.00    +0.000 C 
ATOM     22  C   UNL     1      11.872  11.825  18.846  0.00  0.00    +0.000 C 
ATOM     23  C   UNL     1      11.121  12.030  20.151  0.00  0.00    +0.000 C 
ATOM     24  C   UNL     1      10.445  13.401  20.191  0.00  0.00    +0.000 C 
ENDBRANCH   6  19
BRANCH   2  25
ATOM     25  S   UNL     1       3.977  15.179  21.391  0.00  0.00    +0.000 S 
ATOM     26  H   UNL     1       3.217  16.226  21.042  0.00  0.00    +0.000 HD
ENDBRANCH   2  25
TORSDOF 5
ENDMDL
MODEL 8
REMARK VINA RESULT:      -5.9      1.941      2.909
REMARK  Name = 
REMARK  6 active torsions:
REMARK  status: ('A' for Active; 'I' for Inactive)
REMARK    1  A    between atoms: C_1  and  O_2
REMARK    2  A    between atoms: O_2  and  C_3
REMARK    3  A    between atoms: C_3  and  C_5
REMARK    4  A    between atoms: C_10  and  N_11
REMARK    5  A    between atoms: C_12  and  S_13
REMARK    6  A    between atoms: C_17  and  N_18
REMARK                            x       y       z     vdW  Elec       q    Type
REMARK                         _______ _______ _______ _____ _____    ______ ____
ROOT
ATOM      1  N   UNL     1       3.052   6.940  17.861  0.00  0.00    +0.000 NA
ATOM      2  C   UNL     1       2.544   7.070  19.058  0.00  0.00    +0.000 C 
ATOM      3  N   UNL     1       1.638   8.100  19.342  0.00  0.00    +0.000 N 
ATOM      4  C   UNL     1       1.368   8.547  20.715  0.00  0.00    +0.000 C 
ATOM      5  C   UNL     1       0.035   9.268  20.823  0.00  0.00    +0.000 C 
ATOM      6  C   UNL     1      -0.121  10.446  19.853  0.00  0.00    +0.000 C 
ATOM      7  C   UNL     1       0.174   9.928  18.437  0.00  0.00    +0.000 C 
ATOM      8  C   UNL     1       1.461   9.123  18.293  0.00  0.00    +0.000 C 
ENDROOT
BRANCH   1  14
ATOM      9  C   UNL     1       3.359   4.534  17.349  0.00  0.00    +0.000 A 
ATOM     10  C   UNL     1       4.224   3.507  16.915  0.00  0.00    +0.000 A 
ATOM     11  C   UNL     1       5.557   3.770  16.594  0.00  0.00    +0.000 A 
ATOM     12  C   UNL     1       6.055   5.059  16.740  0.00  0.00    +0.000 A 
ATOM     13  C   UNL     1       5.210   6.070  17.196  0.00  0.00    +0.000 A 
ATOM     14  C   UNL     1       3.841   5.853  17.440  0.00  0.00    +0.000 A 
BRANCH   9  15
ATOM     15  C   UNL     1       1.987   4.101  17.715  0.00  0.00    +0.000 C 
ATOM     16  O   UNL     1       0.990   4.505  17.131  0.00  0.00    +0.000 OA
BRANCH  15  18
ATOM     17  C   UNL     1       0.772   2.406  18.769  0.00  0.00    +0.000 C 
ATOM     18  O   UNL     1       2.005   3.115  18.644  0.00  0.00    +0.000 OA
ENDBRANCH  15  18
ENDBRANCH   9  15
ENDBRANCH   1  14
BRANCH   6  19
ATOM     19  N   UNL     1       0.516  11.739  20.214  0.00  0.00    +0.000 NA
ATOM     20  C   UNL     1       0.886  12.516  19.019  0.00  0.00    +0.000 C 
ATOM     21  C   UNL     1       1.660  13.792  19.349  0.00  0.00    +0.000 C 
ATOM     22  C   UNL     1       0.872  14.657  20.321  0.00  0.00    +0.000 C 
ATOM     23  C   UNL     1       0.572  13.850  21.573  0.00  0.00    +0.000 C 
ATOM     24  C   UNL     1      -0.158  12.550  21.231  0.00  0.00    +0.000 C 
ENDBRANCH   6  19
BRANCH   2  25
ATOM     25  S   UNL     1       2.903   5.936  20.372  0.00  0.00    +0.000 S 
ATOM     26  H   UNL     1       3.998   5.443  19.776  0.00  0.00    +0.000 HD
ENDBRANCH   2  25
TORSDOF 5
ENDMDL
MODEL 9
REMARK VINA RESULT:      -5.8      1.872      3.028
REMARK  Name = 
REMARK  6 active torsions:
REMARK  status: ('A' for Active; 'I' for Inactive)
REMARK    1  A    between atoms: C_1  and  O_2
REMARK    2  A    between atoms: O_2  and  C_3
REMARK    3  A    between atoms: C_3  and  C_5
REMARK    4  A    between atoms: C_10  and  N_11
REMARK    5  A    between atoms: C_12  and  S_13
REMARK    6  A    between atoms: C_17  and  N_18
REMARK                            x       y       z     vdW  Elec       q    Type
REMARK                         _______ _______ _______ _____ _____    ______ ____
ROOT
ATOM      1  N   UNL     1       2.922   7.071  17.844  0.00  0.00    +0.000 NA
ATOM      2  C   UNL     1       2.399   7.283  19.023  0.00  0.00    +0.000 C 
ATOM      3  N   UNL     1       1.466   8.309  19.218  0.00  0.00    +0.000 N 
ATOM      4  C   UNL     1       1.171   8.856  20.549  0.00  0.00    +0.000 C 
ATOM      5  C   UNL     1      -0.180   9.549  20.589  0.00  0.00    +0.000 C 
ATOM      6  C   UNL     1      -0.354  10.643  19.527  0.00  0.00    +0.000 C 
ATOM      7  C   UNL     1      -0.034  10.022  18.160  0.00  0.00    +0.000 C 
ATOM      8  C   UNL     1       1.274   9.240  18.089  0.00  0.00    +0.000 C 
ENDROOT
BRANCH   1  14
ATOM      9  C   UNL     1       3.274   4.647  17.461  0.00  0.00    +0.000 A 
ATOM     10  C   UNL     1       4.170   3.610  17.122  0.00  0.00    +0.000 A 
ATOM     11  C   UNL     1       5.517   3.872  16.861  0.00  0.00    +0.000 A 
ATOM     12  C   UNL     1       5.995   5.172  16.975  0.00  0.00    +0.000 A 
ATOM     13  C   UNL     1       5.120   6.193  17.337  0.00  0.00    +0.000 A 
ATOM     14  C   UNL     1       3.741   5.974  17.517  0.00  0.00    +0.000 A 
BRANCH   9  15
ATOM     15  C   UNL     1       1.889   4.217  17.773  0.00  0.00    +0.000 C 
ATOM     16  O   UNL     1       0.933   4.504  17.062  0.00  0.00    +0.000 OA
BRANCH  15  18
ATOM     17  C   UNL     1       0.765   2.441  18.795  0.00  0.00    +0.000 C 
ATOM     18  O   UNL     1       1.854   3.365  18.825  0.00  0.00    +0.000 OA
ENDBRANCH  15  18
ENDBRANCH   9  15
ENDBRANCH   1  14
BRANCH   6  19
ATOM     19  N   UNL     1       0.247  11.976  19.790  0.00  0.00    +0.000 NA
ATOM     20  C   UNL     1       0.166  12.337  21.216  0.00  0.00    +0.000 C 
ATOM     21  C   UNL     1       0.657  13.756  21.504  0.00  0.00    +0.000 C 
ATOM     22  C   UNL     1       2.075  13.944  20.989  0.00  0.00    +0.000 C 
ATOM     23  C   UNL     1       2.108  13.636  19.502  0.00  0.00    +0.000 C 
ATOM     24  C   UNL     1       1.569  12.234  19.215  0.00  0.00    +0.000 C 
ENDBRANCH   6  19
BRANCH   2  25
ATOM     25  S   UNL     1       2.773   6.265  20.425  0.00  0.00    +0.000 S 
ATOM     26  H   UNL     1       3.332   7.264  21.122  0.00  0.00    +0.000 HD
ENDBRANCH   2  25
TORSDOF 5
ENDMDL
