MODEL 1
REMARK VINA RESULT:      -8.2      0.000      0.000
REMARK  Name = 
REMARK  5 active torsions:
REMARK  status: ('A' for Active; 'I' for Inactive)
REMARK    1  A    between atoms: C_1  and  C_2
REMARK    2  A    between atoms: C_4  and  O_5
REMARK    3  A    between atoms: C_13  and  O_14
REMARK    4  A    between atoms: C_15  and  C_16
REMARK    5  A    between atoms: C_22  and  O_23
REMARK                            x       y       z     vdW  Elec       q    Type
REMARK                         _______ _______ _______ _____ _____    ______ ____
ROOT
ATOM      1  C   UNL     1      -0.783   9.356  22.951  0.00  0.00    +0.000 C 
ATOM      2  C   UNL     1       0.047   9.129  21.726  0.00  0.00    +0.000 A 
ATOM      3  C   UNL     1       0.146  10.093  20.722  0.00  0.00    +0.000 A 
ATOM      4  C   UNL     1       0.927   9.853  19.579  0.00  0.00    +0.000 A 
ATOM      5  C   UNL     1       1.622   8.644  19.418  0.00  0.00    +0.000 A 
ATOM      6  C   UNL     1       1.519   7.691  20.430  0.00  0.00    +0.000 A 
ATOM      7  C   UNL     1       0.738   7.927  21.573  0.00  0.00    +0.000 A 
ATOM      8  C   UNL     1       2.224   6.406  20.329  0.00  0.00    +0.000 C 
ATOM      9  O   UNL     1       2.115   5.566  21.218  0.00  0.00    +0.000 OA
ATOM     10  C   UNL     1       3.063   6.128  19.155  0.00  0.00    +0.000 A 
ATOM     11  C   UNL     1       3.727   4.900  19.106  0.00  0.00    +0.000 A 
ATOM     12  C   UNL     1       4.532   4.581  18.015  0.00  0.00    +0.000 A 
ATOM     13  C   UNL     1       4.695   5.462  16.922  0.00  0.00    +0.000 A 
ATOM     14  C   UNL     1       3.992   6.698  17.006  0.00  0.00    +0.000 A 
ATOM     15  C   UNL     1       3.187   7.048  18.123  0.00  0.00    +0.000 A 
ATOM     16  C   UNL     1       2.448   8.346  18.210  0.00  0.00    +0.000 C 
ATOM     17  O   UNL     1       2.506   9.157  17.295  0.00  0.00    +0.000 OA
ENDROOT
BRANCH  13  18
ATOM     18  C   UNL     1       5.555   5.098  15.755  0.00  0.00    +0.000 A 
ATOM     19  C   UNL     1       5.090   4.326  14.676  0.00  0.00    +0.000 A 
ATOM     20  C   UNL     1       5.941   3.956  13.633  0.00  0.00    +0.000 A 
ATOM     21  C   UNL     1       7.243   4.415  13.653  0.00  0.00    +0.000 A 
ATOM     22  N   UNL     1       7.742   5.178  14.642  0.00  0.00    +0.000 NA
ATOM     23  C   UNL     1       6.896   5.489  15.658  0.00  0.00    +0.000 A 
ENDBRANCH  13  18
BRANCH   4  24
ATOM     24  O   UNL     1       0.989  10.836  18.635  0.00  0.00    +0.000 OA
ATOM     25  H   UNL     1       0.540  10.565  17.819  0.00  0.00    +0.000 HD
ENDBRANCH   4  24
BRANCH  12  26
ATOM     26  O   UNL     1       5.189   3.379  18.040  0.00  0.00    +0.000 OA
ATOM     27  H   UNL     1       5.874   3.383  18.732  0.00  0.00    +0.000 HD
ENDBRANCH  12  26
BRANCH  14  28
ATOM     28  O   UNL     1       4.071   7.601  15.973  0.00  0.00    +0.000 OA
ATOM     29  H   UNL     1       4.995   7.849  15.819  0.00  0.00    +0.000 HD
ENDBRANCH  14  28
TORSDOF 4
ENDMDL
MODEL 2
REMARK VINA RESULT:      -7.5      1.205      1.565
REMARK  Name = 
REMARK  5 active torsions:
REMARK  status: ('A' for Active; 'I' for Inactive)
REMARK    1  A    between atoms: C_1  and  C_2
REMARK    2  A    between atoms: C_4  and  O_5
REMARK    3  A    between atoms: C_13  and  O_14
REMARK    4  A    between atoms: C_15  and  C_16
REMARK    5  A    between atoms: C_22  and  O_23
REMARK                            x       y       z     vdW  Elec       q    Type
REMARK                         _______ _______ _______ _____ _____    ______ ____
ROOT
ATOM      1  C   UNL     1      -1.683  11.438  22.383  0.00  0.00    +0.000 C 
ATOM      2  C   UNL     1      -0.757  10.931  21.322  0.00  0.00    +0.000 A 
ATOM      3  C   UNL     1      -0.497  11.668  20.166  0.00  0.00    +0.000 A 
ATOM      4  C   UNL     1       0.371  11.168  19.183  0.00  0.00    +0.000 A 
ATOM      5  C   UNL     1       0.996   9.919  19.335  0.00  0.00    +0.000 A 
ATOM      6  C   UNL     1       0.731   9.194  20.496  0.00  0.00    +0.000 A 
ATOM      7  C   UNL     1      -0.137   9.691  21.481  0.00  0.00    +0.000 A 
ATOM      8  C   UNL     1       1.355   7.883  20.723  0.00  0.00    +0.000 C 
ATOM      9  O   UNL     1       1.104   7.245  21.742  0.00  0.00    +0.000 OA
ATOM     10  C   UNL     1       2.282   7.336  19.723  0.00  0.00    +0.000 A 
ATOM     11  C   UNL     1       2.863   6.093  19.985  0.00  0.00    +0.000 A 
ATOM     12  C   UNL     1       3.745   5.525  19.070  0.00  0.00    +0.000 A 
ATOM     13  C   UNL     1       4.071   6.159  17.851  0.00  0.00    +0.000 A 
ATOM     14  C   UNL     1       3.449   7.419  17.617  0.00  0.00    +0.000 A 
ATOM     15  C   UNL     1       2.566   8.024  18.551  0.00  0.00    +0.000 A 
ATOM     16  C   UNL     1       1.912   9.346  18.304  0.00  0.00    +0.000 C 
ATOM     17  O   UNL     1       2.112   9.954  17.260  0.00  0.00    +0.000 OA
ENDROOT
BRANCH  13  18
ATOM     18  C   UNL     1       5.013   5.528  16.876  0.00  0.00    +0.000 A 
ATOM     19  C   UNL     1       4.677   4.396  16.115  0.00  0.00    +0.000 A 
ATOM     20  C   UNL     1       5.604   3.799  15.259  0.00  0.00    +0.000 A 
ATOM     21  C   UNL     1       6.849   4.382  15.130  0.00  0.00    +0.000 A 
ATOM     22  N   UNL     1       7.224   5.481  15.809  0.00  0.00    +0.000 NA
ATOM     23  C   UNL     1       6.309   6.014  16.659  0.00  0.00    +0.000 A 
ENDBRANCH  13  18
BRANCH   4  24
ATOM     24  O   UNL     1       0.590  11.937  18.077  0.00  0.00    +0.000 OA
ATOM     25  H   UNL     1      -0.176  12.501  17.887  0.00  0.00    +0.000 HD
ENDBRANCH   4  24
BRANCH  12  26
ATOM     26  O   UNL     1       4.314   4.322  19.399  0.00  0.00    +0.000 OA
ATOM     27  H   UNL     1       4.068   4.070  20.306  0.00  0.00    +0.000 HD
ENDBRANCH  12  26
BRANCH  14  28
ATOM     28  O   UNL     1       3.687   8.092  16.443  0.00  0.00    +0.000 OA
ATOM     29  H   UNL     1       3.389   7.561  15.688  0.00  0.00    +0.000 HD
ENDBRANCH  14  28
TORSDOF 4
ENDMDL
MODEL 3
REMARK VINA RESULT:      -7.5      2.733      4.358
REMARK  Name = 
REMARK  5 active torsions:
REMARK  status: ('A' for Active; 'I' for Inactive)
REMARK    1  A    between atoms: C_1  and  C_2
REMARK    2  A    between atoms: C_4  and  O_5
REMARK    3  A    between atoms: C_13  and  O_14
REMARK    4  A    between atoms: C_15  and  C_16
REMARK    5  A    between atoms: C_22  and  O_23
REMARK                            x       y       z     vdW  Elec       q    Type
REMARK                         _______ _______ _______ _____ _____    ______ ____
ROOT
ATOM      1  C   UNL     1      -0.475  14.280  19.796  0.00  0.00    +0.000 C 
ATOM      2  C   UNL     1      -0.139  12.846  20.065  0.00  0.00    +0.000 A 
ATOM      3  C   UNL     1      -0.609  12.186  21.200  0.00  0.00    +0.000 A 
ATOM      4  C   UNL     1      -0.274  10.842  21.432  0.00  0.00    +0.000 A 
ATOM      5  C   UNL     1       0.539  10.132  20.533  0.00  0.00    +0.000 A 
ATOM      6  C   UNL     1       0.998  10.802  19.400  0.00  0.00    +0.000 A 
ATOM      7  C   UNL     1       0.666  12.146  19.166  0.00  0.00    +0.000 A 
ATOM      8  C   UNL     1       1.847  10.119  18.415  0.00  0.00    +0.000 C 
ATOM      9  O   UNL     1       2.260  10.722  17.427  0.00  0.00    +0.000 OA
ATOM     10  C   UNL     1       2.204   8.708  18.616  0.00  0.00    +0.000 A 
ATOM     11  C   UNL     1       3.003   8.093  17.648  0.00  0.00    +0.000 A 
ATOM     12  C   UNL     1       3.375   6.759  17.791  0.00  0.00    +0.000 A 
ATOM     13  C   UNL     1       2.984   5.988  18.908  0.00  0.00    +0.000 A 
ATOM     14  C   UNL     1       2.181   6.655  19.877  0.00  0.00    +0.000 A 
ATOM     15  C   UNL     1       1.772   8.008  19.734  0.00  0.00    +0.000 A 
ATOM     16  C   UNL     1       0.930   8.708  20.754  0.00  0.00    +0.000 C 
ATOM     17  O   UNL     1       0.571   8.127  21.769  0.00  0.00    +0.000 OA
ENDROOT
BRANCH  13  18
ATOM     18  C   UNL     1       3.402   4.560  19.048  0.00  0.00    +0.000 A 
ATOM     19  C   UNL     1       2.566   3.483  18.704  0.00  0.00    +0.000 A 
ATOM     20  C   UNL     1       2.969   2.162  18.905  0.00  0.00    +0.000 A 
ATOM     21  C   UNL     1       4.238   1.930  19.398  0.00  0.00    +0.000 A 
ATOM     22  N   UNL     1       5.096   2.915  19.721  0.00  0.00    +0.000 NA
ATOM     23  C   UNL     1       4.657   4.188  19.546  0.00  0.00    +0.000 A 
ENDBRANCH  13  18
BRANCH   4  24
ATOM     24  O   UNL     1      -0.768  10.249  22.558  0.00  0.00    +0.000 OA
ATOM     25  H   UNL     1      -1.539  10.730  22.896  0.00  0.00    +0.000 HD
ENDBRANCH   4  24
BRANCH  12  26
ATOM     26  O   UNL     1       4.126   6.200  16.790  0.00  0.00    +0.000 OA
ATOM     27  H   UNL     1       4.526   6.896  16.240  0.00  0.00    +0.000 HD
ENDBRANCH  12  26
BRANCH  14  28
ATOM     28  O   UNL     1       1.781   5.988  21.010  0.00  0.00    +0.000 OA
ATOM     29  H   UNL     1       1.223   5.232  20.771  0.00  0.00    +0.000 HD
ENDBRANCH  14  28
TORSDOF 4
ENDMDL
MODEL 4
REMARK VINA RESULT:      -7.5      2.632      4.697
REMARK  Name = 
REMARK  5 active torsions:
REMARK  status: ('A' for Active; 'I' for Inactive)
REMARK    1  A    between atoms: C_1  and  C_2
REMARK    2  A    between atoms: C_4  and  O_5
REMARK    3  A    between atoms: C_13  and  O_14
REMARK    4  A    between atoms: C_15  and  C_16
REMARK    5  A    between atoms: C_22  and  O_23
REMARK                            x       y       z     vdW  Elec       q    Type
REMARK                         _______ _______ _______ _____ _____    ______ ____
ROOT
ATOM      1  C   UNL     1      -1.579  14.591  21.744  0.00  0.00    +0.000 C 
ATOM      2  C   UNL     1      -1.043  13.195  21.680  0.00  0.00    +0.000 A 
ATOM      3  C   UNL     1      -1.228  12.293  22.728  0.00  0.00    +0.000 A 
ATOM      4  C   UNL     1      -0.710  10.990  22.646  0.00  0.00    +0.000 A 
ATOM      5  C   UNL     1       0.005  10.565  21.514  0.00  0.00    +0.000 A 
ATOM      6  C   UNL     1       0.178  11.474  20.471  0.00  0.00    +0.000 A 
ATOM      7  C   UNL     1      -0.338  12.777  20.551  0.00  0.00    +0.000 A 
ATOM      8  C   UNL     1       0.910  11.094  19.256  0.00  0.00    +0.000 C 
ATOM      9  O   UNL     1       1.071  11.907  18.349  0.00  0.00    +0.000 OA
ATOM     10  C   UNL     1       1.451   9.734  19.128  0.00  0.00    +0.000 A 
ATOM     11  C   UNL     1       2.129   9.411  17.949  0.00  0.00    +0.000 A 
ATOM     12  C   UNL     1       2.666   8.138  17.777  0.00  0.00    +0.000 A 
ATOM     13  C   UNL     1       2.569   7.142  18.774  0.00  0.00    +0.000 A 
ATOM     14  C   UNL     1       1.881   7.516  19.964  0.00  0.00    +0.000 A 
ATOM     15  C   UNL     1       1.305   8.801  20.146  0.00  0.00    +0.000 A 
ATOM     16  C   UNL     1       0.585   9.194  21.397  0.00  0.00    +0.000 C 
ATOM     17  O   UNL     1       0.479   8.405  22.327  0.00  0.00    +0.000 OA
ENDROOT
BRANCH  13  18
ATOM     18  C   UNL     1       3.161   5.784  18.574  0.00  0.00    +0.000 A 
ATOM     19  C   UNL     1       4.463   5.452  18.987  0.00  0.00    +0.000 A 
ATOM     20  C   UNL     1       5.004   4.192  18.729  0.00  0.00    +0.000 A 
ATOM     21  C   UNL     1       4.207   3.250  18.107  0.00  0.00    +0.000 A 
ATOM     22  N   UNL     1       2.946   3.496  17.711  0.00  0.00    +0.000 NA
ATOM     23  C   UNL     1       2.465   4.744  17.946  0.00  0.00    +0.000 A 
ENDBRANCH  13  18
BRANCH   4  24
ATOM     24  O   UNL     1      -0.927  10.152  23.701  0.00  0.00    +0.000 OA
ATOM     25  H   UNL     1      -1.032  10.650  24.527  0.00  0.00    +0.000 HD
ENDBRANCH   4  24
BRANCH  12  26
ATOM     26  O   UNL     1       3.285   7.867  16.584  0.00  0.00    +0.000 OA
ATOM     27  H   UNL     1       2.638   7.877  15.859  0.00  0.00    +0.000 HD
ENDBRANCH  12  26
BRANCH  14  28
ATOM     28  O   UNL     1       1.765   6.618  20.998  0.00  0.00    +0.000 OA
ATOM     29  H   UNL     1       1.502   5.749  20.656  0.00  0.00    +0.000 HD
ENDBRANCH  14  28
TORSDOF 4
ENDMDL
MODEL 5
REMARK VINA RESULT:      -7.5      1.973      3.262
REMARK  Name = 
REMARK  5 active torsions:
REMARK  status: ('A' for Active; 'I' for Inactive)
REMARK    1  A    between atoms: C_1  and  C_2
REMARK    2  A    between atoms: C_4  and  O_5
REMARK    3  A    between atoms: C_13  and  O_14
REMARK    4  A    between atoms: C_15  and  C_16
REMARK    5  A    between atoms: C_22  and  O_23
REMARK                            x       y       z     vdW  Elec       q    Type
REMARK                         _______ _______ _______ _____ _____    ______ ____
ROOT
ATOM      1  C   UNL     1      -2.461  13.323  21.982  0.00  0.00    +0.000 C 
ATOM      2  C   UNL     1      -1.544  12.522  21.112  0.00  0.00    +0.000 A 
ATOM      3  C   UNL     1      -1.105  13.000  19.877  0.00  0.00    +0.000 A 
ATOM      4  C   UNL     1      -0.248  12.226  19.078  0.00  0.00    +0.000 A 
ATOM      5  C   UNL     1       0.185  10.957  19.497  0.00  0.00    +0.000 A 
ATOM      6  C   UNL     1      -0.257  10.493  20.735  0.00  0.00    +0.000 A 
ATOM      7  C   UNL     1      -1.114  11.265  21.537  0.00  0.00    +0.000 A 
ATOM      8  C   UNL     1       0.161   9.178  21.239  0.00  0.00    +0.000 C 
ATOM      9  O   UNL     1      -0.245   8.770  22.324  0.00  0.00    +0.000 OA
ATOM     10  C   UNL     1       1.070   8.348  20.436  0.00  0.00    +0.000 A 
ATOM     11  C   UNL     1       1.454   7.110  20.958  0.00  0.00    +0.000 A 
ATOM     12  C   UNL     1       2.310   6.280  20.239  0.00  0.00    +0.000 A 
ATOM     13  C   UNL     1       2.804   6.638  18.965  0.00  0.00    +0.000 A 
ATOM     14  C   UNL     1       2.380   7.903  18.463  0.00  0.00    +0.000 A 
ATOM     15  C   UNL     1       1.528   8.771  19.196  0.00  0.00    +0.000 A 
ATOM     16  C   UNL     1       1.081  10.098  18.667  0.00  0.00    +0.000 C 
ATOM     17  O   UNL     1       1.435  10.477  17.559  0.00  0.00    +0.000 OA
ENDROOT
BRANCH  13  18
ATOM     18  C   UNL     1       3.714   5.730  18.203  0.00  0.00    +0.000 A 
ATOM     19  C   UNL     1       3.246   4.645  17.442  0.00  0.00    +0.000 A 
ATOM     20  C   UNL     1       4.131   3.782  16.793  0.00  0.00    +0.000 A 
ATOM     21  C   UNL     1       5.483   4.052  16.865  0.00  0.00    +0.000 A 
ATOM     22  N   UNL     1       5.993   5.088  17.554  0.00  0.00    +0.000 NA
ATOM     23  C   UNL     1       5.106   5.885  18.203  0.00  0.00    +0.000 A 
ENDBRANCH  13  18
BRANCH   4  24
ATOM     24  O   UNL     1       0.151  12.750  17.882  0.00  0.00    +0.000 OA
ATOM     25  H   UNL     1      -0.348  12.361  17.147  0.00  0.00    +0.000 HD
ENDBRANCH   4  24
BRANCH  12  26
ATOM     26  O   UNL     1       2.682   5.096  20.819  0.00  0.00    +0.000 OA
ATOM     27  H   UNL     1       3.266   4.597  20.222  0.00  0.00    +0.000 HD
ENDBRANCH  12  26
BRANCH  14  28
ATOM     28  O   UNL     1       2.790   8.317  17.219  0.00  0.00    +0.000 OA
ATOM     29  H   UNL     1       2.649   9.272  17.123  0.00  0.00    +0.000 HD
ENDBRANCH  14  28
TORSDOF 4
ENDMDL
MODEL 6
REMARK VINA RESULT:      -7.4      2.259      3.949
REMARK  Name = 
REMARK  5 active torsions:
REMARK  status: ('A' for Active; 'I' for Inactive)
REMARK    1  A    between atoms: C_1  and  C_2
REMARK    2  A    between atoms: C_4  and  O_5
REMARK    3  A    between atoms: C_13  and  O_14
REMARK    4  A    between atoms: C_15  and  C_16
REMARK    5  A    between atoms: C_22  and  O_23
REMARK                            x       y       z     vdW  Elec       q    Type
REMARK                         _______ _______ _______ _____ _____    ______ ____
ROOT
ATOM      1  C   UNL     1      -2.872  13.671  23.111  0.00  0.00    +0.000 C 
ATOM      2  C   UNL     1      -2.049  12.955  22.085  0.00  0.00    +0.000 A 
ATOM      3  C   UNL     1      -1.838  13.490  20.814  0.00  0.00    +0.000 A 
ATOM      4  C   UNL     1      -1.067  12.796  19.868  0.00  0.00    +0.000 A 
ATOM      5  C   UNL     1      -0.493  11.551  20.174  0.00  0.00    +0.000 A 
ATOM      6  C   UNL     1      -0.708  11.029  21.449  0.00  0.00    +0.000 A 
ATOM      7  C   UNL     1      -1.479  11.720  22.396  0.00  0.00    +0.000 A 
ATOM      8  C   UNL     1      -0.133   9.734  21.838  0.00  0.00    +0.000 C 
ATOM      9  O   UNL     1      -0.341   9.275  22.958  0.00  0.00    +0.000 OA
ATOM     10  C   UNL     1       0.692   8.987  20.879  0.00  0.00    +0.000 A 
ATOM     11  C   UNL     1       1.231   7.767  21.295  0.00  0.00    +0.000 A 
ATOM     12  C   UNL     1       2.017   7.015  20.426  0.00  0.00    +0.000 A 
ATOM     13  C   UNL     1       2.285   7.436  19.104  0.00  0.00    +0.000 A 
ATOM     14  C   UNL     1       1.708   8.679  18.716  0.00  0.00    +0.000 A 
ATOM     15  C   UNL     1       0.925   9.470  19.598  0.00  0.00    +0.000 A 
ATOM     16  C   UNL     1       0.318  10.775  19.189  0.00  0.00    +0.000 C 
ATOM     17  O   UNL     1       0.472  11.203  18.053  0.00  0.00    +0.000 OA
ENDROOT
BRANCH  13  18
ATOM     18  C   UNL     1       3.123   6.610  18.183  0.00  0.00    +0.000 A 
ATOM     19  C   UNL     1       2.818   5.275  17.865  0.00  0.00    +0.000 A 
ATOM     20  C   UNL     1       3.658   4.517  17.048  0.00  0.00    +0.000 A 
ATOM     21  C   UNL     1       4.773   5.126  16.506  0.00  0.00    +0.000 A 
ATOM     22  N   UNL     1       5.106   6.406  16.749  0.00  0.00    +0.000 NA
ATOM     23  C   UNL     1       4.286   7.103  17.577  0.00  0.00    +0.000 A 
ENDBRANCH  13  18
BRANCH   4  24
ATOM     24  O   UNL     1      -0.892  13.373  18.644  0.00  0.00    +0.000 OA
ATOM     25  H   UNL     1      -0.428  14.222  18.721  0.00  0.00    +0.000 HD
ENDBRANCH   4  24
BRANCH  12  26
ATOM     26  O   UNL     1       2.550   5.846  20.903  0.00  0.00    +0.000 OA
ATOM     27  H   UNL     1       3.424   6.010  21.298  0.00  0.00    +0.000 HD
ENDBRANCH  12  26
BRANCH  14  28
ATOM     28  O   UNL     1       1.893   9.150  17.438  0.00  0.00    +0.000 OA
ATOM     29  H   UNL     1       1.102   9.625  17.141  0.00  0.00    +0.000 HD
ENDBRANCH  14  28
TORSDOF 4
ENDMDL
MODEL 7
REMARK VINA RESULT:      -7.3      2.204      3.726
REMARK  Name = 
REMARK  5 active torsions:
REMARK  status: ('A' for Active; 'I' for Inactive)
REMARK    1  A    between atoms: C_1  and  C_2
REMARK    2  A    between atoms: C_4  and  O_5
REMARK    3  A    between atoms: C_13  and  O_14
REMARK    4  A    between atoms: C_15  and  C_16
REMARK    5  A    between atoms: C_22  and  O_23
REMARK                            x       y       z     vdW  Elec       q    Type
REMARK                         _______ _______ _______ _____ _____    ______ ____
ROOT
ATOM      1  C   UNL     1      -2.186  13.848  21.812  0.00  0.00    +0.000 C 
ATOM      2  C   UNL     1      -1.296  12.936  21.026  0.00  0.00    +0.000 A 
ATOM      3  C   UNL     1      -0.729  13.335  19.815  0.00  0.00    +0.000 A 
ATOM      4  C   UNL     1       0.099  12.458  19.094  0.00  0.00    +0.000 A 
ATOM      5  C   UNL     1       0.374  11.166  19.570  0.00  0.00    +0.000 A 
ATOM      6  C   UNL     1      -0.195  10.781  20.783  0.00  0.00    +0.000 A 
ATOM      7  C   UNL     1      -1.024  11.655  21.506  0.00  0.00    +0.000 A 
ATOM      8  C   UNL     1       0.055   9.446  21.342  0.00  0.00    +0.000 C 
ATOM      9  O   UNL     1      -0.463   9.111  22.404  0.00  0.00    +0.000 OA
ATOM     10  C   UNL     1       0.929   8.509  20.623  0.00  0.00    +0.000 A 
ATOM     11  C   UNL     1       1.151   7.255  21.197  0.00  0.00    +0.000 A 
ATOM     12  C   UNL     1       1.967   6.325  20.557  0.00  0.00    +0.000 A 
ATOM     13  C   UNL     1       2.580   6.598  19.314  0.00  0.00    +0.000 A 
ATOM     14  C   UNL     1       2.319   7.883  18.757  0.00  0.00    +0.000 A 
ATOM     15  C   UNL     1       1.510   8.851  19.409  0.00  0.00    +0.000 A 
ATOM     16  C   UNL     1       1.235  10.200  18.823  0.00  0.00    +0.000 C 
ATOM     17  O   UNL     1       1.699  10.512  17.735  0.00  0.00    +0.000 OA
ENDROOT
BRANCH  13  18
ATOM     18  C   UNL     1       3.445   5.584  18.637  0.00  0.00    +0.000 A 
ATOM     19  C   UNL     1       4.833   5.509  18.840  0.00  0.00    +0.000 A 
ATOM     20  C   UNL     1       5.617   4.587  18.144  0.00  0.00    +0.000 A 
ATOM     21  C   UNL     1       4.988   3.703  17.289  0.00  0.00    +0.000 A 
ATOM     22  N   UNL     1       3.660   3.705  17.072  0.00  0.00    +0.000 NA
ATOM     23  C   UNL     1       2.934   4.639  17.738  0.00  0.00    +0.000 A 
ENDBRANCH  13  18
BRANCH   4  24
ATOM     24  O   UNL     1       0.628  12.907  17.919  0.00  0.00    +0.000 OA
ATOM     25  H   UNL     1       1.360  13.523  18.079  0.00  0.00    +0.000 HD
ENDBRANCH   4  24
BRANCH  12  26
ATOM     26  O   UNL     1       2.179   5.127  21.186  0.00  0.00    +0.000 OA
ATOM     27  H   UNL     1       1.856   5.166  22.103  0.00  0.00    +0.000 HD
ENDBRANCH  12  26
BRANCH  14  28
ATOM     28  O   UNL     1       2.852   8.221  17.536  0.00  0.00    +0.000 OA
ATOM     29  H   UNL     1       2.345   7.800  16.825  0.00  0.00    +0.000 HD
ENDBRANCH  14  28
TORSDOF 4
ENDMDL
MODEL 8
REMARK VINA RESULT:      -7.3      3.921      9.096
REMARK  Name = 
REMARK  5 active torsions:
REMARK  status: ('A' for Active; 'I' for Inactive)
REMARK    1  A    between atoms: C_1  and  C_2
REMARK    2  A    between atoms: C_4  and  O_5
REMARK    3  A    between atoms: C_13  and  O_14
REMARK    4  A    between atoms: C_15  and  C_16
REMARK    5  A    between atoms: C_22  and  O_23
REMARK                            x       y       z     vdW  Elec       q    Type
REMARK                         _______ _______ _______ _____ _____    ______ ____
ROOT
ATOM      1  C   UNL     1       4.489   5.609  16.821  0.00  0.00    +0.000 C 
ATOM      2  C   UNL     1       3.643   6.270  17.864  0.00  0.00    +0.000 A 
ATOM      3  C   UNL     1       3.345   5.639  19.072  0.00  0.00    +0.000 A 
ATOM      4  C   UNL     1       2.544   6.278  20.031  0.00  0.00    +0.000 A 
ATOM      5  C   UNL     1       2.024   7.563  19.801  0.00  0.00    +0.000 A 
ATOM      6  C   UNL     1       2.333   8.185  18.593  0.00  0.00    +0.000 A 
ATOM      7  C   UNL     1       3.133   7.548  17.631  0.00  0.00    +0.000 A 
ATOM      8  C   UNL     1       1.828   9.531  18.289  0.00  0.00    +0.000 C 
ATOM      9  O   UNL     1       2.093  10.065  17.215  0.00  0.00    +0.000 OA
ATOM     10  C   UNL     1       1.001  10.237  19.276  0.00  0.00    +0.000 A 
ATOM     11  C   UNL     1       0.552  11.520  18.953  0.00  0.00    +0.000 A 
ATOM     12  C   UNL     1      -0.239  12.233  19.850  0.00  0.00    +0.000 A 
ATOM     13  C   UNL     1      -0.631  11.695  21.095  0.00  0.00    +0.000 A 
ATOM     14  C   UNL     1      -0.163  10.380  21.382  0.00  0.00    +0.000 A 
ATOM     15  C   UNL     1       0.665   9.649  20.489  0.00  0.00    +0.000 A 
ATOM     16  C   UNL     1       1.155   8.268  20.790  0.00  0.00    +0.000 C 
ATOM     17  O   UNL     1       0.840   7.710  21.833  0.00  0.00    +0.000 OA
ENDROOT
BRANCH  13  18
ATOM     18  C   UNL     1      -1.489  12.472  22.040  0.00  0.00    +0.000 A 
ATOM     19  C   UNL     1      -2.892  12.394  22.036  0.00  0.00    +0.000 A 
ATOM     20  C   UNL     1      -3.662  13.181  22.894  0.00  0.00    +0.000 A 
ATOM     21  C   UNL     1      -3.012  14.001  23.794  0.00  0.00    +0.000 A 
ATOM     22  N   UNL     1      -1.672  14.102  23.867  0.00  0.00    +0.000 NA
ATOM     23  C   UNL     1      -0.956  13.349  22.993  0.00  0.00    +0.000 A 
ENDBRANCH  13  18
BRANCH   4  24
ATOM     24  O   UNL     1       2.292   5.611  21.195  0.00  0.00    +0.000 OA
ATOM     25  H   UNL     1       1.344   5.618  21.403  0.00  0.00    +0.000 HD
ENDBRANCH   4  24
BRANCH  12  26
ATOM     26  O   UNL     1      -0.616  13.502  19.493  0.00  0.00    +0.000 OA
ATOM     27  H   UNL     1      -0.477  14.116  20.235  0.00  0.00    +0.000 HD
ENDBRANCH  12  26
BRANCH  14  28
ATOM     28  O   UNL     1      -0.521   9.768  22.559  0.00  0.00    +0.000 OA
ATOM     29  H   UNL     1      -1.027   8.962  22.374  0.00  0.00    +0.000 HD
ENDBRANCH  14  28
TORSDOF 4
ENDMDL
MODEL 9
REMARK VINA RESULT:      -7.3      2.435      3.880
REMARK  Name = 
REMARK  5 active torsions:
REMARK  status: ('A' for Active; 'I' for Inactive)
REMARK    1  A    between atoms: C_1  and  C_2
REMARK    2  A    between atoms: C_4  and  O_5
REMARK    3  A    between atoms: C_13  and  O_14
REMARK    4  A    between atoms: C_15  and  C_16
REMARK    5  A    between atoms: C_22  and  O_23
REMARK                            x       y       z     vdW  Elec       q    Type
REMARK                         _______ _______ _______ _____ _____    ______ ____
ROOT
ATOM      1  C   UNL     1      -0.694  14.750  21.463  0.00  0.00    +0.000 C 
ATOM      2  C   UNL     1      -0.060  13.636  20.690  0.00  0.00    +0.000 A 
ATOM      3  C   UNL     1       0.476  13.841  19.419  0.00  0.00    +0.000 A 
ATOM      4  C   UNL     1       1.060  12.778  18.712  0.00  0.00    +0.000 A 
ATOM      5  C   UNL     1       1.119  11.487  19.263  0.00  0.00    +0.000 A 
ATOM      6  C   UNL     1       0.584  11.296  20.537  0.00  0.00    +0.000 A 
ATOM      7  C   UNL     1      -0.002  12.357  21.245  0.00  0.00    +0.000 A 
ATOM      8  C   UNL     1       0.617   9.974  21.176  0.00  0.00    +0.000 C 
ATOM      9  O   UNL     1       0.129   9.811  22.292  0.00  0.00    +0.000 OA
ATOM     10  C   UNL     1       1.235   8.841  20.473  0.00  0.00    +0.000 A 
ATOM     11  C   UNL     1       1.257   7.604  21.122  0.00  0.00    +0.000 A 
ATOM     12  C   UNL     1       1.826   6.496  20.501  0.00  0.00    +0.000 A 
ATOM     13  C   UNL     1       2.380   6.567  19.203  0.00  0.00    +0.000 A 
ATOM     14  C   UNL     1       2.327   7.843  18.571  0.00  0.00    +0.000 A 
ATOM     15  C   UNL     1       1.773   8.989  19.201  0.00  0.00    +0.000 A 
ATOM     16  C   UNL     1       1.717  10.328  18.536  0.00  0.00    +0.000 C 
ATOM     17  O   UNL     1       2.145  10.476  17.399  0.00  0.00    +0.000 OA
ENDROOT
BRANCH  13  18
ATOM     18  C   UNL     1       2.978   5.364  18.549  0.00  0.00    +0.000 A 
ATOM     19  C   UNL     1       2.216   4.437  17.816  0.00  0.00    +0.000 A 
ATOM     20  C   UNL     1       2.800   3.293  17.270  0.00  0.00    +0.000 A 
ATOM     21  C   UNL     1       4.162   3.118  17.415  0.00  0.00    +0.000 A 
ATOM     22  N   UNL     1       4.951   3.980  18.080  0.00  0.00    +0.000 NA
ATOM     23  C   UNL     1       4.343   5.063  18.629  0.00  0.00    +0.000 A 
ENDBRANCH  13  18
BRANCH   4  24
ATOM     24  O   UNL     1       1.572  13.042  17.475  0.00  0.00    +0.000 OA
ATOM     25  H   UNL     1       1.411  12.304  16.866  0.00  0.00    +0.000 HD
ENDBRANCH   4  24
BRANCH  12  26
ATOM     26  O   UNL     1       1.853   5.319  21.203  0.00  0.00    +0.000 OA
ATOM     27  H   UNL     1       2.190   5.471  22.103  0.00  0.00    +0.000 HD
ENDBRANCH  12  26
BRANCH  14  28
ATOM     28  O   UNL     1       2.817   7.995  17.297  0.00  0.00    +0.000 OA
ATOM     29  H   UNL     1       2.833   8.934  17.056  0.00  0.00    +0.000 HD
ENDBRANCH  14  28
TORSDOF 4
ENDMDL
