MODEL 1
REMARK VINA RESULT:      -7.6      0.000      0.000
REMARK  Name = 
REMARK  5 active torsions:
REMARK  status: ('A' for Active; 'I' for Inactive)
REMARK    1  A    between atoms: C_1  and  O_2
REMARK    2  A    between atoms: O_2  and  C_3
REMARK    3  A    between atoms: C_6  and  N_7
REMARK    4  A    between atoms: C_8  and  C_10
REMARK    5  A    between atoms: C_13  and  C_14
REMARK                            x       y       z     vdW  Elec       q    Type
REMARK                         _______ _______ _______ _____ _____    ______ ____
ROOT
ATOM      1  C   UNL     1       4.767   4.683  16.560  0.00  0.00    +0.000 A 
ATOM      2  C   UNL     1       5.114   6.026  16.622  0.00  0.00    +0.000 A 
ATOM      3  C   UNL     1       4.376   6.903  17.412  0.00  0.00    +0.000 A 
ATOM      4  C   UNL     1       3.273   6.455  18.146  0.00  0.00    +0.000 A 
ATOM      5  C   UNL     1       2.898   5.100  18.103  0.00  0.00    +0.000 A 
ATOM      6  N   UNL     1       1.835   4.671  18.829  0.00  0.00    +0.000 NA
ATOM      7  C   UNL     1       1.501   3.361  18.771  0.00  0.00    +0.000 A 
ATOM      8  C   UNL     1       2.172   2.426  18.013  0.00  0.00    +0.000 A 
ATOM      9  C   UNL     1       3.256   2.860  17.265  0.00  0.00    +0.000 A 
ATOM     10  C   UNL     1       3.653   4.212  17.294  0.00  0.00    +0.000 A 
ENDROOT
BRANCH   4  11
ATOM     11  N   UNL     1       2.494   7.334  18.952  0.00  0.00    +0.000 N 
ATOM     12  C   UNL     1       1.909   8.527  18.570  0.00  0.00    +0.000 C 
ATOM     13  O   UNL     1       1.951   9.031  17.451  0.00  0.00    +0.000 OA
ATOM     14  H   UNL     1       2.357   7.028  19.917  0.00  0.00    +0.000 HD
BRANCH  12  15
ATOM     15  C   UNL     1       1.168   9.256  19.635  0.00  0.00    +0.000 A 
ATOM     16  C   UNL     1       1.136   8.718  20.916  0.00  0.00    +0.000 A 
ATOM     17  N   UNL     1       0.458   9.298  21.938  0.00  0.00    +0.000 NA
ATOM     18  C   UNL     1      -0.195  10.444  21.634  0.00  0.00    +0.000 A 
ATOM     19  C   UNL     1      -0.969  11.108  22.729  0.00  0.00    +0.000 C 
ATOM     20  C   UNL     1      -0.145  10.987  20.348  0.00  0.00    +0.000 A 
ATOM     21  N   UNL     1       0.527  10.413  19.316  0.00  0.00    +0.000 NA
ENDBRANCH  12  15
ENDBRANCH   4  11
BRANCH   1  23
ATOM     22  C   UNL     1       6.417   4.300  14.892  0.00  0.00    +0.000 C 
ATOM     23  O   UNL     1       5.433   3.770  15.775  0.00  0.00    +0.000 OA
ENDBRANCH   1  23
TORSDOF 3
ENDMDL
MODEL 2
REMARK VINA RESULT:      -7.6      0.594      1.047
REMARK  Name = 
REMARK  5 active torsions:
REMARK  status: ('A' for Active; 'I' for Inactive)
REMARK    1  A    between atoms: C_1  and  O_2
REMARK    2  A    between atoms: O_2  and  C_3
REMARK    3  A    between atoms: C_6  and  N_7
REMARK    4  A    between atoms: C_8  and  C_10
REMARK    5  A    between atoms: C_13  and  C_14
REMARK                            x       y       z     vdW  Elec       q    Type
REMARK                         _______ _______ _______ _____ _____    ______ ____
ROOT
ATOM      1  C   UNL     1       4.815   4.599  16.595  0.00  0.00    +0.000 A 
ATOM      2  C   UNL     1       5.186   5.936  16.646  0.00  0.00    +0.000 A 
ATOM      3  C   UNL     1       4.447   6.838  17.408  0.00  0.00    +0.000 A 
ATOM      4  C   UNL     1       3.321   6.421  18.124  0.00  0.00    +0.000 A 
ATOM      5  C   UNL     1       2.922   5.073  18.093  0.00  0.00    +0.000 A 
ATOM      6  N   UNL     1       1.837   4.673  18.801  0.00  0.00    +0.000 NA
ATOM      7  C   UNL     1       1.479   3.369  18.754  0.00  0.00    +0.000 A 
ATOM      8  C   UNL     1       2.149   2.411  18.023  0.00  0.00    +0.000 A 
ATOM      9  C   UNL     1       3.256   2.814  17.293  0.00  0.00    +0.000 A 
ATOM     10  C   UNL     1       3.677   4.159  17.312  0.00  0.00    +0.000 A 
ENDROOT
BRANCH   4  11
ATOM     11  N   UNL     1       2.542   7.325  18.901  0.00  0.00    +0.000 N 
ATOM     12  C   UNL     1       1.980   8.519  18.488  0.00  0.00    +0.000 C 
ATOM     13  O   UNL     1       2.047   9.001  17.361  0.00  0.00    +0.000 OA
ATOM     14  H   UNL     1       2.385   7.039  19.869  0.00  0.00    +0.000 HD
BRANCH  12  15
ATOM     15  C   UNL     1       1.232   9.278  19.527  0.00  0.00    +0.000 A 
ATOM     16  C   UNL     1       0.750  10.543  19.216  0.00  0.00    +0.000 A 
ATOM     17  N   UNL     1       0.087  11.316  20.112  0.00  0.00    +0.000 NA
ATOM     18  C   UNL     1      -0.081  10.777  21.342  0.00  0.00    +0.000 A 
ATOM     19  C   UNL     1      -0.795  11.603  22.365  0.00  0.00    +0.000 C 
ATOM     20  C   UNL     1       0.391   9.497  21.643  0.00  0.00    +0.000 A 
ATOM     21  N   UNL     1       1.061   8.716  20.755  0.00  0.00    +0.000 NA
ENDBRANCH  12  15
ENDBRANCH   4  11
BRANCH   1  23
ATOM     22  C   UNL     1       6.296   4.171  14.785  0.00  0.00    +0.000 C 
ATOM     23  O   UNL     1       5.481   3.664  15.837  0.00  0.00    +0.000 OA
ENDBRANCH   1  23
TORSDOF 3
ENDMDL
MODEL 3
REMARK VINA RESULT:      -7.1      2.882      7.401
REMARK  Name = 
REMARK  5 active torsions:
REMARK  status: ('A' for Active; 'I' for Inactive)
REMARK    1  A    between atoms: C_1  and  O_2
REMARK    2  A    between atoms: O_2  and  C_3
REMARK    3  A    between atoms: C_6  and  N_7
REMARK    4  A    between atoms: C_8  and  C_10
REMARK    5  A    between atoms: C_13  and  C_14
REMARK                            x       y       z     vdW  Elec       q    Type
REMARK                         _______ _______ _______ _____ _____    ______ ____
ROOT
ATOM      1  C   UNL     1       1.868   7.027  20.198  0.00  0.00    +0.000 A 
ATOM      2  C   UNL     1       2.189   7.909  19.175  0.00  0.00    +0.000 A 
ATOM      3  C   UNL     1       2.908   7.463  18.069  0.00  0.00    +0.000 A 
ATOM      4  C   UNL     1       3.325   6.132  17.970  0.00  0.00    +0.000 A 
ATOM      5  C   UNL     1       3.013   5.215  18.990  0.00  0.00    +0.000 A 
ATOM      6  N   UNL     1       3.408   3.923  18.880  0.00  0.00    +0.000 NA
ATOM      7  C   UNL     1       3.090   3.064  19.876  0.00  0.00    +0.000 A 
ATOM      8  C   UNL     1       2.387   3.419  21.008  0.00  0.00    +0.000 A 
ATOM      9  C   UNL     1       1.984   4.740  21.127  0.00  0.00    +0.000 A 
ATOM     10  C   UNL     1       2.282   5.676  20.117  0.00  0.00    +0.000 A 
ENDROOT
BRANCH   4  11
ATOM     11  N   UNL     1       4.070   5.654  16.854  0.00  0.00    +0.000 N 
ATOM     12  C   UNL     1       5.413   5.859  16.592  0.00  0.00    +0.000 C 
ATOM     13  O   UNL     1       6.202   6.483  17.293  0.00  0.00    +0.000 OA
ATOM     14  H   UNL     1       3.539   5.092  16.187  0.00  0.00    +0.000 HD
BRANCH  12  15
ATOM     15  C   UNL     1       5.925   5.258  15.330  0.00  0.00    +0.000 A 
ATOM     16  C   UNL     1       5.122   4.353  14.646  0.00  0.00    +0.000 A 
ATOM     17  N   UNL     1       5.522   3.734  13.506  0.00  0.00    +0.000 NA
ATOM     18  C   UNL     1       6.763   4.053  13.069  0.00  0.00    +0.000 A 
ATOM     19  C   UNL     1       7.250   3.381  11.824  0.00  0.00    +0.000 C 
ATOM     20  C   UNL     1       7.557   4.976  13.753  0.00  0.00    +0.000 A 
ATOM     21  N   UNL     1       7.169   5.599  14.898  0.00  0.00    +0.000 NA
ENDBRANCH  12  15
ENDBRANCH   4  11
BRANCH   1  23
ATOM     22  C   UNL     1       1.089   8.810  21.564  0.00  0.00    +0.000 C 
ATOM     23  O   UNL     1       1.189   7.408  21.332  0.00  0.00    +0.000 OA
ENDBRANCH   1  23
TORSDOF 3
ENDMDL
MODEL 4
REMARK VINA RESULT:      -6.8      3.327      7.766
REMARK  Name = 
REMARK  5 active torsions:
REMARK  status: ('A' for Active; 'I' for Inactive)
REMARK    1  A    between atoms: C_1  and  O_2
REMARK    2  A    between atoms: O_2  and  C_3
REMARK    3  A    between atoms: C_6  and  N_7
REMARK    4  A    between atoms: C_8  and  C_10
REMARK    5  A    between atoms: C_13  and  C_14
REMARK                            x       y       z     vdW  Elec       q    Type
REMARK                         _______ _______ _______ _____ _____    ______ ____
ROOT
ATOM      1  C   UNL     1       2.871   3.464  20.931  0.00  0.00    +0.000 A 
ATOM      2  C   UNL     1       3.606   2.412  20.401  0.00  0.00    +0.000 A 
ATOM      3  C   UNL     1       4.239   2.553  19.168  0.00  0.00    +0.000 A 
ATOM      4  C   UNL     1       4.140   3.743  18.441  0.00  0.00    +0.000 A 
ATOM      5  C   UNL     1       3.404   4.826  18.953  0.00  0.00    +0.000 A 
ATOM      6  N   UNL     1       3.325   5.982  18.248  0.00  0.00    +0.000 NA
ATOM      7  C   UNL     1       2.612   7.008  18.768  0.00  0.00    +0.000 A 
ATOM      8  C   UNL     1       1.950   6.954  19.976  0.00  0.00    +0.000 A 
ATOM      9  C   UNL     1       2.024   5.773  20.699  0.00  0.00    +0.000 A 
ATOM     10  C   UNL     1       2.759   4.676  20.208  0.00  0.00    +0.000 A 
ENDROOT
BRANCH   4  11
ATOM     11  N   UNL     1       4.768   3.908  17.173  0.00  0.00    +0.000 N 
ATOM     12  C   UNL     1       6.087   4.246  16.927  0.00  0.00    +0.000 C 
ATOM     13  O   UNL     1       6.954   4.450  17.771  0.00  0.00    +0.000 OA
ATOM     14  H   UNL     1       4.163   3.748  16.367  0.00  0.00    +0.000 HD
BRANCH  12  15
ATOM     15  C   UNL     1       6.465   4.374  15.493  0.00  0.00    +0.000 A 
ATOM     16  C   UNL     1       7.428   5.311  15.136  0.00  0.00    +0.000 A 
ATOM     17  N   UNL     1       7.810   5.516  13.850  0.00  0.00    +0.000 NA
ATOM     18  C   UNL     1       7.191   4.748  12.924  0.00  0.00    +0.000 A 
ATOM     19  C   UNL     1       7.571   4.953  11.492  0.00  0.00    +0.000 C 
ATOM     20  C   UNL     1       6.236   3.796  13.292  0.00  0.00    +0.000 A 
ATOM     21  N   UNL     1       5.843   3.585  14.576  0.00  0.00    +0.000 NA
ENDBRANCH  12  15
ENDBRANCH   4  11
BRANCH   1  23
ATOM     22  C   UNL     1       1.122   2.447  22.178  0.00  0.00    +0.000 C 
ATOM     23  O   UNL     1       2.196   3.381  22.126  0.00  0.00    +0.000 OA
ENDBRANCH   1  23
TORSDOF 3
ENDMDL
MODEL 5
REMARK VINA RESULT:      -6.8      3.277      7.845
REMARK  Name = 
REMARK  5 active torsions:
REMARK  status: ('A' for Active; 'I' for Inactive)
REMARK    1  A    between atoms: C_1  and  O_2
REMARK    2  A    between atoms: O_2  and  C_3
REMARK    3  A    between atoms: C_6  and  N_7
REMARK    4  A    between atoms: C_8  and  C_10
REMARK    5  A    between atoms: C_13  and  C_14
REMARK                            x       y       z     vdW  Elec       q    Type
REMARK                         _______ _______ _______ _____ _____    ______ ____
ROOT
ATOM      1  C   UNL     1       2.753   3.825  20.524  0.00  0.00    +0.000 A 
ATOM      2  C   UNL     1       3.400   2.716  19.995  0.00  0.00    +0.000 A 
ATOM      3  C   UNL     1       4.051   2.807  18.767  0.00  0.00    +0.000 A 
ATOM      4  C   UNL     1       4.059   4.004  18.044  0.00  0.00    +0.000 A 
ATOM      5  C   UNL     1       3.414   5.144  18.556  0.00  0.00    +0.000 A 
ATOM      6  N   UNL     1       3.438   6.305  17.855  0.00  0.00    +0.000 NA
ATOM      7  C   UNL     1       2.812   7.386  18.375  0.00  0.00    +0.000 A 
ATOM      8  C   UNL     1       2.139   7.384  19.579  0.00  0.00    +0.000 A 
ATOM      9  C   UNL     1       2.107   6.199  20.297  0.00  0.00    +0.000 A 
ATOM     10  C   UNL     1       2.749   5.044  19.806  0.00  0.00    +0.000 A 
ENDROOT
BRANCH   4  11
ATOM     11  N   UNL     1       4.708   4.120  16.782  0.00  0.00    +0.000 N 
ATOM     12  C   UNL     1       6.051   4.348  16.546  0.00  0.00    +0.000 C 
ATOM     13  O   UNL     1       6.926   4.476  17.397  0.00  0.00    +0.000 OA
ATOM     14  H   UNL     1       4.097   4.013  15.970  0.00  0.00    +0.000 HD
BRANCH  12  15
ATOM     15  C   UNL     1       6.450   4.448  15.115  0.00  0.00    +0.000 A 
ATOM     16  C   UNL     1       5.771   3.681  14.176  0.00  0.00    +0.000 A 
ATOM     17  N   UNL     1       6.090   3.686  12.857  0.00  0.00    +0.000 NA
ATOM     18  C   UNL     1       7.120   4.490  12.505  0.00  0.00    +0.000 A 
ATOM     19  C   UNL     1       7.514   4.513  11.062  0.00  0.00    +0.000 C 
ATOM     20  C   UNL     1       7.787   5.271  13.452  0.00  0.00    +0.000 A 
ATOM     21  N   UNL     1       7.479   5.271  14.776  0.00  0.00    +0.000 NA
ENDBRANCH  12  15
ENDBRANCH   4  11
BRANCH   1  23
ATOM     22  C   UNL     1       1.342   2.599  21.994  0.00  0.00    +0.000 C 
ATOM     23  O   UNL     1       2.064   3.795  21.715  0.00  0.00    +0.000 OA
ENDBRANCH   1  23
TORSDOF 3
ENDMDL
MODEL 6
REMARK VINA RESULT:      -6.7      2.871      7.399
REMARK  Name = 
REMARK  5 active torsions:
REMARK  status: ('A' for Active; 'I' for Inactive)
REMARK    1  A    between atoms: C_1  and  O_2
REMARK    2  A    between atoms: O_2  and  C_3
REMARK    3  A    between atoms: C_6  and  N_7
REMARK    4  A    between atoms: C_8  and  C_10
REMARK    5  A    between atoms: C_13  and  C_14
REMARK                            x       y       z     vdW  Elec       q    Type
REMARK                         _______ _______ _______ _____ _____    ______ ____
ROOT
ATOM      1  C   UNL     1       1.811   6.968  20.301  0.00  0.00    +0.000 A 
ATOM      2  C   UNL     1       2.139   7.860  19.289  0.00  0.00    +0.000 A 
ATOM      3  C   UNL     1       2.864   7.426  18.182  0.00  0.00    +0.000 A 
ATOM      4  C   UNL     1       3.282   6.096  18.072  0.00  0.00    +0.000 A 
ATOM      5  C   UNL     1       2.963   5.169  19.080  0.00  0.00    +0.000 A 
ATOM      6  N   UNL     1       3.359   3.877  18.959  0.00  0.00    +0.000 NA
ATOM      7  C   UNL     1       3.034   3.008  19.944  0.00  0.00    +0.000 A 
ATOM      8  C   UNL     1       2.325   3.351  21.075  0.00  0.00    +0.000 A 
ATOM      9  C   UNL     1       1.921   4.672  21.206  0.00  0.00    +0.000 A 
ATOM     10  C   UNL     1       2.226   5.618  20.207  0.00  0.00    +0.000 A 
ENDROOT
BRANCH   4  11
ATOM     11  N   UNL     1       4.034   5.630  16.956  0.00  0.00    +0.000 N 
ATOM     12  C   UNL     1       5.398   5.742  16.757  0.00  0.00    +0.000 C 
ATOM     13  O   UNL     1       6.204   6.257  17.527  0.00  0.00    +0.000 OA
ATOM     14  H   UNL     1       3.489   5.156  16.235  0.00  0.00    +0.000 HD
BRANCH  12  15
ATOM     15  C   UNL     1       5.915   5.182  15.479  0.00  0.00    +0.000 A 
ATOM     16  C   UNL     1       7.128   5.647  14.986  0.00  0.00    +0.000 A 
ATOM     17  N   UNL     1       7.657   5.215  13.814  0.00  0.00    +0.000 NA
ATOM     18  C   UNL     1       6.925   4.295  13.143  0.00  0.00    +0.000 A 
ATOM     19  C   UNL     1       7.465   3.804  11.837  0.00  0.00    +0.000 C 
ATOM     20  C   UNL     1       5.715   3.820  13.652  0.00  0.00    +0.000 A 
ATOM     21  N   UNL     1       5.173   4.248  14.824  0.00  0.00    +0.000 NA
ENDBRANCH  12  15
ENDBRANCH   4  11
BRANCH   1  23
ATOM     22  C   UNL     1       0.643   8.676  21.469  0.00  0.00    +0.000 C 
ATOM     23  O   UNL     1       1.125   7.337  21.434  0.00  0.00    +0.000 OA
ENDBRANCH   1  23
TORSDOF 3
ENDMDL
MODEL 7
REMARK VINA RESULT:      -6.6      1.587      1.717
REMARK  Name = 
REMARK  5 active torsions:
REMARK  status: ('A' for Active; 'I' for Inactive)
REMARK    1  A    between atoms: C_1  and  O_2
REMARK    2  A    between atoms: O_2  and  C_3
REMARK    3  A    between atoms: C_6  and  N_7
REMARK    4  A    between atoms: C_8  and  C_10
REMARK    5  A    between atoms: C_13  and  C_14
REMARK                            x       y       z     vdW  Elec       q    Type
REMARK                         _______ _______ _______ _____ _____    ______ ____
ROOT
ATOM      1  C   UNL     1       4.525   5.082  17.862  0.00  0.00    +0.000 A 
ATOM      2  C   UNL     1       4.536   6.320  17.233  0.00  0.00    +0.000 A 
ATOM      3  C   UNL     1       3.662   7.322  17.647  0.00  0.00    +0.000 A 
ATOM      4  C   UNL     1       2.757   7.101  18.690  0.00  0.00    +0.000 A 
ATOM      5  C   UNL     1       2.723   5.858  19.346  0.00  0.00    +0.000 A 
ATOM      6  N   UNL     1       1.852   5.656  20.366  0.00  0.00    +0.000 NA
ATOM      7  C   UNL     1       1.846   4.451  20.981  0.00  0.00    +0.000 A 
ATOM      8  C   UNL     1       2.671   3.402  20.633  0.00  0.00    +0.000 A 
ATOM      9  C   UNL     1       3.560   3.602  19.588  0.00  0.00    +0.000 A 
ATOM     10  C   UNL     1       3.615   4.840  18.917  0.00  0.00    +0.000 A 
ENDROOT
BRANCH   4  11
ATOM     11  N   UNL     1       1.846   8.106  19.125  0.00  0.00    +0.000 N 
ATOM     12  C   UNL     1       1.553   9.303  18.498  0.00  0.00    +0.000 C 
ATOM     13  O   UNL     1       2.026   9.701  17.438  0.00  0.00    +0.000 OA
ATOM     14  H   UNL     1       1.356   7.898  19.997  0.00  0.00    +0.000 HD
BRANCH  12  15
ATOM     15  C   UNL     1       0.572  10.178  19.196  0.00  0.00    +0.000 A 
ATOM     16  C   UNL     1       0.884  10.654  20.463  0.00  0.00    +0.000 A 
ATOM     17  N   UNL     1       0.035  11.430  21.184  0.00  0.00    +0.000 NA
ATOM     18  C   UNL     1      -1.147  11.715  20.590  0.00  0.00    +0.000 A 
ATOM     19  C   UNL     1      -2.119  12.555  21.357  0.00  0.00    +0.000 C 
ATOM     20  C   UNL     1      -1.447  11.247  19.309  0.00  0.00    +0.000 A 
ATOM     21  N   UNL     1      -0.606  10.466  18.579  0.00  0.00    +0.000 NA
ENDBRANCH  12  15
ENDBRANCH   4  11
BRANCH   1  23
ATOM     22  C   UNL     1       5.677   3.979  16.099  0.00  0.00    +0.000 C 
ATOM     23  O   UNL     1       5.338   4.040  17.481  0.00  0.00    +0.000 OA
ENDBRANCH   1  23
TORSDOF 3
ENDMDL
MODEL 8
REMARK VINA RESULT:      -6.6      1.940      3.303
REMARK  Name = 
REMARK  5 active torsions:
REMARK  status: ('A' for Active; 'I' for Inactive)
REMARK    1  A    between atoms: C_1  and  O_2
REMARK    2  A    between atoms: O_2  and  C_3
REMARK    3  A    between atoms: C_6  and  N_7
REMARK    4  A    between atoms: C_8  and  C_10
REMARK    5  A    between atoms: C_13  and  C_14
REMARK                            x       y       z     vdW  Elec       q    Type
REMARK                         _______ _______ _______ _____ _____    ______ ____
ROOT
ATOM      1  C   UNL     1       3.611   3.770  19.154  0.00  0.00    +0.000 A 
ATOM      2  C   UNL     1       2.670   4.103  20.119  0.00  0.00    +0.000 A 
ATOM      3  C   UNL     1       2.158   5.397  20.179  0.00  0.00    +0.000 A 
ATOM      4  C   UNL     1       2.584   6.381  19.282  0.00  0.00    +0.000 A 
ATOM      5  C   UNL     1       3.535   6.074  18.293  0.00  0.00    +0.000 A 
ATOM      6  N   UNL     1       3.932   7.030  17.418  0.00  0.00    +0.000 NA
ATOM      7  C   UNL     1       4.846   6.703  16.475  0.00  0.00    +0.000 A 
ATOM      8  C   UNL     1       5.409   5.451  16.347  0.00  0.00    +0.000 A 
ATOM      9  C   UNL     1       5.009   4.470  17.242  0.00  0.00    +0.000 A 
ATOM     10  C   UNL     1       4.055   4.754  18.239  0.00  0.00    +0.000 A 
ENDROOT
BRANCH   4  11
ATOM     11  N   UNL     1       2.084   7.714  19.330  0.00  0.00    +0.000 N 
ATOM     12  C   UNL     1       1.454   8.337  20.392  0.00  0.00    +0.000 C 
ATOM     13  O   UNL     1       1.228   7.844  21.492  0.00  0.00    +0.000 OA
ATOM     14  H   UNL     1       2.222   8.259  18.477  0.00  0.00    +0.000 HD
BRANCH  12  15
ATOM     15  C   UNL     1       1.011   9.738  20.151  0.00  0.00    +0.000 A 
ATOM     16  C   UNL     1       0.559  10.089  18.885  0.00  0.00    +0.000 A 
ATOM     17  N   UNL     1       0.167  11.349  18.569  0.00  0.00    +0.000 NA
ATOM     18  C   UNL     1       0.245  12.256  19.571  0.00  0.00    +0.000 A 
ATOM     19  C   UNL     1      -0.163  13.662  19.261  0.00  0.00    +0.000 C 
ATOM     20  C   UNL     1       0.684  11.892  20.846  0.00  0.00    +0.000 A 
ATOM     21  N   UNL     1       1.083  10.634  21.172  0.00  0.00    +0.000 NA
ENDBRANCH  12  15
ENDBRANCH   4  11
BRANCH   1  23
ATOM     22  C   UNL     1       3.339   1.482  18.572  0.00  0.00    +0.000 C 
ATOM     23  O   UNL     1       4.180   2.522  19.060  0.00  0.00    +0.000 OA
ENDBRANCH   1  23
TORSDOF 3
ENDMDL
MODEL 9
REMARK VINA RESULT:      -6.6      1.547      1.890
REMARK  Name = 
REMARK  5 active torsions:
REMARK  status: ('A' for Active; 'I' for Inactive)
REMARK    1  A    between atoms: C_1  and  O_2
REMARK    2  A    between atoms: O_2  and  C_3
REMARK    3  A    between atoms: C_6  and  N_7
REMARK    4  A    between atoms: C_8  and  C_10
REMARK    5  A    between atoms: C_13  and  C_14
REMARK                            x       y       z     vdW  Elec       q    Type
REMARK                         _______ _______ _______ _____ _____    ______ ____
ROOT
ATOM      1  C   UNL     1       4.497   5.195  17.673  0.00  0.00    +0.000 A 
ATOM      2  C   UNL     1       4.452   6.461  17.106  0.00  0.00    +0.000 A 
ATOM      3  C   UNL     1       3.600   7.431  17.628  0.00  0.00    +0.000 A 
ATOM      4  C   UNL     1       2.772   7.149  18.720  0.00  0.00    +0.000 A 
ATOM      5  C   UNL     1       2.797   5.876  19.316  0.00  0.00    +0.000 A 
ATOM      6  N   UNL     1       2.002   5.614  20.383  0.00  0.00    +0.000 NA
ATOM      7  C   UNL     1       2.051   4.381  20.938  0.00  0.00    +0.000 A 
ATOM      8  C   UNL     1       2.859   3.361  20.483  0.00  0.00    +0.000 A 
ATOM      9  C   UNL     1       3.671   3.621  19.389  0.00  0.00    +0.000 A 
ATOM     10  C   UNL     1       3.666   4.890  18.777  0.00  0.00    +0.000 A 
ENDROOT
BRANCH   4  11
ATOM     11  N   UNL     1       1.884   8.119  19.265  0.00  0.00    +0.000 N 
ATOM     12  C   UNL     1       1.418   9.269  18.654  0.00  0.00    +0.000 C 
ATOM     13  O   UNL     1       1.685   9.645  17.517  0.00  0.00    +0.000 OA
ATOM     14  H   UNL     1       1.559   7.924  20.213  0.00  0.00    +0.000 HD
BRANCH  12  15
ATOM     15  C   UNL     1       0.513  10.118  19.475  0.00  0.00    +0.000 A 
ATOM     16  C   UNL     1      -0.659  10.597  18.901  0.00  0.00    +0.000 A 
ATOM     17  N   UNL     1      -1.525  11.402  19.566  0.00  0.00    +0.000 NA
ATOM     18  C   UNL     1      -1.177  11.718  20.835  0.00  0.00    +0.000 A 
ATOM     19  C   UNL     1      -2.097  12.617  21.599  0.00  0.00    +0.000 C 
ATOM     20  C   UNL     1      -0.006  11.220  21.411  0.00  0.00    +0.000 A 
ATOM     21  N   UNL     1       0.871  10.416  20.754  0.00  0.00    +0.000 NA
ENDBRANCH  12  15
ENDBRANCH   4  11
BRANCH   1  23
ATOM     22  C   UNL     1       6.694   4.432  17.179  0.00  0.00    +0.000 C 
ATOM     23  O   UNL     1       5.292   4.182  17.187  0.00  0.00    +0.000 OA
ENDBRANCH   1  23
TORSDOF 3
ENDMDL
