MODEL 1
REMARK VINA RESULT:      -8.2      0.000      0.000
REMARK  Name = 
REMARK  12 active torsions:
REMARK  status: ('A' for Active; 'I' for Inactive)
REMARK    1  A    between atoms: CE_1  and  SD_2
REMARK    2  A    between atoms: SD_2  and  CG_3
REMARK    3  A    between atoms: CG_3  and  CB_4
REMARK    4  A    between atoms: CB_4  and  CA_5
REMARK    5  A    between atoms: CA_5  and  N_6
REMARK    6  A    between atoms: CA_5  and  C_34
REMARK    7  A    between atoms: C_7  and  C_9
REMARK    8  A    between atoms: C_12  and  C_13
REMARK    9  A    between atoms: C_14  and  C_15
REMARK   10  A    between atoms: C_26  and  C_27
REMARK   11  A    between atoms: C_32  and  C_33
REMARK   12  A    between atoms: C_34  and  OXT_36
REMARK                            x       y       z     vdW  Elec       q    Type
REMARK                         _______ _______ _______ _____ _____    ______ ____
ROOT
ATOM      1  C   UNK A   0      -0.795  11.377  22.432  0.00  0.00    +0.000 A 
ATOM      2  C   UNK A   0      -0.854  10.173  23.157  0.00  0.00    +0.000 A 
ATOM      3  C   UNK A   0      -0.155   8.988  22.733  0.00  0.00    +0.000 A 
ATOM      4  C   UNK A   0       0.672   8.944  21.589  0.00  0.00    +0.000 A 
ATOM      5  C   UNK A   0       0.834  10.203  20.972  0.00  0.00    +0.000 A 
ATOM      6  C   UNK A   0       0.087  11.405  21.297  0.00  0.00    +0.000 A 
ENDROOT
BRANCH   6   7
ATOM      7  C   UNK A   0       0.288  12.623  20.417  0.00  0.00    +0.000 A 
ATOM      8  C   UNK A   0       1.352  13.519  20.680  0.00  0.00    +0.000 A 
ATOM      9  C   UNK A   0       1.540  14.709  19.966  0.00  0.00    +0.000 A 
ATOM     10  C   UNK A   0       0.714  15.013  18.900  0.00  0.00    +0.000 A 
ATOM     11  C   UNK A   0      -0.301  14.130  18.557  0.00  0.00    +0.000 A 
ATOM     12  C   UNK A   0      -0.545  12.955  19.306  0.00  0.00    +0.000 A 
ATOM     13  C   UNK A   0      -1.694  12.113  18.806  0.00  0.00    +0.000 C 
ENDBRANCH   6   7
BRANCH   1  15
ATOM     14  N   MET A   1      -3.090  12.533  22.371  0.00  0.00    +0.000 N 
ATOM     15  C   UNK A   0      -1.752  12.537  22.792  0.00  0.00    +0.000 C 
ATOM     16  O   UNK A   0      -1.329  13.486  23.462  0.00  0.00    +0.000 OA
ATOM     17  H   MET A   1      -3.436  11.731  21.855  0.00  0.00    +0.000 HD
BRANCH  14  18
ATOM     18  CA  MET A   1      -4.166  13.442  22.941  0.00  0.00    +0.000 C 
BRANCH  18  19
ATOM     19  C   MET A   1      -4.464  13.041  24.403  0.00  0.00    +0.000 C 
ATOM     20  O   MET A   1      -5.181  12.097  24.713  0.00  0.00    +0.000 OA
BRANCH  19  21
ATOM     21  OXT MET A   1      -3.884  13.822  25.348  0.00  0.00    +0.000 OA
ATOM     22  HXT MET A   1      -4.430  14.553  25.710  0.00  0.00    +0.000 HD
ENDBRANCH  19  21
ENDBRANCH  18  19
BRANCH  18  23
ATOM     23  CB  MET A   1      -5.502  13.435  22.155  0.00  0.00    +0.000 C 
BRANCH  23  24
ATOM     24  CG  MET A   1      -6.467  14.619  22.386  0.00  0.00    +0.000 C 
BRANCH  24  26
ATOM     25  CE  MET A   1      -6.242  14.483  19.621  0.00  0.00    +0.000 C 
ATOM     26  SD  MET A   1      -6.819  15.630  20.907  0.00  0.00    +0.000 S 
ENDBRANCH  24  26
ENDBRANCH  23  24
ENDBRANCH  18  23
ENDBRANCH  14  18
ENDBRANCH   1  15
BRANCH   4  27
ATOM     27  C   UNK A   0       1.336   7.633  21.080  0.00  0.00    +0.000 C 
ATOM     28  C   UNK A   0       2.179   7.384  20.016  0.00  0.00    +0.000 C 
BRANCH  28  29
ATOM     29  C   UNK A   0       2.899   6.052  19.604  0.00  0.00    +0.000 A 
ATOM     30  C   UNK A   0       3.721   6.150  18.497  0.00  0.00    +0.000 A 
ATOM     31  N   UNK A   0       3.624   5.328  17.424  0.00  0.00    +0.000 NA
ATOM     32  C   UNK A   0       2.580   4.455  17.430  0.00  0.00    +0.000 A 
ATOM     33  C   UNK A   0       1.783   4.196  18.528  0.00  0.00    +0.000 A 
ATOM     34  C   UNK A   0       0.988   3.035  18.491  0.00  0.00    +0.000 A 
ATOM     35  C   UNK A   0       1.258   2.050  19.417  0.00  0.00    +0.000 A 
ATOM     36  C   UNK A   0       2.222   2.323  20.373  0.00  0.00    +0.000 A 
ATOM     37  C   UNK A   0       2.691   3.659  20.547  0.00  0.00    +0.000 A 
ATOM     38  C   UNK A   0       2.295   4.758  19.690  0.00  0.00    +0.000 A 
ENDBRANCH  28  29
ENDBRANCH   4  27
TORSDOF 10
ENDMDL
MODEL 2
REMARK VINA RESULT:      -8.1      5.740     11.748
REMARK  Name = 
REMARK  12 active torsions:
REMARK  status: ('A' for Active; 'I' for Inactive)
REMARK    1  A    between atoms: CE_1  and  SD_2
REMARK    2  A    between atoms: SD_2  and  CG_3
REMARK    3  A    between atoms: CG_3  and  CB_4
REMARK    4  A    between atoms: CB_4  and  CA_5
REMARK    5  A    between atoms: CA_5  and  N_6
REMARK    6  A    between atoms: CA_5  and  C_34
REMARK    7  A    between atoms: C_7  and  C_9
REMARK    8  A    between atoms: C_12  and  C_13
REMARK    9  A    between atoms: C_14  and  C_15
REMARK   10  A    between atoms: C_26  and  C_27
REMARK   11  A    between atoms: C_32  and  C_33
REMARK   12  A    between atoms: C_34  and  OXT_36
REMARK                            x       y       z     vdW  Elec       q    Type
REMARK                         _______ _______ _______ _____ _____    ______ ____
ROOT
ATOM      1  C   UNK A   0       3.568   6.584  18.092  0.00  0.00    +0.000 A 
ATOM      2  C   UNK A   0       3.734   7.896  17.613  0.00  0.00    +0.000 A 
ATOM      3  C   UNK A   0       2.810   8.953  17.936  0.00  0.00    +0.000 A 
ATOM      4  C   UNK A   0       1.695   8.775  18.783  0.00  0.00    +0.000 A 
ATOM      5  C   UNK A   0       1.641   7.492  19.370  0.00  0.00    +0.000 A 
ATOM      6  C   UNK A   0       2.485   6.365  19.014  0.00  0.00    +0.000 A 
ENDROOT
BRANCH   6   7
ATOM      7  C   UNK A   0       2.174   5.022  19.642  0.00  0.00    +0.000 A 
ATOM      8  C   UNK A   0       2.417   4.811  21.021  0.00  0.00    +0.000 A 
ATOM      9  C   UNK A   0       2.240   3.569  21.645  0.00  0.00    +0.000 A 
ATOM     10  C   UNK A   0       1.731   2.503  20.928  0.00  0.00    +0.000 A 
ATOM     11  C   UNK A   0       1.409   2.678  19.589  0.00  0.00    +0.000 A 
ATOM     12  C   UNK A   0       1.642   3.906  18.927  0.00  0.00    +0.000 A 
ATOM     13  C   UNK A   0       1.247   3.924  17.470  0.00  0.00    +0.000 C 
ENDBRANCH   6   7
BRANCH   1  15
ATOM     14  N   MET A   1       4.574   5.251  16.139  0.00  0.00    +0.000 N 
ATOM     15  C   UNK A   0       4.441   5.443  17.522  0.00  0.00    +0.000 C 
ATOM     16  O   UNK A   0       5.031   4.685  18.299  0.00  0.00    +0.000 OA
ATOM     17  H   MET A   1       4.116   5.903  15.510  0.00  0.00    +0.000 HD
BRANCH  14  18
ATOM     18  CA  MET A   1       5.646   4.387  15.497  0.00  0.00    +0.000 C 
BRANCH  18  19
ATOM     19  C   MET A   1       7.043   4.868  15.951  0.00  0.00    +0.000 C 
ATOM     20  O   MET A   1       7.560   5.908  15.561  0.00  0.00    +0.000 OA
BRANCH  19  21
ATOM     21  OXT MET A   1       7.685   4.046  16.818  0.00  0.00    +0.000 OA
ATOM     22  HXT MET A   1       8.371   4.459  17.388  0.00  0.00    +0.000 HD
ENDBRANCH  19  21
ENDBRANCH  18  19
BRANCH  18  23
ATOM     23  CB  MET A   1       5.621   4.369  13.947  0.00  0.00    +0.000 C 
BRANCH  23  24
ATOM     24  CG  MET A   1       6.393   3.234  13.238  0.00  0.00    +0.000 C 
BRANCH  24  26
ATOM     25  CE  MET A   1       6.934   1.509  11.130  0.00  0.00    +0.000 C 
ATOM     26  SD  MET A   1       5.594   2.576  11.734  0.00  0.00    +0.000 S 
ENDBRANCH  24  26
ENDBRANCH  23  24
ENDBRANCH  18  23
ENDBRANCH  14  18
ENDBRANCH   1  15
BRANCH   4  27
ATOM     27  C   UNK A   0       0.645   9.893  19.039  0.00  0.00    +0.000 C 
ATOM     28  C   UNK A   0      -0.288  10.065  20.042  0.00  0.00    +0.000 C 
BRANCH  28  29
ATOM     29  C   UNK A   0      -1.262  11.268  20.304  0.00  0.00    +0.000 A 
ATOM     30  C   UNK A   0      -1.566  12.026  19.189  0.00  0.00    +0.000 A 
ATOM     31  N   UNK A   0      -1.421  13.373  19.143  0.00  0.00    +0.000 NA
ATOM     32  C   UNK A   0      -0.835  13.950  20.229  0.00  0.00    +0.000 A 
ATOM     33  C   UNK A   0      -0.608  13.306  21.429  0.00  0.00    +0.000 A 
ATOM     34  C   UNK A   0      -0.329  14.109  22.551  0.00  0.00    +0.000 A 
ATOM     35  C   UNK A   0      -1.235  14.086  23.590  0.00  0.00    +0.000 A 
ATOM     36  C   UNK A   0      -2.294  13.199  23.491  0.00  0.00    +0.000 A 
ATOM     37  C   UNK A   0      -2.271  12.175  22.498  0.00  0.00    +0.000 A 
ATOM     38  C   UNK A   0      -1.238  12.071  21.488  0.00  0.00    +0.000 A 
ENDBRANCH  28  29
ENDBRANCH   4  27
TORSDOF 10
ENDMDL
MODEL 3
REMARK VINA RESULT:      -7.9      1.395      2.121
REMARK  Name = 
REMARK  12 active torsions:
REMARK  status: ('A' for Active; 'I' for Inactive)
REMARK    1  A    between atoms: CE_1  and  SD_2
REMARK    2  A    between atoms: SD_2  and  CG_3
REMARK    3  A    between atoms: CG_3  and  CB_4
REMARK    4  A    between atoms: CB_4  and  CA_5
REMARK    5  A    between atoms: CA_5  and  N_6
REMARK    6  A    between atoms: CA_5  and  C_34
REMARK    7  A    between atoms: C_7  and  C_9
REMARK    8  A    between atoms: C_12  and  C_13
REMARK    9  A    between atoms: C_14  and  C_15
REMARK   10  A    between atoms: C_26  and  C_27
REMARK   11  A    between atoms: C_32  and  C_33
REMARK   12  A    between atoms: C_34  and  OXT_36
REMARK                            x       y       z     vdW  Elec       q    Type
REMARK                         _______ _______ _______ _____ _____    ______ ____
ROOT
ATOM      1  C   UNK A   0      -0.386  11.028  22.230  0.00  0.00    +0.000 A 
ATOM      2  C   UNK A   0      -0.497   9.792  22.892  0.00  0.00    +0.000 A 
ATOM      3  C   UNK A   0       0.081   8.584  22.362  0.00  0.00    +0.000 A 
ATOM      4  C   UNK A   0       0.834   8.544  21.168  0.00  0.00    +0.000 A 
ATOM      5  C   UNK A   0       1.058   9.821  20.610  0.00  0.00    +0.000 A 
ATOM      6  C   UNK A   0       0.429  11.056  21.045  0.00  0.00    +0.000 A 
ENDROOT
BRANCH   6   7
ATOM      7  C   UNK A   0       0.674  12.303  20.220  0.00  0.00    +0.000 A 
ATOM      8  C   UNK A   0       1.851  13.064  20.419  0.00  0.00    +0.000 A 
ATOM      9  C   UNK A   0       2.096  14.275  19.759  0.00  0.00    +0.000 A 
ATOM     10  C   UNK A   0       1.206  14.735  18.807  0.00  0.00    +0.000 A 
ATOM     11  C   UNK A   0       0.070  13.988  18.524  0.00  0.00    +0.000 A 
ATOM     12  C   UNK A   0      -0.226  12.797  19.227  0.00  0.00    +0.000 A 
ATOM     13  C   UNK A   0      -1.505  12.114  18.804  0.00  0.00    +0.000 C 
ENDBRANCH   6   7
BRANCH   1  15
ATOM     14  N   MET A   1      -2.564  12.390  22.321  0.00  0.00    +0.000 N 
ATOM     15  C   UNK A   0      -1.225  12.234  22.711  0.00  0.00    +0.000 C 
ATOM     16  O   UNK A   0      -0.707  13.078  23.450  0.00  0.00    +0.000 OA
ATOM     17  H   MET A   1      -2.990  11.671  21.745  0.00  0.00    +0.000 HD
BRANCH  14  18
ATOM     18  CA  MET A   1      -3.543  13.339  22.991  0.00  0.00    +0.000 C 
BRANCH  18  19
ATOM     19  C   MET A   1      -3.861  12.835  24.417  0.00  0.00    +0.000 C 
ATOM     20  O   MET A   1      -4.227  11.693  24.665  0.00  0.00    +0.000 OA
BRANCH  19  21
ATOM     21  OXT MET A   1      -3.722  13.757  25.402  0.00  0.00    +0.000 OA
ATOM     22  HXT MET A   1      -3.896  13.450  26.319  0.00  0.00    +0.000 HD
ENDBRANCH  19  21
ENDBRANCH  18  19
BRANCH  18  23
ATOM     23  CB  MET A   1      -4.882  13.528  22.235  0.00  0.00    +0.000 C 
BRANCH  23  24
ATOM     24  CG  MET A   1      -5.155  12.597  21.032  0.00  0.00    +0.000 C 
BRANCH  24  26
ATOM     25  CE  MET A   1      -6.739  11.643  18.960  0.00  0.00    +0.000 C 
ATOM     26  SD  MET A   1      -6.440  13.184  19.876  0.00  0.00    +0.000 S 
ENDBRANCH  24  26
ENDBRANCH  23  24
ENDBRANCH  18  23
ENDBRANCH  14  18
ENDBRANCH   1  15
BRANCH   4  27
ATOM     27  C   UNK A   0       1.361   7.218  20.550  0.00  0.00    +0.000 C 
ATOM     28  C   UNK A   0       1.074   5.897  20.829  0.00  0.00    +0.000 C 
BRANCH  28  29
ATOM     29  C   UNK A   0       1.565   4.595  20.104  0.00  0.00    +0.000 A 
ATOM     30  C   UNK A   0       1.564   3.455  20.886  0.00  0.00    +0.000 A 
ATOM     31  N   UNK A   0       2.647   2.654  21.035  0.00  0.00    +0.000 NA
ATOM     32  C   UNK A   0       3.801   3.095  20.463  0.00  0.00    +0.000 A 
ATOM     33  C   UNK A   0       3.880   4.145  19.570  0.00  0.00    +0.000 A 
ATOM     34  C   UNK A   0       5.056   4.256  18.804  0.00  0.00    +0.000 A 
ATOM     35  C   UNK A   0       4.941   4.108  17.438  0.00  0.00    +0.000 A 
ATOM     36  C   UNK A   0       3.666   3.963  16.919  0.00  0.00    +0.000 A 
ATOM     37  C   UNK A   0       2.531   4.242  17.737  0.00  0.00    +0.000 A 
ATOM     38  C   UNK A   0       2.628   4.567  19.146  0.00  0.00    +0.000 A 
ENDBRANCH  28  29
ENDBRANCH   4  27
TORSDOF 10
ENDMDL
MODEL 4
REMARK VINA RESULT:      -7.9      1.550      2.555
REMARK  Name = 
REMARK  12 active torsions:
REMARK  status: ('A' for Active; 'I' for Inactive)
REMARK    1  A    between atoms: CE_1  and  SD_2
REMARK    2  A    between atoms: SD_2  and  CG_3
REMARK    3  A    between atoms: CG_3  and  CB_4
REMARK    4  A    between atoms: CB_4  and  CA_5
REMARK    5  A    between atoms: CA_5  and  N_6
REMARK    6  A    between atoms: CA_5  and  C_34
REMARK    7  A    between atoms: C_7  and  C_9
REMARK    8  A    between atoms: C_12  and  C_13
REMARK    9  A    between atoms: C_14  and  C_15
REMARK   10  A    between atoms: C_26  and  C_27
REMARK   11  A    between atoms: C_32  and  C_33
REMARK   12  A    between atoms: C_34  and  OXT_36
REMARK                            x       y       z     vdW  Elec       q    Type
REMARK                         _______ _______ _______ _____ _____    ______ ____
ROOT
ATOM      1  C   UNK A   0      -0.460  11.105  21.986  0.00  0.00    +0.000 A 
ATOM      2  C   UNK A   0      -0.496   9.793  22.489  0.00  0.00    +0.000 A 
ATOM      3  C   UNK A   0       0.257   8.721  21.889  0.00  0.00    +0.000 A 
ATOM      4  C   UNK A   0       1.115   8.902  20.783  0.00  0.00    +0.000 A 
ATOM      5  C   UNK A   0       1.249  10.253  20.398  0.00  0.00    +0.000 A 
ATOM      6  C   UNK A   0       0.451  11.358  20.902  0.00  0.00    +0.000 A 
ENDROOT
BRANCH   6   7
ATOM      7  C   UNK A   0       0.632  12.715  20.253  0.00  0.00    +0.000 A 
ATOM      8  C   UNK A   0       1.664  13.578  20.692  0.00  0.00    +0.000 A 
ATOM      9  C   UNK A   0       1.830  14.880  20.202  0.00  0.00    +0.000 A 
ATOM     10  C   UNK A   0       1.015  15.344  19.186  0.00  0.00    +0.000 A 
ATOM     11  C   UNK A   0       0.032  14.509  18.671  0.00  0.00    +0.000 A 
ATOM     12  C   UNK A   0      -0.191  13.216  19.199  0.00  0.00    +0.000 A 
ATOM     13  C   UNK A   0      -1.305  12.445  18.532  0.00  0.00    +0.000 C 
ENDBRANCH   6   7
BRANCH   1  15
ATOM     14  N   MET A   1      -2.718  12.331  21.901  0.00  0.00    +0.000 N 
ATOM     15  C   UNK A   0      -1.466  12.156  22.510  0.00  0.00    +0.000 C 
ATOM     16  O   UNK A   0      -1.162  12.855  23.482  0.00  0.00    +0.000 OA
ATOM     17  H   MET A   1      -2.972  11.725  21.128  0.00  0.00    +0.000 HD
BRANCH  14  18
ATOM     18  CA  MET A   1      -3.876  13.086  22.532  0.00  0.00    +0.000 C 
BRANCH  18  19
ATOM     19  C   MET A   1      -3.966  12.737  24.035  0.00  0.00    +0.000 C 
ATOM     20  O   MET A   1      -4.316  11.641  24.454  0.00  0.00    +0.000 OA
BRANCH  19  21
ATOM     21  OXT MET A   1      -3.641  13.743  24.884  0.00  0.00    +0.000 OA
ATOM     22  HXT MET A   1      -2.708  14.048  24.867  0.00  0.00    +0.000 HD
ENDBRANCH  19  21
ENDBRANCH  18  19
BRANCH  18  23
ATOM     23  CB  MET A   1      -5.257  12.809  21.887  0.00  0.00    +0.000 C 
BRANCH  23  24
ATOM     24  CG  MET A   1      -5.428  13.169  20.394  0.00  0.00    +0.000 C 
BRANCH  24  26
ATOM     25  CE  MET A   1      -5.701  12.215  17.800  0.00  0.00    +0.000 C 
ATOM     26  SD  MET A   1      -6.471  12.018  19.434  0.00  0.00    +0.000 S 
ENDBRANCH  24  26
ENDBRANCH  23  24
ENDBRANCH  18  23
ENDBRANCH  14  18
ENDBRANCH   1  15
BRANCH   4  27
ATOM     27  C   UNK A   0       1.838   7.720  20.077  0.00  0.00    +0.000 C 
ATOM     28  C   UNK A   0       2.101   7.469  18.745  0.00  0.00    +0.000 C 
BRANCH  28  29
ATOM     29  C   UNK A   0       2.924   6.302  18.093  0.00  0.00    +0.000 A 
ATOM     30  C   UNK A   0       2.367   5.044  18.237  0.00  0.00    +0.000 A 
ATOM     31  N   UNK A   0       3.046   3.985  18.740  0.00  0.00    +0.000 NA
ATOM     32  C   UNK A   0       4.293   4.245  19.221  0.00  0.00    +0.000 A 
ATOM     33  C   UNK A   0       4.979   5.425  19.017  0.00  0.00    +0.000 A 
ATOM     34  C   UNK A   0       6.365   5.419  19.262  0.00  0.00    +0.000 A 
ATOM     35  C   UNK A   0       7.201   5.642  18.189  0.00  0.00    +0.000 A 
ATOM     36  C   UNK A   0       6.610   5.956  16.977  0.00  0.00    +0.000 A 
ATOM     37  C   UNK A   0       5.227   6.304  16.931  0.00  0.00    +0.000 A 
ATOM     38  C   UNK A   0       4.353   6.240  18.084  0.00  0.00    +0.000 A 
ENDBRANCH  28  29
ENDBRANCH   4  27
TORSDOF 10
ENDMDL
MODEL 5
REMARK VINA RESULT:      -7.9      5.694     11.610
REMARK  Name = 
REMARK  12 active torsions:
REMARK  status: ('A' for Active; 'I' for Inactive)
REMARK    1  A    between atoms: CE_1  and  SD_2
REMARK    2  A    between atoms: SD_2  and  CG_3
REMARK    3  A    between atoms: CG_3  and  CB_4
REMARK    4  A    between atoms: CB_4  and  CA_5
REMARK    5  A    between atoms: CA_5  and  N_6
REMARK    6  A    between atoms: CA_5  and  C_34
REMARK    7  A    between atoms: C_7  and  C_9
REMARK    8  A    between atoms: C_12  and  C_13
REMARK    9  A    between atoms: C_14  and  C_15
REMARK   10  A    between atoms: C_26  and  C_27
REMARK   11  A    between atoms: C_32  and  C_33
REMARK   12  A    between atoms: C_34  and  OXT_36
REMARK                            x       y       z     vdW  Elec       q    Type
REMARK                         _______ _______ _______ _____ _____    ______ ____
ROOT
ATOM      1  C   UNK A   0       3.726   6.507  18.238  0.00  0.00    +0.000 A 
ATOM      2  C   UNK A   0       3.964   7.765  17.657  0.00  0.00    +0.000 A 
ATOM      3  C   UNK A   0       2.970   8.807  17.649  0.00  0.00    +0.000 A 
ATOM      4  C   UNK A   0       1.701   8.671  18.253  0.00  0.00    +0.000 A 
ATOM      5  C   UNK A   0       1.548   7.458  18.960  0.00  0.00    +0.000 A 
ATOM      6  C   UNK A   0       2.474   6.339  18.926  0.00  0.00    +0.000 A 
ENDROOT
BRANCH   6   7
ATOM      7  C   UNK A   0       2.061   5.059  19.625  0.00  0.00    +0.000 A 
ATOM      8  C   UNK A   0       2.247   4.924  21.022  0.00  0.00    +0.000 A 
ATOM      9  C   UNK A   0       1.975   3.737  21.715  0.00  0.00    +0.000 A 
ATOM     10  C   UNK A   0       1.426   2.658  21.048  0.00  0.00    +0.000 A 
ATOM     11  C   UNK A   0       1.159   2.766  19.690  0.00  0.00    +0.000 A 
ATOM     12  C   UNK A   0       1.487   3.933  18.961  0.00  0.00    +0.000 A 
ATOM     13  C   UNK A   0       1.141   3.880  17.493  0.00  0.00    +0.000 C 
ENDBRANCH   6   7
BRANCH   1  15
ATOM     14  N   MET A   1       4.848   4.737  16.749  0.00  0.00    +0.000 N 
ATOM     15  C   UNK A   0       4.726   5.351  18.004  0.00  0.00    +0.000 C 
ATOM     16  O   UNK A   0       5.431   4.960  18.941  0.00  0.00    +0.000 OA
ATOM     17  H   MET A   1       4.292   5.092  15.977  0.00  0.00    +0.000 HD
BRANCH  14  18
ATOM     18  CA  MET A   1       6.007   3.842  16.345  0.00  0.00    +0.000 C 
BRANCH  18  19
ATOM     19  C   MET A   1       7.318   4.660  16.341  0.00  0.00    +0.000 C 
ATOM     20  O   MET A   1       7.598   5.483  15.478  0.00  0.00    +0.000 OA
BRANCH  19  21
ATOM     21  OXT MET A   1       8.169   4.397  17.363  0.00  0.00    +0.000 OA
ATOM     22  HXT MET A   1       7.815   3.853  18.101  0.00  0.00    +0.000 HD
ENDBRANCH  19  21
ENDBRANCH  18  19
BRANCH  18  23
ATOM     23  CB  MET A   1       5.852   3.168  14.959  0.00  0.00    +0.000 C 
BRANCH  23  24
ATOM     24  CG  MET A   1       5.515   4.081  13.760  0.00  0.00    +0.000 C 
BRANCH  24  26
ATOM     25  CE  MET A   1       7.465   4.776  11.909  0.00  0.00    +0.000 C 
ATOM     26  SD  MET A   1       6.173   3.522  12.151  0.00  0.00    +0.000 S 
ENDBRANCH  24  26
ENDBRANCH  23  24
ENDBRANCH  18  23
ENDBRANCH  14  18
ENDBRANCH   1  15
BRANCH   4  27
ATOM     27  C   UNK A   0       0.597   9.761  18.147  0.00  0.00    +0.000 C 
ATOM     28  C   UNK A   0       0.348  10.892  18.899  0.00  0.00    +0.000 C 
BRANCH  28  29
ATOM     29  C   UNK A   0      -0.728  12.014  18.686  0.00  0.00    +0.000 A 
ATOM     30  C   UNK A   0      -0.216  13.275  18.439  0.00  0.00    +0.000 A 
ATOM     31  N   UNK A   0      -0.574  14.374  19.147  0.00  0.00    +0.000 NA
ATOM     32  C   UNK A   0      -1.388  14.159  20.217  0.00  0.00    +0.000 A 
ATOM     33  C   UNK A   0      -2.045  12.972  20.474  0.00  0.00    +0.000 A 
ATOM     34  C   UNK A   0      -3.109  13.007  21.395  0.00  0.00    +0.000 A 
ATOM     35  C   UNK A   0      -4.369  12.712  20.921  0.00  0.00    +0.000 A 
ATOM     36  C   UNK A   0      -4.474  12.306  19.601  0.00  0.00    +0.000 A 
ATOM     37  C   UNK A   0      -3.300  11.944  18.875  0.00  0.00    +0.000 A 
ATOM     38  C   UNK A   0      -1.961  12.086  19.409  0.00  0.00    +0.000 A 
ENDBRANCH  28  29
ENDBRANCH   4  27
TORSDOF 10
ENDMDL
MODEL 6
REMARK VINA RESULT:      -7.7      1.686      2.709
REMARK  Name = 
REMARK  12 active torsions:
REMARK  status: ('A' for Active; 'I' for Inactive)
REMARK    1  A    between atoms: CE_1  and  SD_2
REMARK    2  A    between atoms: SD_2  and  CG_3
REMARK    3  A    between atoms: CG_3  and  CB_4
REMARK    4  A    between atoms: CB_4  and  CA_5
REMARK    5  A    between atoms: CA_5  and  N_6
REMARK    6  A    between atoms: CA_5  and  C_34
REMARK    7  A    between atoms: C_7  and  C_9
REMARK    8  A    between atoms: C_12  and  C_13
REMARK    9  A    between atoms: C_14  and  C_15
REMARK   10  A    between atoms: C_26  and  C_27
REMARK   11  A    between atoms: C_32  and  C_33
REMARK   12  A    between atoms: C_34  and  OXT_36
REMARK                            x       y       z     vdW  Elec       q    Type
REMARK                         _______ _______ _______ _____ _____    ______ ____
ROOT
ATOM      1  C   UNK A   0      -0.417  11.455  22.356  0.00  0.00    +0.000 A 
ATOM      2  C   UNK A   0      -0.444  10.168  22.921  0.00  0.00    +0.000 A 
ATOM      3  C   UNK A   0       0.184   9.038  22.286  0.00  0.00    +0.000 A 
ATOM      4  C   UNK A   0       0.906   9.132  21.076  0.00  0.00    +0.000 A 
ATOM      5  C   UNK A   0       1.047  10.458  20.614  0.00  0.00    +0.000 A 
ATOM      6  C   UNK A   0       0.364  11.619  21.158  0.00  0.00    +0.000 A 
ENDROOT
BRANCH   6   7
ATOM      7  C   UNK A   0       0.519  12.938  20.428  0.00  0.00    +0.000 A 
ATOM      8  C   UNK A   0       1.520  13.855  20.829  0.00  0.00    +0.000 A 
ATOM      9  C   UNK A   0       1.659  15.127  20.260  0.00  0.00    +0.000 A 
ATOM     10  C   UNK A   0       0.849  15.505  19.206  0.00  0.00    +0.000 A 
ATOM     11  C   UNK A   0      -0.102  14.613  18.729  0.00  0.00    +0.000 A 
ATOM     12  C   UNK A   0      -0.299  13.349  19.333  0.00  0.00    +0.000 A 
ATOM     13  C   UNK A   0      -1.381  12.507  18.699  0.00  0.00    +0.000 C 
ENDBRANCH   6   7
BRANCH   1  15
ATOM     14  N   MET A   1      -2.695  12.579  22.745  0.00  0.00    +0.000 N 
ATOM     15  C   UNK A   0      -1.307  12.572  22.947  0.00  0.00    +0.000 C 
ATOM     16  O   UNK A   0      -0.786  13.477  23.608  0.00  0.00    +0.000 OA
ATOM     17  H   MET A   1      -3.117  11.811  22.234  0.00  0.00    +0.000 HD
BRANCH  14  18
ATOM     18  CA  MET A   1      -3.670  13.429  23.544  0.00  0.00    +0.000 C 
BRANCH  18  19
ATOM     19  C   MET A   1      -4.794  12.533  24.113  0.00  0.00    +0.000 C 
ATOM     20  O   MET A   1      -5.762  12.167  23.459  0.00  0.00    +0.000 OA
BRANCH  19  21
ATOM     21  OXT MET A   1      -4.650  12.180  25.414  0.00  0.00    +0.000 OA
ATOM     22  HXT MET A   1      -4.731  12.901  26.077  0.00  0.00    +0.000 HD
ENDBRANCH  19  21
ENDBRANCH  18  19
BRANCH  18  23
ATOM     23  CB  MET A   1      -4.327  14.582  22.746  0.00  0.00    +0.000 C 
BRANCH  23  24
ATOM     24  CG  MET A   1      -4.712  15.857  23.530  0.00  0.00    +0.000 C 
BRANCH  24  26
ATOM     25  CE  MET A   1      -2.162  16.885  23.917  0.00  0.00    +0.000 C 
ATOM     26  SD  MET A   1      -3.580  16.301  24.891  0.00  0.00    +0.000 S 
ENDBRANCH  24  26
ENDBRANCH  23  24
ENDBRANCH  18  23
ENDBRANCH  14  18
ENDBRANCH   1  15
BRANCH   4  27
ATOM     27  C   UNK A   0       1.488   7.889  20.345  0.00  0.00    +0.000 C 
ATOM     28  C   UNK A   0       1.968   7.721  19.061  0.00  0.00    +0.000 C 
BRANCH  28  29
ATOM     29  C   UNK A   0       2.636   6.462  18.403  0.00  0.00    +0.000 A 
ATOM     30  C   UNK A   0       2.018   5.258  18.687  0.00  0.00    +0.000 A 
ATOM     31  N   UNK A   0       2.678   4.183  19.183  0.00  0.00    +0.000 NA
ATOM     32  C   UNK A   0       3.984   4.380  19.511  0.00  0.00    +0.000 A 
ATOM     33  C   UNK A   0       4.719   5.495  19.159  0.00  0.00    +0.000 A 
ATOM     34  C   UNK A   0       6.120   5.403  19.255  0.00  0.00    +0.000 A 
ATOM     35  C   UNK A   0       6.845   5.503  18.087  0.00  0.00    +0.000 A 
ATOM     36  C   UNK A   0       6.146   5.788  16.926  0.00  0.00    +0.000 A 
ATOM     37  C   UNK A   0       4.792   6.232  17.005  0.00  0.00    +0.000 A 
ATOM     38  C   UNK A   0       4.048   6.297  18.246  0.00  0.00    +0.000 A 
ENDBRANCH  28  29
ENDBRANCH   4  27
TORSDOF 10
ENDMDL
MODEL 7
REMARK VINA RESULT:      -7.7      2.018      3.164
REMARK  Name = 
REMARK  12 active torsions:
REMARK  status: ('A' for Active; 'I' for Inactive)
REMARK    1  A    between atoms: CE_1  and  SD_2
REMARK    2  A    between atoms: SD_2  and  CG_3
REMARK    3  A    between atoms: CG_3  and  CB_4
REMARK    4  A    between atoms: CB_4  and  CA_5
REMARK    5  A    between atoms: CA_5  and  N_6
REMARK    6  A    between atoms: CA_5  and  C_34
REMARK    7  A    between atoms: C_7  and  C_9
REMARK    8  A    between atoms: C_12  and  C_13
REMARK    9  A    between atoms: C_14  and  C_15
REMARK   10  A    between atoms: C_26  and  C_27
REMARK   11  A    between atoms: C_32  and  C_33
REMARK   12  A    between atoms: C_34  and  OXT_36
REMARK                            x       y       z     vdW  Elec       q    Type
REMARK                         _______ _______ _______ _____ _____    ______ ____
ROOT
ATOM      1  C   UNK A   0      -0.493  10.921  21.669  0.00  0.00    +0.000 A 
ATOM      2  C   UNK A   0      -0.519   9.605  22.165  0.00  0.00    +0.000 A 
ATOM      3  C   UNK A   0       0.286   8.555  21.595  0.00  0.00    +0.000 A 
ATOM      4  C   UNK A   0       1.188   8.763  20.528  0.00  0.00    +0.000 A 
ATOM      5  C   UNK A   0       1.305  10.119  20.156  0.00  0.00    +0.000 A 
ATOM      6  C   UNK A   0       0.459  11.201  20.628  0.00  0.00    +0.000 A 
ENDROOT
BRANCH   6   7
ATOM      7  C   UNK A   0       0.636  12.566  19.993  0.00  0.00    +0.000 A 
ATOM      8  C   UNK A   0       1.654  13.434  20.454  0.00  0.00    +0.000 A 
ATOM      9  C   UNK A   0       1.814  14.742  19.977  0.00  0.00    +0.000 A 
ATOM     10  C   UNK A   0       1.007  15.208  18.955  0.00  0.00    +0.000 A 
ATOM     11  C   UNK A   0       0.039  14.368  18.420  0.00  0.00    +0.000 A 
ATOM     12  C   UNK A   0      -0.179  13.068  18.933  0.00  0.00    +0.000 A 
ATOM     13  C   UNK A   0      -1.277  12.293  18.246  0.00  0.00    +0.000 C 
ENDBRANCH   6   7
BRANCH   1  15
ATOM     14  N   MET A   1      -1.335  12.717  23.303  0.00  0.00    +0.000 N 
ATOM     15  C   UNK A   0      -1.547  11.944  22.153  0.00  0.00    +0.000 C 
ATOM     16  O   UNK A   0      -2.596  12.080  21.515  0.00  0.00    +0.000 OA
ATOM     17  H   MET A   1      -0.453  12.625  23.797  0.00  0.00    +0.000 HD
BRANCH  14  18
ATOM     18  CA  MET A   1      -2.143  13.953  23.661  0.00  0.00    +0.000 C 
BRANCH  18  19
ATOM     19  C   MET A   1      -1.196  15.062  24.174  0.00  0.00    +0.000 C 
ATOM     20  O   MET A   1      -0.932  15.231  25.358  0.00  0.00    +0.000 OA
BRANCH  19  21
ATOM     21  OXT MET A   1      -0.674  15.867  23.216  0.00  0.00    +0.000 OA
ATOM     22  HXT MET A   1       0.171  16.318  23.434  0.00  0.00    +0.000 HD
ENDBRANCH  19  21
ENDBRANCH  18  19
BRANCH  18  23
ATOM     23  CB  MET A   1      -3.241  13.722  24.730  0.00  0.00    +0.000 C 
BRANCH  23  24
ATOM     24  CG  MET A   1      -4.420  12.799  24.347  0.00  0.00    +0.000 C 
BRANCH  24  26
ATOM     25  CE  MET A   1      -7.142  12.516  23.873  0.00  0.00    +0.000 C 
ATOM     26  SD  MET A   1      -5.765  13.609  23.414  0.00  0.00    +0.000 S 
ENDBRANCH  24  26
ENDBRANCH  23  24
ENDBRANCH  18  23
ENDBRANCH  14  18
ENDBRANCH   1  15
BRANCH   4  27
ATOM     27  C   UNK A   0       1.971   7.602  19.850  0.00  0.00    +0.000 C 
ATOM     28  C   UNK A   0       2.438   7.441  18.561  0.00  0.00    +0.000 C 
BRANCH  28  29
ATOM     29  C   UNK A   0       3.310   6.286  17.954  0.00  0.00    +0.000 A 
ATOM     30  C   UNK A   0       2.761   5.022  18.060  0.00  0.00    +0.000 A 
ATOM     31  N   UNK A   0       3.421   3.967  18.597  0.00  0.00    +0.000 NA
ATOM     32  C   UNK A   0       4.634   4.239  19.152  0.00  0.00    +0.000 A 
ATOM     33  C   UNK A   0       5.318   5.428  18.993  0.00  0.00    +0.000 A 
ATOM     34  C   UNK A   0       6.687   5.435  19.319  0.00  0.00    +0.000 A 
ATOM     35  C   UNK A   0       7.582   5.673  18.297  0.00  0.00    +0.000 A 
ATOM     36  C   UNK A   0       7.059   5.986  17.053  0.00  0.00    +0.000 A 
ATOM     37  C   UNK A   0       5.678   6.319  16.928  0.00  0.00    +0.000 A 
ATOM     38  C   UNK A   0       4.738   6.240  18.028  0.00  0.00    +0.000 A 
ENDBRANCH  28  29
ENDBRANCH   4  27
TORSDOF 10
ENDMDL
MODEL 8
REMARK VINA RESULT:      -7.7      1.808      2.971
REMARK  Name = 
REMARK  12 active torsions:
REMARK  status: ('A' for Active; 'I' for Inactive)
REMARK    1  A    between atoms: CE_1  and  SD_2
REMARK    2  A    between atoms: SD_2  and  CG_3
REMARK    3  A    between atoms: CG_3  and  CB_4
REMARK    4  A    between atoms: CB_4  and  CA_5
REMARK    5  A    between atoms: CA_5  and  N_6
REMARK    6  A    between atoms: CA_5  and  C_34
REMARK    7  A    between atoms: C_7  and  C_9
REMARK    8  A    between atoms: C_12  and  C_13
REMARK    9  A    between atoms: C_14  and  C_15
REMARK   10  A    between atoms: C_26  and  C_27
REMARK   11  A    between atoms: C_32  and  C_33
REMARK   12  A    between atoms: C_34  and  OXT_36
REMARK                            x       y       z     vdW  Elec       q    Type
REMARK                         _______ _______ _______ _____ _____    ______ ____
ROOT
ATOM      1  C   UNK A   0      -0.483  10.994  21.937  0.00  0.00    +0.000 A 
ATOM      2  C   UNK A   0      -0.472   9.676  22.427  0.00  0.00    +0.000 A 
ATOM      3  C   UNK A   0       0.310   8.636  21.811  0.00  0.00    +0.000 A 
ATOM      4  C   UNK A   0       1.155   8.856  20.701  0.00  0.00    +0.000 A 
ATOM      5  C   UNK A   0       1.242  10.215  20.329  0.00  0.00    +0.000 A 
ATOM      6  C   UNK A   0       0.412  11.287  20.850  0.00  0.00    +0.000 A 
ENDROOT
BRANCH   6   7
ATOM      7  C   UNK A   0       0.544  12.656  20.214  0.00  0.00    +0.000 A 
ATOM      8  C   UNK A   0       1.479  13.588  20.726  0.00  0.00    +0.000 A 
ATOM      9  C   UNK A   0       1.588  14.900  20.247  0.00  0.00    +0.000 A 
ATOM     10  C   UNK A   0       0.818  15.309  19.175  0.00  0.00    +0.000 A 
ATOM     11  C   UNK A   0      -0.063  14.410  18.591  0.00  0.00    +0.000 A 
ATOM     12  C   UNK A   0      -0.233  13.102  19.102  0.00  0.00    +0.000 A 
ATOM     13  C   UNK A   0      -1.239  12.257  18.357  0.00  0.00    +0.000 C 
ENDBRANCH   6   7
BRANCH   1  15
ATOM     14  N   MET A   1      -2.645  12.367  21.725  0.00  0.00    +0.000 N 
ATOM     15  C   UNK A   0      -1.519  12.005  22.479  0.00  0.00    +0.000 C 
ATOM     16  O   UNK A   0      -1.351  12.506  23.596  0.00  0.00    +0.000 OA
ATOM     17  H   MET A   1      -2.793  11.921  20.826  0.00  0.00    +0.000 HD
BRANCH  14  18
ATOM     18  CA  MET A   1      -3.860  13.081  22.294  0.00  0.00    +0.000 C 
BRANCH  18  19
ATOM     19  C   MET A   1      -5.127  12.644  21.523  0.00  0.00    +0.000 C 
ATOM     20  O   MET A   1      -5.261  12.776  20.313  0.00  0.00    +0.000 OA
BRANCH  19  21
ATOM     21  OXT MET A   1      -6.112  12.107  22.284  0.00  0.00    +0.000 OA
ATOM     22  HXT MET A   1      -6.751  11.519  21.825  0.00  0.00    +0.000 HD
ENDBRANCH  19  21
ENDBRANCH  18  19
BRANCH  18  23
ATOM     23  CB  MET A   1      -3.780  14.627  22.255  0.00  0.00    +0.000 C 
BRANCH  23  24
ATOM     24  CG  MET A   1      -5.065  15.414  22.597  0.00  0.00    +0.000 C 
BRANCH  24  26
ATOM     25  CE  MET A   1      -3.362  15.881  24.741  0.00  0.00    +0.000 C 
ATOM     26  SD  MET A   1      -5.089  16.173  24.258  0.00  0.00    +0.000 S 
ENDBRANCH  24  26
ENDBRANCH  23  24
ENDBRANCH  18  23
ENDBRANCH  14  18
ENDBRANCH   1  15
BRANCH   4  27
ATOM     27  C   UNK A   0       1.911   7.705  19.977  0.00  0.00    +0.000 C 
ATOM     28  C   UNK A   0       2.237   7.514  18.649  0.00  0.00    +0.000 C 
BRANCH  28  29
ATOM     29  C   UNK A   0       3.090   6.375  17.986  0.00  0.00    +0.000 A 
ATOM     30  C   UNK A   0       2.535   5.111  18.060  0.00  0.00    +0.000 A 
ATOM     31  N   UNK A   0       3.199   4.036  18.548  0.00  0.00    +0.000 NA
ATOM     32  C   UNK A   0       4.425   4.282  19.087  0.00  0.00    +0.000 A 
ATOM     33  C   UNK A   0       5.113   5.472  18.954  0.00  0.00    +0.000 A 
ATOM     34  C   UNK A   0       6.488   5.461  19.252  0.00  0.00    +0.000 A 
ATOM     35  C   UNK A   0       7.364   5.729  18.221  0.00  0.00    +0.000 A 
ATOM     36  C   UNK A   0       6.818   6.086  16.999  0.00  0.00    +0.000 A 
ATOM     37  C   UNK A   0       5.436   6.431  16.914  0.00  0.00    +0.000 A 
ATOM     38  C   UNK A   0       4.519   6.319  18.030  0.00  0.00    +0.000 A 
ENDBRANCH  28  29
ENDBRANCH   4  27
TORSDOF 10
ENDMDL
MODEL 9
REMARK VINA RESULT:      -7.6      1.797      2.968
REMARK  Name = 
REMARK  12 active torsions:
REMARK  status: ('A' for Active; 'I' for Inactive)
REMARK    1  A    between atoms: CE_1  and  SD_2
REMARK    2  A    between atoms: SD_2  and  CG_3
REMARK    3  A    between atoms: CG_3  and  CB_4
REMARK    4  A    between atoms: CB_4  and  CA_5
REMARK    5  A    between atoms: CA_5  and  N_6
REMARK    6  A    between atoms: CA_5  and  C_34
REMARK    7  A    between atoms: C_7  and  C_9
REMARK    8  A    between atoms: C_12  and  C_13
REMARK    9  A    between atoms: C_14  and  C_15
REMARK   10  A    between atoms: C_26  and  C_27
REMARK   11  A    between atoms: C_32  and  C_33
REMARK   12  A    between atoms: C_34  and  OXT_36
REMARK                            x       y       z     vdW  Elec       q    Type
REMARK                         _______ _______ _______ _____ _____    ______ ____
ROOT
ATOM      1  C   UNK A   0      -0.303  11.298  22.191  0.00  0.00    +0.000 A 
ATOM      2  C   UNK A   0      -0.291  10.014  22.765  0.00  0.00    +0.000 A 
ATOM      3  C   UNK A   0       0.299   8.882  22.098  0.00  0.00    +0.000 A 
ATOM      4  C   UNK A   0       0.944   8.971  20.845  0.00  0.00    +0.000 A 
ATOM      5  C   UNK A   0       1.052  10.295  20.367  0.00  0.00    +0.000 A 
ATOM      6  C   UNK A   0       0.400  11.457  20.946  0.00  0.00    +0.000 A 
ENDROOT
BRANCH   6   7
ATOM      7  C   UNK A   0       0.506  12.772  20.200  0.00  0.00    +0.000 A 
ATOM      8  C   UNK A   0       1.554  13.674  20.501  0.00  0.00    +0.000 A 
ATOM      9  C   UNK A   0       1.658  14.943  19.918  0.00  0.00    +0.000 A 
ATOM     10  C   UNK A   0       0.758  15.331  18.944  0.00  0.00    +0.000 A 
ATOM     11  C   UNK A   0      -0.248  14.453  18.562  0.00  0.00    +0.000 A 
ATOM     12  C   UNK A   0      -0.406  13.193  19.186  0.00  0.00    +0.000 A 
ATOM     13  C   UNK A   0      -1.555  12.367  18.660  0.00  0.00    +0.000 C 
ENDBRANCH   6   7
BRANCH   1  15
ATOM     14  N   MET A   1      -2.548  12.464  22.647  0.00  0.00    +0.000 N 
ATOM     15  C   UNK A   0      -1.158  12.416  22.831  0.00  0.00    +0.000 C 
ATOM     16  O   UNK A   0      -0.606  13.285  23.515  0.00  0.00    +0.000 OA
ATOM     17  H   MET A   1      -2.995  11.724  22.116  0.00  0.00    +0.000 HD
BRANCH  14  18
ATOM     18  CA  MET A   1      -3.491  13.310  23.486  0.00  0.00    +0.000 C 
BRANCH  18  19
ATOM     19  C   MET A   1      -4.795  12.524  23.754  0.00  0.00    +0.000 C 
ATOM     20  O   MET A   1      -5.053  11.986  24.823  0.00  0.00    +0.000 OA
BRANCH  19  21
ATOM     21  OXT MET A   1      -5.651  12.449  22.705  0.00  0.00    +0.000 OA
ATOM     22  HXT MET A   1      -5.414  11.819  21.989  0.00  0.00    +0.000 HD
ENDBRANCH  19  21
ENDBRANCH  18  19
BRANCH  18  23
ATOM     23  CB  MET A   1      -3.869  14.675  22.858  0.00  0.00    +0.000 C 
BRANCH  23  24
ATOM     24  CG  MET A   1      -2.894  15.853  23.082  0.00  0.00    +0.000 C 
BRANCH  24  26
ATOM     25  CE  MET A   1      -0.283  16.680  22.623  0.00  0.00    +0.000 C 
ATOM     26  SD  MET A   1      -1.766  16.201  21.689  0.00  0.00    +0.000 S 
ENDBRANCH  24  26
ENDBRANCH  23  24
ENDBRANCH  18  23
ENDBRANCH  14  18
ENDBRANCH   1  15
BRANCH   4  27
ATOM     27  C   UNK A   0       1.483   7.725  20.085  0.00  0.00    +0.000 C 
ATOM     28  C   UNK A   0       2.473   7.587  19.133  0.00  0.00    +0.000 C 
BRANCH  28  29
ATOM     29  C   UNK A   0       3.043   6.285  18.468  0.00  0.00    +0.000 A 
ATOM     30  C   UNK A   0       2.643   5.103  19.062  0.00  0.00    +0.000 A 
ATOM     31  N   UNK A   0       3.511   4.146  19.473  0.00  0.00    +0.000 NA
ATOM     32  C   UNK A   0       4.833   4.458  19.382  0.00  0.00    +0.000 A 
ATOM     33  C   UNK A   0       5.335   5.549  18.700  0.00  0.00    +0.000 A 
ATOM     34  C   UNK A   0       6.709   5.547  18.397  0.00  0.00    +0.000 A 
ATOM     35  C   UNK A   0       7.066   5.518  17.065  0.00  0.00    +0.000 A 
ATOM     36  C   UNK A   0       6.047   5.597  16.131  0.00  0.00    +0.000 A 
ATOM     37  C   UNK A   0       4.734   5.974  16.544  0.00  0.00    +0.000 A 
ATOM     38  C   UNK A   0       4.365   6.176  17.930  0.00  0.00    +0.000 A 
ENDBRANCH  28  29
ENDBRANCH   4  27
TORSDOF 10
ENDMDL
