MODEL 1
REMARK VINA RESULT:      -8.0      0.000      0.000
REMARK  Name = 
REMARK  9 active torsions:
REMARK  status: ('A' for Active; 'I' for Inactive)
REMARK    1  A    between atoms: C_1  and  O_2
REMARK    2  A    between atoms: O_2  and  C_3
REMARK    3  A    between atoms: C_6  and  C_7
REMARK    4  A    between atoms: C_7  and  C_8
REMARK    5  A    between atoms: C_8  and  C_9
REMARK    6  A    between atoms: N_11  and  N_12
REMARK    7  A    between atoms: N_15  and  C_16
REMARK    8  A    between atoms: C_21  and  O_22
REMARK    9  A    between atoms: O_22  and  C_23
REMARK                            x       y       z     vdW  Elec       q    Type
REMARK                         _______ _______ _______ _____ _____    ______ ____
ROOT
ATOM      1  C   UNL     1       7.585   6.934  17.945  0.00  0.00    +0.000 C 
ATOM      2  O   UNL     1       6.941   6.999  16.898  0.00  0.00    +0.000 OA
ATOM      3  N   UNL     1       7.541   5.849  18.779  0.00  0.00    +0.000 N 
ATOM      4  H   UNL     1       8.022   5.788  19.681  0.00  0.00    +0.000 HD
ENDROOT
BRANCH   3   5
ATOM      5  N   UNL     1       6.799   4.707  18.408  0.00  0.00    +0.000 N 
ATOM      6  C   UNL     1       5.502   4.645  18.890  0.00  0.00    +0.000 C 
ATOM      7  O   UNL     1       5.070   5.500  19.662  0.00  0.00    +0.000 OA
ATOM      8  N   UNL     1       4.830   3.515  18.470  0.00  0.00    +0.000 N 
ATOM      9  H   UNL     1       6.992   4.358  17.471  0.00  0.00    +0.000 HD
ATOM     10  H   UNL     1       5.412   2.714  18.285  0.00  0.00    +0.000 HD
BRANCH   8  11
ATOM     11  C   UNL     1       3.498   3.259  18.873  0.00  0.00    +0.000 A 
ATOM     12  C   UNL     1       2.464   3.478  17.948  0.00  0.00    +0.000 A 
ATOM     13  C   UNL     1       1.138   3.192  18.272  0.00  0.00    +0.000 A 
ATOM     14  C   UNL     1       0.826   2.702  19.535  0.00  0.00    +0.000 A 
ATOM     15  C   UNL     1       1.848   2.466  20.458  0.00  0.00    +0.000 A 
ATOM     16  C   UNL     1       3.187   2.730  20.136  0.00  0.00    +0.000 A 
BRANCH  16  17
ATOM     17  O   UNL     1       4.082   2.384  21.113  0.00  0.00    +0.000 OA
ATOM     18  C   UNL     1       4.956   1.299  20.818  0.00  0.00    +0.000 C 
ENDBRANCH  16  17
ENDBRANCH   8  11
ENDBRANCH   3   5
BRANCH   1  19
ATOM     19  C   UNL     1       8.476   8.064  18.427  0.00  0.00    +0.000 C 
BRANCH  19  20
ATOM     20  C   UNL     1       8.114   9.391  17.759  0.00  0.00    +0.000 C 
BRANCH  20  24
ATOM     21  C   UNL     1      10.274  12.789  19.367  0.00  0.00    +0.000 A 
ATOM     22  C   UNL     1      10.358  11.538  19.979  0.00  0.00    +0.000 A 
ATOM     23  C   UNL     1       9.652  10.445  19.466  0.00  0.00    +0.000 A 
ATOM     24  C   UNL     1       8.833  10.589  18.339  0.00  0.00    +0.000 A 
ATOM     25  C   UNL     1       8.740  11.854  17.740  0.00  0.00    +0.000 A 
ATOM     26  C   UNL     1       9.454  12.948  18.252  0.00  0.00    +0.000 A 
BRANCH  21  28
ATOM     27  C   UNL     1      12.331  13.958  19.470  0.00  0.00    +0.000 C 
ATOM     28  O   UNL     1      11.009  13.775  19.965  0.00  0.00    +0.000 OA
ENDBRANCH  21  28
ENDBRANCH  20  24
ENDBRANCH  19  20
ENDBRANCH   1  19
TORSDOF 7
ENDMDL
MODEL 2
REMARK VINA RESULT:      -8.0      1.001      1.879
REMARK  Name = 
REMARK  9 active torsions:
REMARK  status: ('A' for Active; 'I' for Inactive)
REMARK    1  A    between atoms: C_1  and  O_2
REMARK    2  A    between atoms: O_2  and  C_3
REMARK    3  A    between atoms: C_6  and  C_7
REMARK    4  A    between atoms: C_7  and  C_8
REMARK    5  A    between atoms: C_8  and  C_9
REMARK    6  A    between atoms: N_11  and  N_12
REMARK    7  A    between atoms: N_15  and  C_16
REMARK    8  A    between atoms: C_21  and  O_22
REMARK    9  A    between atoms: O_22  and  C_23
REMARK                            x       y       z     vdW  Elec       q    Type
REMARK                         _______ _______ _______ _____ _____    ______ ____
ROOT
ATOM      1  C   UNL     1       7.695   7.079  17.980  0.00  0.00    +0.000 C 
ATOM      2  O   UNL     1       7.025   7.201  16.955  0.00  0.00    +0.000 OA
ATOM      3  N   UNL     1       7.661   5.955  18.762  0.00  0.00    +0.000 N 
ATOM      4  H   UNL     1       8.164   5.846  19.646  0.00  0.00    +0.000 HD
ENDROOT
BRANCH   3   5
ATOM      5  N   UNL     1       6.897   4.839  18.355  0.00  0.00    +0.000 N 
ATOM      6  C   UNL     1       5.617   4.759  18.879  0.00  0.00    +0.000 C 
ATOM      7  O   UNL     1       5.221   5.573  19.712  0.00  0.00    +0.000 OA
ATOM      8  N   UNL     1       4.922   3.658  18.422  0.00  0.00    +0.000 N 
ATOM      9  H   UNL     1       7.054   4.541  17.395  0.00  0.00    +0.000 HD
ATOM     10  H   UNL     1       5.491   2.864  18.173  0.00  0.00    +0.000 HD
BRANCH   8  11
ATOM     11  C   UNL     1       3.604   3.388  18.858  0.00  0.00    +0.000 A 
ATOM     12  C   UNL     1       3.403   2.355  19.788  0.00  0.00    +0.000 A 
ATOM     13  C   UNL     1       2.133   2.079  20.293  0.00  0.00    +0.000 A 
ATOM     14  C   UNL     1       1.041   2.821  19.858  0.00  0.00    +0.000 A 
ATOM     15  C   UNL     1       1.230   3.860  18.944  0.00  0.00    +0.000 A 
ATOM     16  C   UNL     1       2.506   4.160  18.445  0.00  0.00    +0.000 A 
BRANCH  16  17
ATOM     17  O   UNL     1       2.546   5.248  17.614  0.00  0.00    +0.000 OA
ATOM     18  C   UNL     1       2.362   6.521  18.224  0.00  0.00    +0.000 C 
ENDBRANCH  16  17
ENDBRANCH   8  11
ENDBRANCH   3   5
BRANCH   1  19
ATOM     19  C   UNL     1       8.611   8.176  18.493  0.00  0.00    +0.000 C 
BRANCH  19  20
ATOM     20  C   UNL     1       8.250   9.536  17.895  0.00  0.00    +0.000 C 
BRANCH  20  24
ATOM     21  C   UNL     1      10.440  12.827  19.676  0.00  0.00    +0.000 A 
ATOM     22  C   UNL     1      10.319  11.608  20.343  0.00  0.00    +0.000 A 
ATOM     23  C   UNL     1       9.603  10.551  19.774  0.00  0.00    +0.000 A 
ATOM     24  C   UNL     1       8.978  10.701  18.529  0.00  0.00    +0.000 A 
ATOM     25  C   UNL     1       9.089  11.935  17.871  0.00  0.00    +0.000 A 
ATOM     26  C   UNL     1       9.813  12.992  18.442  0.00  0.00    +0.000 A 
BRANCH  21  28
ATOM     27  C   UNL     1      11.585  14.897  19.565  0.00  0.00    +0.000 C 
ATOM     28  O   UNL     1      11.162  13.780  20.339  0.00  0.00    +0.000 OA
ENDBRANCH  21  28
ENDBRANCH  20  24
ENDBRANCH  19  20
ENDBRANCH   1  19
TORSDOF 7
ENDMDL
MODEL 3
REMARK VINA RESULT:      -8.0      1.367      1.452
REMARK  Name = 
REMARK  9 active torsions:
REMARK  status: ('A' for Active; 'I' for Inactive)
REMARK    1  A    between atoms: C_1  and  O_2
REMARK    2  A    between atoms: O_2  and  C_3
REMARK    3  A    between atoms: C_6  and  C_7
REMARK    4  A    between atoms: C_7  and  C_8
REMARK    5  A    between atoms: C_8  and  C_9
REMARK    6  A    between atoms: N_11  and  N_12
REMARK    7  A    between atoms: N_15  and  C_16
REMARK    8  A    between atoms: C_21  and  O_22
REMARK    9  A    between atoms: O_22  and  C_23
REMARK                            x       y       z     vdW  Elec       q    Type
REMARK                         _______ _______ _______ _____ _____    ______ ____
ROOT
ATOM      1  C   UNL     1       7.658   7.591  17.762  0.00  0.00    +0.000 C 
ATOM      2  O   UNL     1       8.144   6.763  18.532  0.00  0.00    +0.000 OA
ATOM      3  N   UNL     1       6.746   7.262  16.795  0.00  0.00    +0.000 N 
ATOM      4  H   UNL     1       6.366   7.916  16.106  0.00  0.00    +0.000 HD
ENDROOT
BRANCH   3   5
ATOM      5  N   UNL     1       6.262   5.938  16.707  0.00  0.00    +0.000 N 
ATOM      6  C   UNL     1       5.146   5.651  17.478  0.00  0.00    +0.000 C 
ATOM      7  O   UNL     1       4.675   6.486  18.248  0.00  0.00    +0.000 OA
ATOM      8  N   UNL     1       4.715   4.349  17.326  0.00  0.00    +0.000 N 
ATOM      9  H   UNL     1       6.346   5.512  15.787  0.00  0.00    +0.000 HD
ATOM     10  H   UNL     1       5.433   3.684  17.085  0.00  0.00    +0.000 HD
BRANCH   8  11
ATOM     11  C   UNL     1       3.601   3.854  18.044  0.00  0.00    +0.000 A 
ATOM     12  C   UNL     1       2.317   4.054  17.511  0.00  0.00    +0.000 A 
ATOM     13  C   UNL     1       1.187   3.542  18.148  0.00  0.00    +0.000 A 
ATOM     14  C   UNL     1       1.325   2.841  19.341  0.00  0.00    +0.000 A 
ATOM     15  C   UNL     1       2.598   2.624  19.874  0.00  0.00    +0.000 A 
ATOM     16  C   UNL     1       3.743   3.116  19.230  0.00  0.00    +0.000 A 
BRANCH  16  17
ATOM     17  O   UNL     1       4.923   2.764  19.830  0.00  0.00    +0.000 OA
ATOM     18  C   UNL     1       4.885   1.633  20.693  0.00  0.00    +0.000 C 
ENDBRANCH  16  17
ENDBRANCH   8  11
ENDBRANCH   3   5
BRANCH   1  19
ATOM     19  C   UNL     1       8.040   9.060  17.793  0.00  0.00    +0.000 C 
BRANCH  19  20
ATOM     20  C   UNL     1       8.961   9.377  18.972  0.00  0.00    +0.000 C 
BRANCH  20  24
ATOM     21  C   UNL     1      10.657  13.367  18.985  0.00  0.00    +0.000 A 
ATOM     22  C   UNL     1      10.033  12.854  20.123  0.00  0.00    +0.000 A 
ATOM     23  C   UNL     1       9.477  11.572  20.114  0.00  0.00    +0.000 A 
ATOM     24  C   UNL     1       9.519  10.783  18.958  0.00  0.00    +0.000 A 
ATOM     25  C   UNL     1      10.132  11.311  17.812  0.00  0.00    +0.000 A 
ATOM     26  C   UNL     1      10.695  12.596  17.825  0.00  0.00    +0.000 A 
BRANCH  21  28
ATOM     27  C   UNL     1      10.584  15.627  18.282  0.00  0.00    +0.000 C 
ATOM     28  O   UNL     1      11.159  14.632  19.120  0.00  0.00    +0.000 OA
ENDBRANCH  21  28
ENDBRANCH  20  24
ENDBRANCH  19  20
ENDBRANCH   1  19
TORSDOF 7
ENDMDL
MODEL 4
REMARK VINA RESULT:      -7.8      1.456      1.709
REMARK  Name = 
REMARK  9 active torsions:
REMARK  status: ('A' for Active; 'I' for Inactive)
REMARK    1  A    between atoms: C_1  and  O_2
REMARK    2  A    between atoms: O_2  and  C_3
REMARK    3  A    between atoms: C_6  and  C_7
REMARK    4  A    between atoms: C_7  and  C_8
REMARK    5  A    between atoms: C_8  and  C_9
REMARK    6  A    between atoms: N_11  and  N_12
REMARK    7  A    between atoms: N_15  and  C_16
REMARK    8  A    between atoms: C_21  and  O_22
REMARK    9  A    between atoms: O_22  and  C_23
REMARK                            x       y       z     vdW  Elec       q    Type
REMARK                         _______ _______ _______ _____ _____    ______ ____
ROOT
ATOM      1  C   UNL     1       7.894   7.881  17.928  0.00  0.00    +0.000 C 
ATOM      2  O   UNL     1       8.403   7.123  18.752  0.00  0.00    +0.000 OA
ATOM      3  N   UNL     1       7.034   7.451  16.952  0.00  0.00    +0.000 N 
ATOM      4  H   UNL     1       6.637   8.047  16.221  0.00  0.00    +0.000 HD
ENDROOT
BRANCH   3   5
ATOM      5  N   UNL     1       6.631   6.097  16.918  0.00  0.00    +0.000 N 
ATOM      6  C   UNL     1       5.403   5.817  17.496  0.00  0.00    +0.000 C 
ATOM      7  O   UNL     1       4.759   6.691  18.073  0.00  0.00    +0.000 OA
ATOM      8  N   UNL     1       5.065   4.482  17.406  0.00  0.00    +0.000 N 
ATOM      9  H   UNL     1       6.907   5.591  16.080  0.00  0.00    +0.000 HD
ATOM     10  H   UNL     1       5.843   3.843  17.374  0.00  0.00    +0.000 HD
BRANCH   8  11
ATOM     11  C   UNL     1       3.857   3.991  17.955  0.00  0.00    +0.000 A 
ATOM     12  C   UNL     1       2.647   4.345  17.337  0.00  0.00    +0.000 A 
ATOM     13  C   UNL     1       1.429   3.848  17.801  0.00  0.00    +0.000 A 
ATOM     14  C   UNL     1       1.406   3.005  18.907  0.00  0.00    +0.000 A 
ATOM     15  C   UNL     1       2.604   2.635  19.522  0.00  0.00    +0.000 A 
ATOM     16  C   UNL     1       3.835   3.112  19.050  0.00  0.00    +0.000 A 
BRANCH  16  17
ATOM     17  O   UNL     1       4.926   2.608  19.707  0.00  0.00    +0.000 OA
ATOM     18  C   UNL     1       4.664   1.801  20.850  0.00  0.00    +0.000 C 
ENDBRANCH  16  17
ENDBRANCH   8  11
ENDBRANCH   3   5
BRANCH   1  19
ATOM     19  C   UNL     1       8.186   9.371  17.896  0.00  0.00    +0.000 C 
BRANCH  19  20
ATOM     20  C   UNL     1       9.043   9.801  19.087  0.00  0.00    +0.000 C 
BRANCH  20  24
ATOM     21  C   UNL     1      10.805  13.725  18.544  0.00  0.00    +0.000 A 
ATOM     22  C   UNL     1      10.991  12.723  17.591  0.00  0.00    +0.000 A 
ATOM     23  C   UNL     1      10.431  11.454  17.772  0.00  0.00    +0.000 A 
ATOM     24  C   UNL     1       9.688  11.159  18.923  0.00  0.00    +0.000 A 
ATOM     25  C   UNL     1       9.521  12.166  19.885  0.00  0.00    +0.000 A 
ATOM     26  C   UNL     1      10.078  13.440  19.698  0.00  0.00    +0.000 A 
BRANCH  21  28
ATOM     27  C   UNL     1      11.745  15.738  19.364  0.00  0.00    +0.000 C 
ATOM     28  O   UNL     1      11.404  14.920  18.252  0.00  0.00    +0.000 OA
ENDBRANCH  21  28
ENDBRANCH  20  24
ENDBRANCH  19  20
ENDBRANCH   1  19
TORSDOF 7
ENDMDL
MODEL 5
REMARK VINA RESULT:      -7.7      2.191     10.172
REMARK  Name = 
REMARK  9 active torsions:
REMARK  status: ('A' for Active; 'I' for Inactive)
REMARK    1  A    between atoms: C_1  and  O_2
REMARK    2  A    between atoms: O_2  and  C_3
REMARK    3  A    between atoms: C_6  and  C_7
REMARK    4  A    between atoms: C_7  and  C_8
REMARK    5  A    between atoms: C_8  and  C_9
REMARK    6  A    between atoms: N_11  and  N_12
REMARK    7  A    between atoms: N_15  and  C_16
REMARK    8  A    between atoms: C_21  and  O_22
REMARK    9  A    between atoms: O_22  and  C_23
REMARK                            x       y       z     vdW  Elec       q    Type
REMARK                         _______ _______ _______ _____ _____    ______ ____
ROOT
ATOM      1  C   UNL     1       6.398   6.718  17.411  0.00  0.00    +0.000 C 
ATOM      2  O   UNL     1       6.460   6.062  18.450  0.00  0.00    +0.000 OA
ATOM      3  N   UNL     1       7.241   7.763  17.140  0.00  0.00    +0.000 N 
ATOM      4  H   UNL     1       7.180   8.360  16.311  0.00  0.00    +0.000 HD
ENDROOT
BRANCH   3   5
ATOM      5  N   UNL     1       8.288   8.071  18.035  0.00  0.00    +0.000 N 
ATOM      6  C   UNL     1       8.406   9.406  18.391  0.00  0.00    +0.000 C 
ATOM      7  O   UNL     1       7.689  10.264  17.881  0.00  0.00    +0.000 OA
ATOM      8  N   UNL     1       9.434   9.630  19.284  0.00  0.00    +0.000 N 
ATOM      9  H   UNL     1       8.475   7.358  18.737  0.00  0.00    +0.000 HD
ATOM     10  H   UNL     1      10.203   8.981  19.226  0.00  0.00    +0.000 HD
BRANCH   8  11
ATOM     11  C   UNL     1       9.730  10.931  19.753  0.00  0.00    +0.000 A 
ATOM     12  C   UNL     1       9.252  11.314  21.017  0.00  0.00    +0.000 A 
ATOM     13  C   UNL     1       9.557  12.565  21.553  0.00  0.00    +0.000 A 
ATOM     14  C   UNL     1      10.329  13.459  20.820  0.00  0.00    +0.000 A 
ATOM     15  C   UNL     1      10.823  13.085  19.568  0.00  0.00    +0.000 A 
ATOM     16  C   UNL     1      10.540  11.822  19.029  0.00  0.00    +0.000 A 
BRANCH  16  17
ATOM     17  O   UNL     1      11.149  11.570  17.828  0.00  0.00    +0.000 OA
ATOM     18  C   UNL     1      11.629  12.702  17.109  0.00  0.00    +0.000 C 
ENDBRANCH  16  17
ENDBRANCH   8  11
ENDBRANCH   3   5
BRANCH   1  19
ATOM     19  C   UNL     1       5.365   6.446  16.333  0.00  0.00    +0.000 C 
BRANCH  19  20
ATOM     20  C   UNL     1       5.145   4.947  16.128  0.00  0.00    +0.000 C 
BRANCH  20  24
ATOM     21  C   UNL     1       2.018   3.256  18.610  0.00  0.00    +0.000 A 
ATOM     22  C   UNL     1       2.152   4.638  18.476  0.00  0.00    +0.000 A 
ATOM     23  C   UNL     1       3.168   5.183  17.685  0.00  0.00    +0.000 A 
ATOM     24  C   UNL     1       4.082   4.352  17.024  0.00  0.00    +0.000 A 
ATOM     25  C   UNL     1       3.952   2.964  17.178  0.00  0.00    +0.000 A 
ATOM     26  C   UNL     1       2.928   2.420  17.968  0.00  0.00    +0.000 A 
BRANCH  21  28
ATOM     27  C   UNL     1       1.068   3.237  20.779  0.00  0.00    +0.000 C 
ATOM     28  O   UNL     1       0.988   2.850  19.412  0.00  0.00    +0.000 OA
ENDBRANCH  21  28
ENDBRANCH  20  24
ENDBRANCH  19  20
ENDBRANCH   1  19
TORSDOF 7
ENDMDL
MODEL 6
REMARK VINA RESULT:      -7.7      2.348     10.411
REMARK  Name = 
REMARK  9 active torsions:
REMARK  status: ('A' for Active; 'I' for Inactive)
REMARK    1  A    between atoms: C_1  and  O_2
REMARK    2  A    between atoms: O_2  and  C_3
REMARK    3  A    between atoms: C_6  and  C_7
REMARK    4  A    between atoms: C_7  and  C_8
REMARK    5  A    between atoms: C_8  and  C_9
REMARK    6  A    between atoms: N_11  and  N_12
REMARK    7  A    between atoms: N_15  and  C_16
REMARK    8  A    between atoms: C_21  and  O_22
REMARK    9  A    between atoms: O_22  and  C_23
REMARK                            x       y       z     vdW  Elec       q    Type
REMARK                         _______ _______ _______ _____ _____    ______ ____
ROOT
ATOM      1  C   UNL     1       7.436   7.239  17.574  0.00  0.00    +0.000 C 
ATOM      2  O   UNL     1       6.657   7.581  16.685  0.00  0.00    +0.000 OA
ATOM      3  N   UNL     1       8.306   8.108  18.176  0.00  0.00    +0.000 N 
ATOM      4  H   UNL     1       9.002   7.843  18.879  0.00  0.00    +0.000 HD
ENDROOT
BRANCH   3   5
ATOM      5  N   UNL     1       8.273   9.479  17.841  0.00  0.00    +0.000 N 
ATOM      6  C   UNL     1       8.974  10.325  18.686  0.00  0.00    +0.000 C 
ATOM      7  O   UNL     1       9.512   9.900  19.706  0.00  0.00    +0.000 OA
ATOM      8  N   UNL     1       8.917  11.645  18.286  0.00  0.00    +0.000 N 
ATOM      9  H   UNL     1       8.270   9.675  16.843  0.00  0.00    +0.000 HD
ATOM     10  H   UNL     1       8.088  11.903  17.773  0.00  0.00    +0.000 HD
BRANCH   8  11
ATOM     11  C   UNL     1       9.552  12.667  19.030  0.00  0.00    +0.000 A 
ATOM     12  C   UNL     1       8.848  13.262  20.089  0.00  0.00    +0.000 A 
ATOM     13  C   UNL     1       9.443  14.236  20.891  0.00  0.00    +0.000 A 
ATOM     14  C   UNL     1      10.746  14.644  20.629  0.00  0.00    +0.000 A 
ATOM     15  C   UNL     1      11.461  14.050  19.586  0.00  0.00    +0.000 A 
ATOM     16  C   UNL     1      10.880  13.054  18.787  0.00  0.00    +0.000 A 
BRANCH  16  17
ATOM     17  O   UNL     1      11.724  12.515  17.853  0.00  0.00    +0.000 OA
ATOM     18  C   UNL     1      11.943  13.284  16.675  0.00  0.00    +0.000 C 
ENDBRANCH  16  17
ENDBRANCH   8  11
ENDBRANCH   3   5
BRANCH   1  19
ATOM     19  C   UNL     1       7.525   5.809  18.078  0.00  0.00    +0.000 C 
BRANCH  19  20
ATOM     20  C   UNL     1       6.536   5.551  19.214  0.00  0.00    +0.000 C 
BRANCH  20  24
ATOM     21  C   UNL     1       2.777   3.831  17.905  0.00  0.00    +0.000 A 
ATOM     22  C   UNL     1       2.881   4.452  19.150  0.00  0.00    +0.000 A 
ATOM     23  C   UNL     1       4.096   4.997  19.577  0.00  0.00    +0.000 A 
ATOM     24  C   UNL     1       5.238   4.914  18.769  0.00  0.00    +0.000 A 
ATOM     25  C   UNL     1       5.130   4.272  17.527  0.00  0.00    +0.000 A 
ATOM     26  C   UNL     1       3.908   3.732  17.099  0.00  0.00    +0.000 A 
BRANCH  21  28
ATOM     27  C   UNL     1       0.875   2.634  18.651  0.00  0.00    +0.000 C 
ATOM     28  O   UNL     1       1.537   3.338  17.607  0.00  0.00    +0.000 OA
ENDBRANCH  21  28
ENDBRANCH  20  24
ENDBRANCH  19  20
ENDBRANCH   1  19
TORSDOF 7
ENDMDL
MODEL 7
REMARK VINA RESULT:      -7.6      1.237      1.875
REMARK  Name = 
REMARK  9 active torsions:
REMARK  status: ('A' for Active; 'I' for Inactive)
REMARK    1  A    between atoms: C_1  and  O_2
REMARK    2  A    between atoms: O_2  and  C_3
REMARK    3  A    between atoms: C_6  and  C_7
REMARK    4  A    between atoms: C_7  and  C_8
REMARK    5  A    between atoms: C_8  and  C_9
REMARK    6  A    between atoms: N_11  and  N_12
REMARK    7  A    between atoms: N_15  and  C_16
REMARK    8  A    between atoms: C_21  and  O_22
REMARK    9  A    between atoms: O_22  and  C_23
REMARK                            x       y       z     vdW  Elec       q    Type
REMARK                         _______ _______ _______ _____ _____    ______ ____
ROOT
ATOM      1  C   UNL     1       7.499   6.872  17.432  0.00  0.00    +0.000 C 
ATOM      2  O   UNL     1       7.169   6.319  16.383  0.00  0.00    +0.000 OA
ATOM      3  N   UNL     1       7.311   6.304  18.663  0.00  0.00    +0.000 N 
ATOM      4  H   UNL     1       7.525   6.760  19.554  0.00  0.00    +0.000 HD
ENDROOT
BRANCH   3   5
ATOM      5  N   UNL     1       6.793   4.994  18.761  0.00  0.00    +0.000 N 
ATOM      6  C   UNL     1       5.486   4.892  19.208  0.00  0.00    +0.000 C 
ATOM      7  O   UNL     1       4.861   5.886  19.574  0.00  0.00    +0.000 OA
ATOM      8  N   UNL     1       5.040   3.586  19.256  0.00  0.00    +0.000 N 
ATOM      9  H   UNL     1       7.117   4.352  18.041  0.00  0.00    +0.000 HD
ATOM     10  H   UNL     1       5.754   2.894  19.411  0.00  0.00    +0.000 HD
BRANCH   8  11
ATOM     11  C   UNL     1       3.736   3.271  19.707  0.00  0.00    +0.000 A 
ATOM     12  C   UNL     1       3.585   2.726  20.992  0.00  0.00    +0.000 A 
ATOM     13  C   UNL     1       2.320   2.446  21.511  0.00  0.00    +0.000 A 
ATOM     14  C   UNL     1       1.189   2.688  20.739  0.00  0.00    +0.000 A 
ATOM     15  C   UNL     1       1.326   3.244  19.464  0.00  0.00    +0.000 A 
ATOM     16  C   UNL     1       2.591   3.549  18.942  0.00  0.00    +0.000 A 
BRANCH  16  17
ATOM     17  O   UNL     1       2.565   4.154  17.713  0.00  0.00    +0.000 OA
ATOM     18  C   UNL     1       3.138   3.424  16.633  0.00  0.00    +0.000 C 
ENDBRANCH  16  17
ENDBRANCH   8  11
ENDBRANCH   3   5
BRANCH   1  19
ATOM     19  C   UNL     1       8.131   8.252  17.465  0.00  0.00    +0.000 C 
BRANCH  19  20
ATOM     20  C   UNL     1       8.571   8.635  18.879  0.00  0.00    +0.000 C 
BRANCH  20  24
ATOM     21  C   UNL     1      10.345  12.579  19.199  0.00  0.00    +0.000 A 
ATOM     22  C   UNL     1      10.096  11.815  20.340  0.00  0.00    +0.000 A 
ATOM     23  C   UNL     1       9.514  10.547  20.237  0.00  0.00    +0.000 A 
ATOM     24  C   UNL     1       9.152  10.027  18.987  0.00  0.00    +0.000 A 
ATOM     25  C   UNL     1       9.390  10.808  17.846  0.00  0.00    +0.000 A 
ATOM     26  C   UNL     1       9.980  12.077  17.952  0.00  0.00    +0.000 A 
BRANCH  21  28
ATOM     27  C   UNL     1      10.498  14.468  20.617  0.00  0.00    +0.000 C 
ATOM     28  O   UNL     1      10.916  13.799  19.434  0.00  0.00    +0.000 OA
ENDBRANCH  21  28
ENDBRANCH  20  24
ENDBRANCH  19  20
ENDBRANCH   1  19
TORSDOF 7
ENDMDL
MODEL 8
REMARK VINA RESULT:      -7.6      2.220     10.098
REMARK  Name = 
REMARK  9 active torsions:
REMARK  status: ('A' for Active; 'I' for Inactive)
REMARK    1  A    between atoms: C_1  and  O_2
REMARK    2  A    between atoms: O_2  and  C_3
REMARK    3  A    between atoms: C_6  and  C_7
REMARK    4  A    between atoms: C_7  and  C_8
REMARK    5  A    between atoms: C_8  and  C_9
REMARK    6  A    between atoms: N_11  and  N_12
REMARK    7  A    between atoms: N_15  and  C_16
REMARK    8  A    between atoms: C_21  and  O_22
REMARK    9  A    between atoms: O_22  and  C_23
REMARK                            x       y       z     vdW  Elec       q    Type
REMARK                         _______ _______ _______ _____ _____    ______ ____
ROOT
ATOM      1  C   UNL     1       6.823   6.644  17.595  0.00  0.00    +0.000 C 
ATOM      2  O   UNL     1       6.882   5.984  18.632  0.00  0.00    +0.000 OA
ATOM      3  N   UNL     1       7.578   7.767  17.384  0.00  0.00    +0.000 N 
ATOM      4  H   UNL     1       7.513   8.366  16.557  0.00  0.00    +0.000 HD
ENDROOT
BRANCH   3   5
ATOM      5  N   UNL     1       8.534   8.162  18.346  0.00  0.00    +0.000 N 
ATOM      6  C   UNL     1       8.621   9.523  18.588  0.00  0.00    +0.000 C 
ATOM      7  O   UNL     1       7.960  10.328  17.934  0.00  0.00    +0.000 OA
ATOM      8  N   UNL     1       9.557   9.833  19.554  0.00  0.00    +0.000 N 
ATOM      9  H   UNL     1       8.648   7.516  19.125  0.00  0.00    +0.000 HD
ATOM     10  H   UNL     1      10.326   9.187  19.630  0.00  0.00    +0.000 HD
BRANCH   8  11
ATOM     11  C   UNL     1       9.811  11.174  19.928  0.00  0.00    +0.000 A 
ATOM     12  C   UNL     1       9.286  11.641  21.144  0.00  0.00    +0.000 A 
ATOM     13  C   UNL     1       9.548  12.936  21.591  0.00  0.00    +0.000 A 
ATOM     14  C   UNL     1      10.322  13.790  20.813  0.00  0.00    +0.000 A 
ATOM     15  C   UNL     1      10.861  13.333  19.609  0.00  0.00    +0.000 A 
ATOM     16  C   UNL     1      10.622  12.026  19.161  0.00  0.00    +0.000 A 
BRANCH  16  17
ATOM     17  O   UNL     1      11.273  11.697  18.001  0.00  0.00    +0.000 OA
ATOM     18  C   UNL     1      11.740  12.781  17.205  0.00  0.00    +0.000 C 
ENDBRANCH  16  17
ENDBRANCH   8  11
ENDBRANCH   3   5
BRANCH   1  19
ATOM     19  C   UNL     1       5.889   6.290  16.452  0.00  0.00    +0.000 C 
BRANCH  19  20
ATOM     20  C   UNL     1       4.441   6.662  16.773  0.00  0.00    +0.000 C 
BRANCH  20  24
ATOM     21  C   UNL     1       2.329   3.537  18.911  0.00  0.00    +0.000 A 
ATOM     22  C   UNL     1       3.248   3.219  17.911  0.00  0.00    +0.000 A 
ATOM     23  C   UNL     1       3.920   4.228  17.214  0.00  0.00    +0.000 A 
ATOM     24  C   UNL     1       3.671   5.578  17.495  0.00  0.00    +0.000 A 
ATOM     25  C   UNL     1       2.733   5.890  18.490  0.00  0.00    +0.000 A 
ATOM     26  C   UNL     1       2.065   4.876  19.192  0.00  0.00    +0.000 A 
BRANCH  21  28
ATOM     27  C   UNL     1       1.657   2.509  20.936  0.00  0.00    +0.000 C 
ATOM     28  O   UNL     1       1.738   2.462  19.516  0.00  0.00    +0.000 OA
ENDBRANCH  21  28
ENDBRANCH  20  24
ENDBRANCH  19  20
ENDBRANCH   1  19
TORSDOF 7
ENDMDL
MODEL 9
REMARK VINA RESULT:      -7.6      2.458     10.078
REMARK  Name = 
REMARK  9 active torsions:
REMARK  status: ('A' for Active; 'I' for Inactive)
REMARK    1  A    between atoms: C_1  and  O_2
REMARK    2  A    between atoms: O_2  and  C_3
REMARK    3  A    between atoms: C_6  and  C_7
REMARK    4  A    between atoms: C_7  and  C_8
REMARK    5  A    between atoms: C_8  and  C_9
REMARK    6  A    between atoms: N_11  and  N_12
REMARK    7  A    between atoms: N_15  and  C_16
REMARK    8  A    between atoms: C_21  and  O_22
REMARK    9  A    between atoms: O_22  and  C_23
REMARK                            x       y       z     vdW  Elec       q    Type
REMARK                         _______ _______ _______ _____ _____    ______ ____
ROOT
ATOM      1  C   UNL     1       7.294   6.764  17.882  0.00  0.00    +0.000 C 
ATOM      2  O   UNL     1       7.327   6.047  18.882  0.00  0.00    +0.000 OA
ATOM      3  N   UNL     1       7.912   7.984  17.821  0.00  0.00    +0.000 N 
ATOM      4  H   UNL     1       7.858   8.625  17.025  0.00  0.00    +0.000 HD
ENDROOT
BRANCH   3   5
ATOM      5  N   UNL     1       8.699   8.429  18.906  0.00  0.00    +0.000 N 
ATOM      6  C   UNL     1       8.964   9.788  18.944  0.00  0.00    +0.000 C 
ATOM      7  O   UNL     1       8.601  10.531  18.034  0.00  0.00    +0.000 OA
ATOM      8  N   UNL     1       9.716  10.154  20.042  0.00  0.00    +0.000 N 
ATOM      9  H   UNL     1       8.536   7.936  19.782  0.00  0.00    +0.000 HD
ATOM     10  H   UNL     1      10.330   9.439  20.399  0.00  0.00    +0.000 HD
BRANCH   8  11
ATOM     11  C   UNL     1      10.109  11.497  20.249  0.00  0.00    +0.000 A 
ATOM     12  C   UNL     1      11.139  12.025  19.453  0.00  0.00    +0.000 A 
ATOM     13  C   UNL     1      11.532  13.357  19.575  0.00  0.00    +0.000 A 
ATOM     14  C   UNL     1      10.913  14.175  20.514  0.00  0.00    +0.000 A 
ATOM     15  C   UNL     1       9.878  13.666  21.302  0.00  0.00    +0.000 A 
ATOM     16  C   UNL     1       9.461  12.333  21.172  0.00  0.00    +0.000 A 
BRANCH  16  17
ATOM     17  O   UNL     1       8.391  11.997  21.959  0.00  0.00    +0.000 OA
ATOM     18  C   UNL     1       7.590  13.072  22.437  0.00  0.00    +0.000 C 
ENDBRANCH  16  17
ENDBRANCH   8  11
ENDBRANCH   3   5
BRANCH   1  19
ATOM     19  C   UNL     1       6.543   6.374  16.622  0.00  0.00    +0.000 C 
BRANCH  19  20
ATOM     20  C   UNL     1       5.069   6.777  16.697  0.00  0.00    +0.000 C 
BRANCH  20  24
ATOM     21  C   UNL     1       2.378   3.664  18.064  0.00  0.00    +0.000 A 
ATOM     22  C   UNL     1       2.146   5.001  18.391  0.00  0.00    +0.000 A 
ATOM     23  C   UNL     1       3.021   6.003  17.959  0.00  0.00    +0.000 A 
ATOM     24  C   UNL     1       4.157   5.683  17.205  0.00  0.00    +0.000 A 
ATOM     25  C   UNL     1       4.394   4.335  16.895  0.00  0.00    +0.000 A 
ATOM     26  C   UNL     1       3.511   3.332  17.324  0.00  0.00    +0.000 A 
BRANCH  21  28
ATOM     27  C   UNL     1       1.208   2.834  19.948  0.00  0.00    +0.000 C 
ATOM     28  O   UNL     1       1.452   2.782  18.547  0.00  0.00    +0.000 OA
ENDBRANCH  21  28
ENDBRANCH  20  24
ENDBRANCH  19  20
ENDBRANCH   1  19
TORSDOF 7
ENDMDL
