MODEL 1
REMARK VINA RESULT:      -7.3      0.000      0.000
REMARK  Name = 
REMARK  10 active torsions:
REMARK  status: ('A' for Active; 'I' for Inactive)
REMARK    1  A    between atoms: C_1  and  C_2
REMARK    2  A    between atoms: C_2  and  C_4
REMARK    3  A    between atoms: C_5  and  C_6
REMARK    4  A    between atoms: C_7  and  C_8
REMARK    5  A    between atoms: C_7  and  C_9
REMARK    6  A    between atoms: C_10  and  C_11
REMARK    7  A    between atoms: C_12  and  C_13
REMARK    8  A    between atoms: C_15  and  O_16
REMARK    9  A    between atoms: C_18  and  C_19
REMARK   10  A    between atoms: C_18  and  C_20
REMARK                            x       y       z     vdW  Elec       q    Type
REMARK                         _______ _______ _______ _____ _____    ______ ____
ROOT
ATOM      1  C   UNL     1       2.535   4.392  18.314  0.00  0.00    +0.000 C 
ATOM      2  C   UNL     1       4.045   4.427  18.165  0.00  0.00    +0.000 C 
ATOM      3  C   UNL     1       4.628   5.271  17.057  0.00  0.00    +0.000 C 
ATOM      4  C   UNL     1       4.879   3.698  18.919  0.00  0.00    +0.000 C 
ATOM      5  C   UNL     1       4.480   2.768  19.998  0.00  0.00    +0.000 C 
ATOM      6  C   UNL     1       2.988   2.631  20.291  0.00  0.00    +0.000 C 
ATOM      7  C   UNL     1       1.953   3.396  19.405  0.00  0.00    +0.000 C 
ATOM      8  C   UNL     1       1.125   2.335  18.627  0.00  0.00    +0.000 C 
ATOM      9  C   UNL     1       0.952   4.062  20.391  0.00  0.00    +0.000 C 
ENDROOT
BRANCH   1  11
ATOM     10  C   UNL     1       2.410   6.740  19.278  0.00  0.00    +0.000 C 
ATOM     11  C   UNL     1       1.987   5.808  18.397  0.00  0.00    +0.000 C 
BRANCH  10  13
ATOM     12  C   UNL     1       1.335   8.470  20.623  0.00  0.00    +0.000 C 
ATOM     13  C   UNL     1       1.859   8.090  19.432  0.00  0.00    +0.000 C 
ATOM     14  C   UNL     1       1.904   8.972  18.203  0.00  0.00    +0.000 C 
BRANCH  12  16
ATOM     15  C   UNL     1       0.018  10.055  21.995  0.00  0.00    +0.000 C 
ATOM     16  C   UNL     1       0.764   9.768  20.921  0.00  0.00    +0.000 C 
BRANCH  15  18
ATOM     17  C   UNL     1      -0.279  12.396  21.021  0.00  0.00    +0.000 C 
ATOM     18  C   UNL     1      -0.470  11.455  22.173  0.00  0.00    +0.000 C 
ATOM     19  O   UNL     1      -1.009  11.825  23.219  0.00  0.00    +0.000 OA
ENDBRANCH  15  18
ENDBRANCH  12  16
ENDBRANCH  10  13
ENDBRANCH   1  11
BRANCH   5  20
ATOM     20  O   UNL     1       5.008   1.487  19.661  0.00  0.00    +0.000 OA
ATOM     21  H   UNL     1       4.505   1.167  18.894  0.00  0.00    +0.000 HD
ENDBRANCH   5  20
TORSDOF 5
ENDMDL
MODEL 2
REMARK VINA RESULT:      -7.3      2.015      3.281
REMARK  Name = 
REMARK  10 active torsions:
REMARK  status: ('A' for Active; 'I' for Inactive)
REMARK    1  A    between atoms: C_1  and  C_2
REMARK    2  A    between atoms: C_2  and  C_4
REMARK    3  A    between atoms: C_5  and  C_6
REMARK    4  A    between atoms: C_7  and  C_8
REMARK    5  A    between atoms: C_7  and  C_9
REMARK    6  A    between atoms: C_10  and  C_11
REMARK    7  A    between atoms: C_12  and  C_13
REMARK    8  A    between atoms: C_15  and  O_16
REMARK    9  A    between atoms: C_18  and  C_19
REMARK   10  A    between atoms: C_18  and  C_20
REMARK                            x       y       z     vdW  Elec       q    Type
REMARK                         _______ _______ _______ _____ _____    ______ ____
ROOT
ATOM      1  C   UNL     1       3.090   4.600  19.386  0.00  0.00    +0.000 C 
ATOM      2  C   UNL     1       2.193   3.416  19.694  0.00  0.00    +0.000 C 
ATOM      3  C   UNL     1       1.234   3.536  20.855  0.00  0.00    +0.000 C 
ATOM      4  C   UNL     1       2.255   2.251  19.035  0.00  0.00    +0.000 C 
ATOM      5  C   UNL     1       3.178   1.934  17.924  0.00  0.00    +0.000 C 
ATOM      6  C   UNL     1       4.139   3.031  17.475  0.00  0.00    +0.000 C 
ATOM      7  C   UNL     1       4.172   4.392  18.243  0.00  0.00    +0.000 C 
ATOM      8  C   UNL     1       5.560   4.508  18.933  0.00  0.00    +0.000 C 
ATOM      9  C   UNL     1       4.155   5.501  17.154  0.00  0.00    +0.000 C 
ENDROOT
BRANCH   1  11
ATOM     10  C   UNL     1       2.425   6.980  19.976  0.00  0.00    +0.000 C 
ATOM     11  C   UNL     1       2.254   5.862  19.241  0.00  0.00    +0.000 C 
BRANCH  10  13
ATOM     12  C   UNL     1       1.485   8.864  18.742  0.00  0.00    +0.000 C 
ATOM     13  C   UNL     1       1.596   8.188  19.912  0.00  0.00    +0.000 C 
ATOM     14  C   UNL     1       0.928   8.608  21.204  0.00  0.00    +0.000 C 
BRANCH  12  16
ATOM     15  C   UNL     1      -0.607  10.092  18.241  0.00  0.00    +0.000 C 
ATOM     16  C   UNL     1       0.700  10.065  18.530  0.00  0.00    +0.000 C 
BRANCH  15  18
ATOM     17  C   UNL     1      -2.544  11.451  17.281  0.00  0.00    +0.000 C 
ATOM     18  C   UNL     1      -1.276  11.417  18.085  0.00  0.00    +0.000 C 
ATOM     19  O   UNL     1      -0.814  12.441  18.592  0.00  0.00    +0.000 OA
ENDBRANCH  15  18
ENDBRANCH  12  16
ENDBRANCH  10  13
ENDBRANCH   1  11
BRANCH   5  20
ATOM     20  O   UNL     1       3.930   0.788  18.319  0.00  0.00    +0.000 OA
ATOM     21  H   UNL     1       3.952   0.786  19.290  0.00  0.00    +0.000 HD
ENDBRANCH   5  20
TORSDOF 5
ENDMDL
MODEL 3
REMARK VINA RESULT:      -7.2      1.174      2.560
REMARK  Name = 
REMARK  10 active torsions:
REMARK  status: ('A' for Active; 'I' for Inactive)
REMARK    1  A    between atoms: C_1  and  C_2
REMARK    2  A    between atoms: C_2  and  C_4
REMARK    3  A    between atoms: C_5  and  C_6
REMARK    4  A    between atoms: C_7  and  C_8
REMARK    5  A    between atoms: C_7  and  C_9
REMARK    6  A    between atoms: C_10  and  C_11
REMARK    7  A    between atoms: C_12  and  C_13
REMARK    8  A    between atoms: C_15  and  O_16
REMARK    9  A    between atoms: C_18  and  C_19
REMARK   10  A    between atoms: C_18  and  C_20
REMARK                            x       y       z     vdW  Elec       q    Type
REMARK                         _______ _______ _______ _____ _____    ______ ____
ROOT
ATOM      1  C   UNL     1       3.003   4.396  19.689  0.00  0.00    +0.000 C 
ATOM      2  C   UNL     1       2.207   3.138  19.982  0.00  0.00    +0.000 C 
ATOM      3  C   UNL     1       1.351   3.115  21.225  0.00  0.00    +0.000 C 
ATOM      4  C   UNL     1       2.278   2.028  19.235  0.00  0.00    +0.000 C 
ATOM      5  C   UNL     1       3.115   1.849  18.029  0.00  0.00    +0.000 C 
ATOM      6  C   UNL     1       3.967   3.035  17.584  0.00  0.00    +0.000 C 
ATOM      7  C   UNL     1       3.990   4.338  18.446  0.00  0.00    +0.000 C 
ATOM      8  C   UNL     1       5.424   4.495  19.023  0.00  0.00    +0.000 C 
ATOM      9  C   UNL     1       3.811   5.517  17.448  0.00  0.00    +0.000 C 
ENDROOT
BRANCH   1  11
ATOM     10  C   UNL     1       2.383   6.781  20.307  0.00  0.00    +0.000 C 
ATOM     11  C   UNL     1       2.086   5.609  19.710  0.00  0.00    +0.000 C 
BRANCH  10  13
ATOM     12  C   UNL     1       0.704   8.095  21.495  0.00  0.00    +0.000 C 
ATOM     13  C   UNL     1       1.498   7.946  20.407  0.00  0.00    +0.000 C 
ATOM     14  C   UNL     1       1.528   8.907  19.238  0.00  0.00    +0.000 C 
BRANCH  12  16
ATOM     15  C   UNL     1       0.044  10.264  22.491  0.00  0.00    +0.000 C 
ATOM     16  C   UNL     1      -0.213   9.192  21.730  0.00  0.00    +0.000 C 
BRANCH  15  18
ATOM     17  C   UNL     1      -0.803  12.567  21.783  0.00  0.00    +0.000 C 
ATOM     18  C   UNL     1      -0.999  11.326  22.605  0.00  0.00    +0.000 C 
ATOM     19  O   UNL     1      -1.981  11.194  23.338  0.00  0.00    +0.000 OA
ENDBRANCH  15  18
ENDBRANCH  12  16
ENDBRANCH  10  13
ENDBRANCH   1  11
BRANCH   5  20
ATOM     20  O   UNL     1       3.965   0.730  18.272  0.00  0.00    +0.000 OA
ATOM     21  H   UNL     1       4.381   0.874  19.138  0.00  0.00    +0.000 HD
ENDBRANCH   5  20
TORSDOF 5
ENDMDL
MODEL 4
REMARK VINA RESULT:      -7.2      2.276      3.848
REMARK  Name = 
REMARK  10 active torsions:
REMARK  status: ('A' for Active; 'I' for Inactive)
REMARK    1  A    between atoms: C_1  and  C_2
REMARK    2  A    between atoms: C_2  and  C_4
REMARK    3  A    between atoms: C_5  and  C_6
REMARK    4  A    between atoms: C_7  and  C_8
REMARK    5  A    between atoms: C_7  and  C_9
REMARK    6  A    between atoms: C_10  and  C_11
REMARK    7  A    between atoms: C_12  and  C_13
REMARK    8  A    between atoms: C_15  and  O_16
REMARK    9  A    between atoms: C_18  and  C_19
REMARK   10  A    between atoms: C_18  and  C_20
REMARK                            x       y       z     vdW  Elec       q    Type
REMARK                         _______ _______ _______ _____ _____    ______ ____
ROOT
ATOM      1  C   UNL     1       5.139   5.084  17.801  0.00  0.00    +0.000 C 
ATOM      2  C   UNL     1       4.294   4.243  16.861  0.00  0.00    +0.000 C 
ATOM      3  C   UNL     1       3.068   3.566  17.426  0.00  0.00    +0.000 C 
ATOM      4  C   UNL     1       4.615   4.018  15.580  0.00  0.00    +0.000 C 
ATOM      5  C   UNL     1       5.810   4.541  14.883  0.00  0.00    +0.000 C 
ATOM      6  C   UNL     1       6.759   5.426  15.686  0.00  0.00    +0.000 C 
ATOM      7  C   UNL     1       6.487   5.674  17.205  0.00  0.00    +0.000 C 
ATOM      8  C   UNL     1       7.643   5.012  18.004  0.00  0.00    +0.000 C 
ATOM      9  C   UNL     1       6.652   7.205  17.427  0.00  0.00    +0.000 C 
ENDROOT
BRANCH   1  11
ATOM     10  C   UNL     1       3.246   6.773  17.939  0.00  0.00    +0.000 C 
ATOM     11  C   UNL     1       4.265   6.102  18.516  0.00  0.00    +0.000 C 
BRANCH  10  13
ATOM     12  C   UNL     1       2.130   7.713  19.895  0.00  0.00    +0.000 C 
ATOM     13  C   UNL     1       2.428   7.810  18.576  0.00  0.00    +0.000 C 
ATOM     14  C   UNL     1       1.950   8.928  17.676  0.00  0.00    +0.000 C 
BRANCH  12  16
ATOM     15  C   UNL     1       0.995   8.521  21.942  0.00  0.00    +0.000 C 
ATOM     16  C   UNL     1       1.340   8.661  20.655  0.00  0.00    +0.000 C 
BRANCH  15  18
ATOM     17  C   UNL     1      -0.585  10.511  21.688  0.00  0.00    +0.000 C 
ATOM     18  C   UNL     1       0.202   9.608  22.591  0.00  0.00    +0.000 C 
ATOM     19  O   UNL     1       0.191   9.759  23.815  0.00  0.00    +0.000 OA
ENDBRANCH  15  18
ENDBRANCH  12  16
ENDBRANCH  10  13
ENDBRANCH   1  11
BRANCH   5  20
ATOM     20  O   UNL     1       6.531   3.414  14.387  0.00  0.00    +0.000 OA
ATOM     21  H   UNL     1       7.213   3.759  13.786  0.00  0.00    +0.000 HD
ENDBRANCH   5  20
TORSDOF 5
ENDMDL
MODEL 5
REMARK VINA RESULT:      -7.2      1.621      1.948
REMARK  Name = 
REMARK  10 active torsions:
REMARK  status: ('A' for Active; 'I' for Inactive)
REMARK    1  A    between atoms: C_1  and  C_2
REMARK    2  A    between atoms: C_2  and  C_4
REMARK    3  A    between atoms: C_5  and  C_6
REMARK    4  A    between atoms: C_7  and  C_8
REMARK    5  A    between atoms: C_7  and  C_9
REMARK    6  A    between atoms: C_10  and  C_11
REMARK    7  A    between atoms: C_12  and  C_13
REMARK    8  A    between atoms: C_15  and  O_16
REMARK    9  A    between atoms: C_18  and  C_19
REMARK   10  A    between atoms: C_18  and  C_20
REMARK                            x       y       z     vdW  Elec       q    Type
REMARK                         _______ _______ _______ _____ _____    ______ ____
ROOT
ATOM      1  C   UNL     1       2.553   4.332  18.331  0.00  0.00    +0.000 C 
ATOM      2  C   UNL     1       4.065   4.367  18.200  0.00  0.00    +0.000 C 
ATOM      3  C   UNL     1       4.661   5.227  17.111  0.00  0.00    +0.000 C 
ATOM      4  C   UNL     1       4.890   3.627  18.953  0.00  0.00    +0.000 C 
ATOM      5  C   UNL     1       4.478   2.682  20.013  0.00  0.00    +0.000 C 
ATOM      6  C   UNL     1       2.983   2.542  20.287  0.00  0.00    +0.000 C 
ATOM      7  C   UNL     1       1.958   3.321  19.401  0.00  0.00    +0.000 C 
ATOM      8  C   UNL     1       1.139   2.272  18.598  0.00  0.00    +0.000 C 
ATOM      9  C   UNL     1       0.947   3.974  20.386  0.00  0.00    +0.000 C 
ENDROOT
BRANCH   1  11
ATOM     10  C   UNL     1       2.408   6.660  19.337  0.00  0.00    +0.000 C 
ATOM     11  C   UNL     1       2.006   5.747  18.429  0.00  0.00    +0.000 C 
BRANCH  10  13
ATOM     12  C   UNL     1       1.755   8.831  18.431  0.00  0.00    +0.000 C 
ATOM     13  C   UNL     1       1.856   8.009  19.505  0.00  0.00    +0.000 C 
ATOM     14  C   UNL     1       1.451   8.393  20.911  0.00  0.00    +0.000 C 
BRANCH  12  16
ATOM     15  C   UNL     1      -0.071  10.502  18.501  0.00  0.00    +0.000 C 
ATOM     16  C   UNL     1       1.228  10.181  18.446  0.00  0.00    +0.000 C 
BRANCH  15  18
ATOM     17  C   UNL     1       0.631  12.925  18.897  0.00  0.00    +0.000 C 
ATOM     18  C   UNL     1      -0.449  11.945  18.542  0.00  0.00    +0.000 C 
ATOM     19  O   UNL     1      -1.597  12.322  18.295  0.00  0.00    +0.000 OA
ENDBRANCH  15  18
ENDBRANCH  12  16
ENDBRANCH  10  13
ENDBRANCH   1  11
BRANCH   5  20
ATOM     20  O   UNL     1       5.009   1.405  19.664  0.00  0.00    +0.000 OA
ATOM     21  H   UNL     1       4.460   1.059  18.940  0.00  0.00    +0.000 HD
ENDBRANCH   5  20
TORSDOF 5
ENDMDL
MODEL 6
REMARK VINA RESULT:      -7.1      1.639      2.888
REMARK  Name = 
REMARK  10 active torsions:
REMARK  status: ('A' for Active; 'I' for Inactive)
REMARK    1  A    between atoms: C_1  and  C_2
REMARK    2  A    between atoms: C_2  and  C_4
REMARK    3  A    between atoms: C_5  and  C_6
REMARK    4  A    between atoms: C_7  and  C_8
REMARK    5  A    between atoms: C_7  and  C_9
REMARK    6  A    between atoms: C_10  and  C_11
REMARK    7  A    between atoms: C_12  and  C_13
REMARK    8  A    between atoms: C_15  and  O_16
REMARK    9  A    between atoms: C_18  and  C_19
REMARK   10  A    between atoms: C_18  and  C_20
REMARK                            x       y       z     vdW  Elec       q    Type
REMARK                         _______ _______ _______ _____ _____    ______ ____
ROOT
ATOM      1  C   UNL     1       3.038   4.966  19.008  0.00  0.00    +0.000 C 
ATOM      2  C   UNL     1       1.972   3.924  19.292  0.00  0.00    +0.000 C 
ATOM      3  C   UNL     1       0.894   4.267  20.291  0.00  0.00    +0.000 C 
ATOM      4  C   UNL     1       1.977   2.696  18.754  0.00  0.00    +0.000 C 
ATOM      5  C   UNL     1       2.991   2.167  17.816  0.00  0.00    +0.000 C 
ATOM      6  C   UNL     1       4.128   3.102  17.410  0.00  0.00    +0.000 C 
ATOM      7  C   UNL     1       4.225   4.524  18.051  0.00  0.00    +0.000 C 
ATOM      8  C   UNL     1       5.516   4.562  18.915  0.00  0.00    +0.000 C 
ATOM      9  C   UNL     1       4.483   5.509  16.876  0.00  0.00    +0.000 C 
ENDROOT
BRANCH   1  11
ATOM     10  C   UNL     1       2.369   7.381  19.426  0.00  0.00    +0.000 C 
ATOM     11  C   UNL     1       2.386   6.288  18.635  0.00  0.00    +0.000 C 
BRANCH  10  13
ATOM     12  C   UNL     1       0.917   9.233  20.074  0.00  0.00    +0.000 C 
ATOM     13  C   UNL     1       1.693   8.648  19.129  0.00  0.00    +0.000 C 
ATOM     14  C   UNL     1       1.907   9.208  17.739  0.00  0.00    +0.000 C 
BRANCH  12  16
ATOM     15  C   UNL     1      -1.051  10.600  19.452  0.00  0.00    +0.000 C 
ATOM     16  C   UNL     1       0.196  10.481  19.924  0.00  0.00    +0.000 C 
BRANCH  15  18
ATOM     17  C   UNL     1      -0.753  13.131  19.608  0.00  0.00    +0.000 C 
ATOM     18  C   UNL     1      -1.666  11.960  19.391  0.00  0.00    +0.000 C 
ATOM     19  O   UNL     1      -2.869  12.118  19.171  0.00  0.00    +0.000 OA
ENDBRANCH  15  18
ENDBRANCH  12  16
ENDBRANCH  10  13
ENDBRANCH   1  11
BRANCH   5  20
ATOM     20  O   UNL     1       3.542   0.995  18.414  0.00  0.00    +0.000 OA
ATOM     21  H   UNL     1       4.100   1.291  19.153  0.00  0.00    +0.000 HD
ENDBRANCH   5  20
TORSDOF 5
ENDMDL
MODEL 7
REMARK VINA RESULT:      -7.0      1.267      2.712
REMARK  Name = 
REMARK  10 active torsions:
REMARK  status: ('A' for Active; 'I' for Inactive)
REMARK    1  A    between atoms: C_1  and  C_2
REMARK    2  A    between atoms: C_2  and  C_4
REMARK    3  A    between atoms: C_5  and  C_6
REMARK    4  A    between atoms: C_7  and  C_8
REMARK    5  A    between atoms: C_7  and  C_9
REMARK    6  A    between atoms: C_10  and  C_11
REMARK    7  A    between atoms: C_12  and  C_13
REMARK    8  A    between atoms: C_15  and  O_16
REMARK    9  A    between atoms: C_18  and  C_19
REMARK   10  A    between atoms: C_18  and  C_20
REMARK                            x       y       z     vdW  Elec       q    Type
REMARK                         _______ _______ _______ _____ _____    ______ ____
ROOT
ATOM      1  C   UNL     1       3.012   5.052  19.378  0.00  0.00    +0.000 C 
ATOM      2  C   UNL     1       2.058   3.873  19.443  0.00  0.00    +0.000 C 
ATOM      3  C   UNL     1       0.973   3.897  20.493  0.00  0.00    +0.000 C 
ATOM      4  C   UNL     1       2.170   2.787  18.666  0.00  0.00    +0.000 C 
ATOM      5  C   UNL     1       3.210   2.564  17.638  0.00  0.00    +0.000 C 
ATOM      6  C   UNL     1       4.242   3.669  17.431  0.00  0.00    +0.000 C 
ATOM      7  C   UNL     1       4.216   4.933  18.350  0.00  0.00    +0.000 C 
ATOM      8  C   UNL     1       5.515   4.922  19.202  0.00  0.00    +0.000 C 
ATOM      9  C   UNL     1       4.352   6.158  17.401  0.00  0.00    +0.000 C 
ENDROOT
BRANCH   1  11
ATOM     10  C   UNL     1       2.227   7.312  20.232  0.00  0.00    +0.000 C 
ATOM     11  C   UNL     1       2.228   6.351  19.285  0.00  0.00    +0.000 C 
BRANCH  10  13
ATOM     12  C   UNL     1       0.887   9.013  21.357  0.00  0.00    +0.000 C 
ATOM     13  C   UNL     1       1.432   8.544  20.208  0.00  0.00    +0.000 C 
ATOM     14  C   UNL     1       1.262   9.201  18.855  0.00  0.00    +0.000 C 
BRANCH  12  16
ATOM     15  C   UNL     1      -0.592  10.578  22.581  0.00  0.00    +0.000 C 
ATOM     16  C   UNL     1       0.086  10.215  21.484  0.00  0.00    +0.000 C 
BRANCH  15  18
ATOM     17  C   UNL     1      -2.626  11.922  23.341  0.00  0.00    +0.000 C 
ATOM     18  C   UNL     1      -1.345  11.867  22.560  0.00  0.00    +0.000 C 
ATOM     19  O   UNL     1      -0.936  12.847  21.933  0.00  0.00    +0.000 OA
ENDBRANCH  15  18
ENDBRANCH  12  16
ENDBRANCH  10  13
ENDBRANCH   1  11
BRANCH   5  20
ATOM     20  O   UNL     1       3.884   1.355  17.981  0.00  0.00    +0.000 OA
ATOM     21  H   UNL     1       4.480   1.565  18.720  0.00  0.00    +0.000 HD
ENDBRANCH   5  20
TORSDOF 5
ENDMDL
MODEL 8
REMARK VINA RESULT:      -7.0      1.828      2.290
REMARK  Name = 
REMARK  10 active torsions:
REMARK  status: ('A' for Active; 'I' for Inactive)
REMARK    1  A    between atoms: C_1  and  C_2
REMARK    2  A    between atoms: C_2  and  C_4
REMARK    3  A    between atoms: C_5  and  C_6
REMARK    4  A    between atoms: C_7  and  C_8
REMARK    5  A    between atoms: C_7  and  C_9
REMARK    6  A    between atoms: C_10  and  C_11
REMARK    7  A    between atoms: C_12  and  C_13
REMARK    8  A    between atoms: C_15  and  O_16
REMARK    9  A    between atoms: C_18  and  C_19
REMARK   10  A    between atoms: C_18  and  C_20
REMARK                            x       y       z     vdW  Elec       q    Type
REMARK                         _______ _______ _______ _____ _____    ______ ____
ROOT
ATOM      1  C   UNL     1       2.469   4.446  18.295  0.00  0.00    +0.000 C 
ATOM      2  C   UNL     1       3.974   4.456  18.100  0.00  0.00    +0.000 C 
ATOM      3  C   UNL     1       4.536   5.291  16.976  0.00  0.00    +0.000 C 
ATOM      4  C   UNL     1       4.818   3.713  18.828  0.00  0.00    +0.000 C 
ATOM      5  C   UNL     1       4.437   2.789  19.918  0.00  0.00    +0.000 C 
ATOM      6  C   UNL     1       2.953   2.675  20.256  0.00  0.00    +0.000 C 
ATOM      7  C   UNL     1       1.904   3.458  19.403  0.00  0.00    +0.000 C 
ATOM      8  C   UNL     1       1.036   2.412  18.650  0.00  0.00    +0.000 C 
ATOM      9  C   UNL     1       0.945   4.140  20.420  0.00  0.00    +0.000 C 
ENDROOT
BRANCH   1  11
ATOM     10  C   UNL     1       2.374   6.778  19.299  0.00  0.00    +0.000 C 
ATOM     11  C   UNL     1       1.948   5.871  18.396  0.00  0.00    +0.000 C 
BRANCH  10  13
ATOM     12  C   UNL     1       1.849   8.993  18.419  0.00  0.00    +0.000 C 
ATOM     13  C   UNL     1       1.848   8.136  19.469  0.00  0.00    +0.000 C 
ATOM     14  C   UNL     1       1.349   8.489  20.854  0.00  0.00    +0.000 C 
BRANCH  12  16
ATOM     15  C   UNL     1       2.122  11.454  18.352  0.00  0.00    +0.000 C 
ATOM     16  C   UNL     1       1.358  10.357  18.439  0.00  0.00    +0.000 C 
BRANCH  15  18
ATOM     17  C   UNL     1      -0.026  12.814  18.587  0.00  0.00    +0.000 C 
ATOM     18  C   UNL     1       1.456  12.790  18.355  0.00  0.00    +0.000 C 
ATOM     19  O   UNL     1       2.092  13.831  18.177  0.00  0.00    +0.000 OA
ENDBRANCH  15  18
ENDBRANCH  12  16
ENDBRANCH  10  13
ENDBRANCH   1  11
BRANCH   5  20
ATOM     20  O   UNL     1       4.934   1.499  19.565  0.00  0.00    +0.000 OA
ATOM     21  H   UNL     1       4.232   0.860  19.773  0.00  0.00    +0.000 HD
ENDBRANCH   5  20
TORSDOF 5
ENDMDL
MODEL 9
REMARK VINA RESULT:      -6.9      1.422      2.754
REMARK  Name = 
REMARK  10 active torsions:
REMARK  status: ('A' for Active; 'I' for Inactive)
REMARK    1  A    between atoms: C_1  and  C_2
REMARK    2  A    between atoms: C_2  and  C_4
REMARK    3  A    between atoms: C_5  and  C_6
REMARK    4  A    between atoms: C_7  and  C_8
REMARK    5  A    between atoms: C_7  and  C_9
REMARK    6  A    between atoms: C_10  and  C_11
REMARK    7  A    between atoms: C_12  and  C_13
REMARK    8  A    between atoms: C_15  and  O_16
REMARK    9  A    between atoms: C_18  and  C_19
REMARK   10  A    between atoms: C_18  and  C_20
REMARK                            x       y       z     vdW  Elec       q    Type
REMARK                         _______ _______ _______ _____ _____    ______ ____
ROOT
ATOM      1  C   UNL     1       3.055   4.982  19.105  0.00  0.00    +0.000 C 
ATOM      2  C   UNL     1       2.081   3.844  19.345  0.00  0.00    +0.000 C 
ATOM      3  C   UNL     1       0.974   4.059  20.348  0.00  0.00    +0.000 C 
ATOM      4  C   UNL     1       2.192   2.641  18.764  0.00  0.00    +0.000 C 
ATOM      5  C   UNL     1       3.250   2.234  17.814  0.00  0.00    +0.000 C 
ATOM      6  C   UNL     1       4.305   3.276  17.449  0.00  0.00    +0.000 C 
ATOM      7  C   UNL     1       4.279   4.677  18.142  0.00  0.00    +0.000 C 
ATOM      8  C   UNL     1       5.559   4.793  19.015  0.00  0.00    +0.000 C 
ATOM      9  C   UNL     1       4.457   5.722  17.004  0.00  0.00    +0.000 C 
ENDROOT
BRANCH   1  11
ATOM     10  C   UNL     1       2.359   7.393  19.501  0.00  0.00    +0.000 C 
ATOM     11  C   UNL     1       2.295   6.257  18.776  0.00  0.00    +0.000 C 
BRANCH  10  13
ATOM     12  C   UNL     1       0.844   9.154  20.250  0.00  0.00    +0.000 C 
ATOM     13  C   UNL     1       1.590   8.617  19.253  0.00  0.00    +0.000 C 
ATOM     14  C   UNL     1       1.676   9.187  17.854  0.00  0.00    +0.000 C 
BRANCH  12  16
ATOM     15  C   UNL     1       0.437  11.582  20.519  0.00  0.00    +0.000 C 
ATOM     16  C   UNL     1       0.041  10.357  20.151  0.00  0.00    +0.000 C 
BRANCH  15  18
ATOM     17  C   UNL     1      -1.910  12.392  19.922  0.00  0.00    +0.000 C 
ATOM     18  C   UNL     1      -0.502  12.726  20.322  0.00  0.00    +0.000 C 
ATOM     19  O   UNL     1      -0.143  13.894  20.481  0.00  0.00    +0.000 OA
ENDBRANCH  15  18
ENDBRANCH  12  16
ENDBRANCH  10  13
ENDBRANCH   1  11
BRANCH   5  20
ATOM     20  O   UNL     1       3.897   1.092  18.373  0.00  0.00    +0.000 OA
ATOM     21  H   UNL     1       3.762   1.134  19.334  0.00  0.00    +0.000 HD
ENDBRANCH   5  20
TORSDOF 5
ENDMDL
