MODEL 1
REMARK VINA RESULT:      -8.1      0.000      0.000
REMARK  Name = 
REMARK  6 active torsions:
REMARK  status: ('A' for Active; 'I' for Inactive)
REMARK    1  A    between atoms: C_2  and  C_17
REMARK    2  A    between atoms: N_3  and  C_4
REMARK    3  A    between atoms: C_7  and  C_8
REMARK    4  A    between atoms: C_13  and  N_14
REMARK    5  A    between atoms: N_19  and  N_20
REMARK    6  A    between atoms: C_21  and  S_22
REMARK                            x       y       z     vdW  Elec       q    Type
REMARK                         _______ _______ _______ _____ _____    ______ ____
ROOT
ATOM      1  O   UNL     1      -0.861   7.914  21.483  0.00  0.00    +0.000 OA
ATOM      2  C   UNL     1       0.143   8.583  21.706  0.00  0.00    +0.000 C 
ATOM      3  N   UNL     1       1.433   8.364  21.236  0.00  0.00    +0.000 N 
ATOM      4  H   UNL     1       2.159   8.959  21.646  0.00  0.00    +0.000 HD
ENDROOT
BRANCH   3   5
ATOM      5  C   UNL     1       1.853   7.341  20.324  0.00  0.00    +0.000 A 
ATOM      6  C   UNL     1       2.007   6.019  20.761  0.00  0.00    +0.000 A 
ATOM      7  C   UNL     1       2.421   4.981  19.904  0.00  0.00    +0.000 A 
ATOM      8  C   UNL     1       2.701   5.233  18.557  0.00  0.00    +0.000 A 
ATOM      9  C   UNL     1       2.533   6.544  18.085  0.00  0.00    +0.000 A 
ATOM     10  C   UNL     1       2.110   7.586  18.951  0.00  0.00    +0.000 A 
BRANCH   8  11
ATOM     11  C   UNL     1       3.170   4.133  17.632  0.00  0.00    +0.000 C 
ATOM     12  F   UNL     1       3.835   3.133  18.272  0.00  0.00    +0.000 F 
ATOM     13  F   UNL     1       2.140   3.536  16.972  0.00  0.00    +0.000 F 
ATOM     14  F   UNL     1       4.018   4.592  16.672  0.00  0.00    +0.000 F 
ENDBRANCH   8  11
BRANCH  10  15
ATOM     15  N   UNL     1       1.971   8.925  18.361  0.00  0.00    +0.000 N 
ATOM     16  O   UNL     1       1.313   9.772  18.982  0.00  0.00    +0.000 OA
ATOM     17  O   UNL     1       2.524   9.136  17.272  0.00  0.00    +0.000 OA
ENDBRANCH  10  15
ENDBRANCH   3   5
BRANCH   2  18
ATOM     18  C   UNL     1      -0.034   9.784  22.668  0.00  0.00    +0.000 C 
ATOM     19  O   UNL     1       0.439   9.757  23.792  0.00  0.00    +0.000 OA
ATOM     20  N   UNL     1      -0.734  10.809  22.044  0.00  0.00    +0.000 N 
ATOM     21  H   UNL     1      -0.792  10.753  21.028  0.00  0.00    +0.000 HD
BRANCH  20  22
ATOM     22  N   UNL     1      -0.903  12.102  22.622  0.00  0.00    +0.000 N 
ATOM     23  C   UNL     1      -0.125  13.168  22.160  0.00  0.00    +0.000 A 
ATOM     24  N   UNL     1      -0.110  14.350  22.681  0.00  0.00    +0.000 NA
ATOM     25  C   UNL     1      -1.205  14.670  23.515  0.00  0.00    +0.000 A 
ATOM     26  C   UNL     1      -1.383  16.010  23.873  0.00  0.00    +0.000 A 
ATOM     27  C   UNL     1      -2.671  16.515  24.039  0.00  0.00    +0.000 A 
ATOM     28  C   UNL     1      -3.775  15.677  23.884  0.00  0.00    +0.000 A 
ATOM     29  C   UNL     1      -3.591  14.303  23.723  0.00  0.00    +0.000 A 
ATOM     30  C   UNL     1      -2.297  13.797  23.599  0.00  0.00    +0.000 A 
ATOM     31  C   UNL     1      -2.072  12.363  23.312  0.00  0.00    +0.000 A 
ATOM     32  O   UNL     1      -2.937  11.539  23.584  0.00  0.00    +0.000 OA
BRANCH  23  33
ATOM     33  S   UNL     1       0.589  12.963  20.586  0.00  0.00    +0.000 S 
ATOM     34  H   UNL     1      -0.163  11.873  20.311  0.00  0.00    +0.000 HD
ENDBRANCH  23  33
ENDBRANCH  20  22
ENDBRANCH   2  18
TORSDOF 6
ENDMDL
MODEL 2
REMARK VINA RESULT:      -8.0      0.995      1.211
REMARK  Name = 
REMARK  6 active torsions:
REMARK  status: ('A' for Active; 'I' for Inactive)
REMARK    1  A    between atoms: C_2  and  C_17
REMARK    2  A    between atoms: N_3  and  C_4
REMARK    3  A    between atoms: C_7  and  C_8
REMARK    4  A    between atoms: C_13  and  N_14
REMARK    5  A    between atoms: N_19  and  N_20
REMARK    6  A    between atoms: C_21  and  S_22
REMARK                            x       y       z     vdW  Elec       q    Type
REMARK                         _______ _______ _______ _____ _____    ______ ____
ROOT
ATOM      1  O   UNL     1      -0.618   7.699  21.429  0.00  0.00    +0.000 OA
ATOM      2  C   UNL     1       0.480   8.238  21.518  0.00  0.00    +0.000 C 
ATOM      3  N   UNL     1       1.695   7.782  21.018  0.00  0.00    +0.000 N 
ATOM      4  H   UNL     1       2.521   8.311  21.315  0.00  0.00    +0.000 HD
ENDROOT
BRANCH   3   5
ATOM      5  C   UNL     1       1.911   6.608  20.224  0.00  0.00    +0.000 A 
ATOM      6  C   UNL     1       1.694   5.334  20.765  0.00  0.00    +0.000 A 
ATOM      7  C   UNL     1       1.896   4.153  20.025  0.00  0.00    +0.000 A 
ATOM      8  C   UNL     1       2.330   4.205  18.697  0.00  0.00    +0.000 A 
ATOM      9  C   UNL     1       2.535   5.468  18.121  0.00  0.00    +0.000 A 
ATOM     10  C   UNL     1       2.324   6.657  18.868  0.00  0.00    +0.000 A 
BRANCH   8  11
ATOM     11  C   UNL     1       2.576   2.944  17.900  0.00  0.00    +0.000 C 
ATOM     12  F   UNL     1       3.807   2.401  18.109  0.00  0.00    +0.000 F 
ATOM     13  F   UNL     1       1.680   1.962  18.194  0.00  0.00    +0.000 F 
ATOM     14  F   UNL     1       2.480   3.153  16.560  0.00  0.00    +0.000 F 
ENDBRANCH   8  11
BRANCH  10  15
ATOM     15  N   UNL     1       2.571   7.929  18.176  0.00  0.00    +0.000 N 
ATOM     16  O   UNL     1       3.610   8.040  17.509  0.00  0.00    +0.000 OA
ATOM     17  O   UNL     1       1.723   8.825  18.296  0.00  0.00    +0.000 OA
ENDBRANCH  10  15
ENDBRANCH   3   5
BRANCH   2  18
ATOM     18  C   UNL     1       0.532   9.558  22.327  0.00  0.00    +0.000 C 
ATOM     19  O   UNL     1       1.252   9.660  23.307  0.00  0.00    +0.000 OA
ATOM     20  N   UNL     1      -0.291  10.517  21.749  0.00  0.00    +0.000 N 
ATOM     21  H   UNL     1      -0.582  10.332  20.790  0.00  0.00    +0.000 HD
BRANCH  20  22
ATOM     22  N   UNL     1      -0.319  11.878  22.175  0.00  0.00    +0.000 N 
ATOM     23  C   UNL     1       0.473  12.820  21.514  0.00  0.00    +0.000 A 
ATOM     24  N   UNL     1       0.614  14.051  21.879  0.00  0.00    +0.000 NA
ATOM     25  C   UNL     1      -0.368  14.548  22.764  0.00  0.00    +0.000 A 
ATOM     26  C   UNL     1      -0.425  15.931  22.967  0.00  0.00    +0.000 A 
ATOM     27  C   UNL     1      -1.656  16.547  23.187  0.00  0.00    +0.000 A 
ATOM     28  C   UNL     1      -2.820  15.781  23.240  0.00  0.00    +0.000 A 
ATOM     29  C   UNL     1      -2.740  14.388  23.237  0.00  0.00    +0.000 A 
ATOM     30  C   UNL     1      -1.499  13.775  23.057  0.00  0.00    +0.000 A 
ATOM     31  C   UNL     1      -1.394  12.305  22.932  0.00  0.00    +0.000 A 
ATOM     32  O   UNL     1      -2.277  11.586  23.384  0.00  0.00    +0.000 OA
BRANCH  23  33
ATOM     33  S   UNL     1       1.010  12.379  19.918  0.00  0.00    +0.000 S 
ATOM     34  H   UNL     1       0.138  11.348  19.835  0.00  0.00    +0.000 HD
ENDBRANCH  23  33
ENDBRANCH  20  22
ENDBRANCH   2  18
TORSDOF 6
ENDMDL
MODEL 3
REMARK VINA RESULT:      -7.9      2.648      3.596
REMARK  Name = 
REMARK  6 active torsions:
REMARK  status: ('A' for Active; 'I' for Inactive)
REMARK    1  A    between atoms: C_2  and  C_17
REMARK    2  A    between atoms: N_3  and  C_4
REMARK    3  A    between atoms: C_7  and  C_8
REMARK    4  A    between atoms: C_13  and  N_14
REMARK    5  A    between atoms: N_19  and  N_20
REMARK    6  A    between atoms: C_21  and  S_22
REMARK                            x       y       z     vdW  Elec       q    Type
REMARK                         _______ _______ _______ _____ _____    ______ ____
ROOT
ATOM      1  O   UNL     1       2.088   9.304  17.408  0.00  0.00    +0.000 OA
ATOM      2  C   UNL     1       2.003   8.687  18.465  0.00  0.00    +0.000 C 
ATOM      3  N   UNL     1       2.547   7.445  18.771  0.00  0.00    +0.000 N 
ATOM      4  H   UNL     1       2.250   7.040  19.663  0.00  0.00    +0.000 HD
ENDROOT
BRANCH   3   5
ATOM      5  C   UNL     1       3.391   6.646  17.931  0.00  0.00    +0.000 A 
ATOM      6  C   UNL     1       4.524   7.205  17.325  0.00  0.00    +0.000 A 
ATOM      7  C   UNL     1       5.380   6.461  16.490  0.00  0.00    +0.000 A 
ATOM      8  C   UNL     1       5.129   5.110  16.226  0.00  0.00    +0.000 A 
ATOM      9  C   UNL     1       4.013   4.518  16.837  0.00  0.00    +0.000 A 
ATOM     10  C   UNL     1       3.156   5.269  17.683  0.00  0.00    +0.000 A 
BRANCH   8  11
ATOM     11  C   UNL     1       6.025   4.308  15.310  0.00  0.00    +0.000 C 
ATOM     12  F   UNL     1       5.767   4.505  13.988  0.00  0.00    +0.000 F 
ATOM     13  F   UNL     1       7.342   4.605  15.483  0.00  0.00    +0.000 F 
ATOM     14  F   UNL     1       5.911   2.969  15.519  0.00  0.00    +0.000 F 
ENDBRANCH   8  11
BRANCH  10  15
ATOM     15  N   UNL     1       2.012   4.558  18.271  0.00  0.00    +0.000 N 
ATOM     16  O   UNL     1       1.861   4.608  19.500  0.00  0.00    +0.000 OA
ATOM     17  O   UNL     1       1.256   3.947  17.501  0.00  0.00    +0.000 OA
ENDBRANCH  10  15
ENDBRANCH   3   5
BRANCH   2  18
ATOM     18  C   UNL     1       1.145   9.344  19.574  0.00  0.00    +0.000 C 
ATOM     19  O   UNL     1       0.842   8.720  20.578  0.00  0.00    +0.000 OA
ATOM     20  N   UNL     1       0.854  10.663  19.249  0.00  0.00    +0.000 N 
ATOM     21  H   UNL     1       1.429  11.077  18.517  0.00  0.00    +0.000 HD
BRANCH  20  22
ATOM     22  N   UNL     1       0.224  11.567  20.155  0.00  0.00    +0.000 N 
ATOM     23  C   UNL     1       0.966  12.618  20.703  0.00  0.00    +0.000 A 
ATOM     24  N   UNL     1       0.536  13.427  21.613  0.00  0.00    +0.000 NA
ATOM     25  C   UNL     1      -0.865  13.475  21.784  0.00  0.00    +0.000 A 
ATOM     26  C   UNL     1      -1.395  14.521  22.546  0.00  0.00    +0.000 A 
ATOM     27  C   UNL     1      -2.638  15.058  22.213  0.00  0.00    +0.000 A 
ATOM     28  C   UNL     1      -3.363  14.528  21.147  0.00  0.00    +0.000 A 
ATOM     29  C   UNL     1      -2.928  13.362  20.516  0.00  0.00    +0.000 A 
ATOM     30  C   UNL     1      -1.702  12.805  20.883  0.00  0.00    +0.000 A 
ATOM     31  C   UNL     1      -1.156  11.637  20.156  0.00  0.00    +0.000 A 
ATOM     32  O   UNL     1      -1.907  10.897  19.531  0.00  0.00    +0.000 OA
BRANCH  23  33
ATOM     33  S   UNL     1       2.417  13.054  19.846  0.00  0.00    +0.000 S 
ATOM     34  H   UNL     1       3.209  12.770  20.905  0.00  0.00    +0.000 HD
ENDBRANCH  23  33
ENDBRANCH  20  22
ENDBRANCH   2  18
TORSDOF 6
ENDMDL
MODEL 4
REMARK VINA RESULT:      -7.9      2.811      3.978
REMARK  Name = 
REMARK  6 active torsions:
REMARK  status: ('A' for Active; 'I' for Inactive)
REMARK    1  A    between atoms: C_2  and  C_17
REMARK    2  A    between atoms: N_3  and  C_4
REMARK    3  A    between atoms: C_7  and  C_8
REMARK    4  A    between atoms: C_13  and  N_14
REMARK    5  A    between atoms: N_19  and  N_20
REMARK    6  A    between atoms: C_21  and  S_22
REMARK                            x       y       z     vdW  Elec       q    Type
REMARK                         _______ _______ _______ _____ _____    ______ ____
ROOT
ATOM      1  O   UNL     1       2.431   9.466  17.291  0.00  0.00    +0.000 OA
ATOM      2  C   UNL     1       2.014   8.787  18.225  0.00  0.00    +0.000 C 
ATOM      3  N   UNL     1       2.365   7.481  18.550  0.00  0.00    +0.000 N 
ATOM      4  H   UNL     1       1.805   7.045  19.289  0.00  0.00    +0.000 HD
ENDROOT
BRANCH   3   5
ATOM      5  C   UNL     1       3.350   6.668  17.898  0.00  0.00    +0.000 A 
ATOM      6  C   UNL     1       4.541   7.236  17.427  0.00  0.00    +0.000 A 
ATOM      7  C   UNL     1       5.535   6.478  16.778  0.00  0.00    +0.000 A 
ATOM      8  C   UNL     1       5.370   5.105  16.572  0.00  0.00    +0.000 A 
ATOM      9  C   UNL     1       4.196   4.505  17.053  0.00  0.00    +0.000 A 
ATOM     10  C   UNL     1       3.199   5.270  17.713  0.00  0.00    +0.000 A 
BRANCH   8  11
ATOM     11  C   UNL     1       6.418   4.285  15.854  0.00  0.00    +0.000 C 
ATOM     12  F   UNL     1       6.826   4.838  14.679  0.00  0.00    +0.000 F 
ATOM     13  F   UNL     1       7.544   4.116  16.599  0.00  0.00    +0.000 F 
ATOM     14  F   UNL     1       5.976   3.036  15.548  0.00  0.00    +0.000 F 
ENDBRANCH   8  11
BRANCH  10  15
ATOM     15  N   UNL     1       2.004   4.549  18.174  0.00  0.00    +0.000 N 
ATOM     16  O   UNL     1       1.726   4.590  19.381  0.00  0.00    +0.000 OA
ATOM     17  O   UNL     1       1.336   3.939  17.326  0.00  0.00    +0.000 OA
ENDBRANCH  10  15
ENDBRANCH   3   5
BRANCH   2  18
ATOM     18  C   UNL     1       0.932   9.442  19.119  0.00  0.00    +0.000 C 
ATOM     19  O   UNL     1       0.550   8.891  20.138  0.00  0.00    +0.000 OA
ATOM     20  N   UNL     1       0.551  10.673  18.601  0.00  0.00    +0.000 N 
ATOM     21  H   UNL     1       1.182  11.078  17.910  0.00  0.00    +0.000 HD
BRANCH  20  22
ATOM     22  N   UNL     1      -0.304  11.580  19.295  0.00  0.00    +0.000 N 
ATOM     23  C   UNL     1      -1.663  11.626  18.971  0.00  0.00    +0.000 A 
ATOM     24  N   UNL     1      -2.506  12.479  19.450  0.00  0.00    +0.000 NA
ATOM     25  C   UNL     1      -2.105  13.147  20.629  0.00  0.00    +0.000 A 
ATOM     26  C   UNL     1      -3.077  13.861  21.337  0.00  0.00    +0.000 A 
ATOM     27  C   UNL     1      -3.009  13.927  22.728  0.00  0.00    +0.000 A 
ATOM     28  C   UNL     1      -1.955  13.313  23.405  0.00  0.00    +0.000 A 
ATOM     29  C   UNL     1      -0.885  12.774  22.690  0.00  0.00    +0.000 A 
ATOM     30  C   UNL     1      -0.940  12.748  21.295  0.00  0.00    +0.000 A 
ATOM     31  C   UNL     1       0.122  12.081  20.511  0.00  0.00    +0.000 A 
ATOM     32  O   UNL     1       1.234  11.915  20.998  0.00  0.00    +0.000 OA
BRANCH  23  33
ATOM     33  S   UNL     1      -2.296  10.232  18.145  0.00  0.00    +0.000 S 
ATOM     34  H   UNL     1      -2.599  10.941  17.034  0.00  0.00    +0.000 HD
ENDBRANCH  23  33
ENDBRANCH  20  22
ENDBRANCH   2  18
TORSDOF 6
ENDMDL
MODEL 5
REMARK VINA RESULT:      -7.9      3.662      4.698
REMARK  Name = 
REMARK  6 active torsions:
REMARK  status: ('A' for Active; 'I' for Inactive)
REMARK    1  A    between atoms: C_2  and  C_17
REMARK    2  A    between atoms: N_3  and  C_4
REMARK    3  A    between atoms: C_7  and  C_8
REMARK    4  A    between atoms: C_13  and  N_14
REMARK    5  A    between atoms: N_19  and  N_20
REMARK    6  A    between atoms: C_21  and  S_22
REMARK                            x       y       z     vdW  Elec       q    Type
REMARK                         _______ _______ _______ _____ _____    ______ ____
ROOT
ATOM      1  O   UNL     1       2.307   9.599  17.402  0.00  0.00    +0.000 OA
ATOM      2  C   UNL     1       1.795   8.830  18.209  0.00  0.00    +0.000 C 
ATOM      3  N   UNL     1       2.132   7.503  18.452  0.00  0.00    +0.000 N 
ATOM      4  H   UNL     1       1.495   6.992  19.072  0.00  0.00    +0.000 HD
ENDROOT
BRANCH   3   5
ATOM      5  C   UNL     1       3.206   6.765  17.854  0.00  0.00    +0.000 A 
ATOM      6  C   UNL     1       4.345   7.429  17.380  0.00  0.00    +0.000 A 
ATOM      7  C   UNL     1       5.423   6.748  16.782  0.00  0.00    +0.000 A 
ATOM      8  C   UNL     1       5.400   5.358  16.634  0.00  0.00    +0.000 A 
ATOM      9  C   UNL     1       4.281   4.664  17.120  0.00  0.00    +0.000 A 
ATOM     10  C   UNL     1       3.199   5.353  17.728  0.00  0.00    +0.000 A 
BRANCH   8  11
ATOM     11  C   UNL     1       6.539   4.618  15.971  0.00  0.00    +0.000 C 
ATOM     12  F   UNL     1       6.145   3.493  15.313  0.00  0.00    +0.000 F 
ATOM     13  F   UNL     1       7.187   5.383  15.050  0.00  0.00    +0.000 F 
ATOM     14  F   UNL     1       7.485   4.219  16.863  0.00  0.00    +0.000 F 
ENDBRANCH   8  11
BRANCH  10  15
ATOM     15  N   UNL     1       2.072   4.536  18.199  0.00  0.00    +0.000 N 
ATOM     16  O   UNL     1       1.437   3.877  17.363  0.00  0.00    +0.000 OA
ATOM     17  O   UNL     1       1.818   4.550  19.413  0.00  0.00    +0.000 OA
ENDBRANCH  10  15
ENDBRANCH   3   5
BRANCH   2  18
ATOM     18  C   UNL     1       0.597   9.386  19.020  0.00  0.00    +0.000 C 
ATOM     19  O   UNL     1       0.576   9.299  20.237  0.00  0.00    +0.000 OA
ATOM     20  N   UNL     1      -0.332   9.977  18.173  0.00  0.00    +0.000 N 
ATOM     21  H   UNL     1      -0.000  10.197  17.235  0.00  0.00    +0.000 HD
BRANCH  20  22
ATOM     22  N   UNL     1      -1.454  10.720  18.646  0.00  0.00    +0.000 N 
ATOM     23  C   UNL     1      -1.253  11.985  19.205  0.00  0.00    +0.000 A 
ATOM     24  N   UNL     1      -2.172  12.699  19.765  0.00  0.00    +0.000 NA
ATOM     25  C   UNL     1      -3.504  12.337  19.462  0.00  0.00    +0.000 A 
ATOM     26  C   UNL     1      -4.519  13.234  19.808  0.00  0.00    +0.000 A 
ATOM     27  C   UNL     1      -5.649  13.344  18.999  0.00  0.00    +0.000 A 
ATOM     28  C   UNL     1      -5.780  12.537  17.870  0.00  0.00    +0.000 A 
ATOM     29  C   UNL     1      -4.866  11.509  17.636  0.00  0.00    +0.000 A 
ATOM     30  C   UNL     1      -3.758  11.377  18.474  0.00  0.00    +0.000 A 
ATOM     31  C   UNL     1      -2.710  10.372  18.187  0.00  0.00    +0.000 A 
ATOM     32  O   UNL     1      -2.970   9.393  17.498  0.00  0.00    +0.000 OA
BRANCH  23  33
ATOM     33  S   UNL     1       0.249  12.766  18.801  0.00  0.00    +0.000 S 
ATOM     34  H   UNL     1       0.070  12.579  17.474  0.00  0.00    +0.000 HD
ENDBRANCH  23  33
ENDBRANCH  20  22
ENDBRANCH   2  18
TORSDOF 6
ENDMDL
MODEL 6
REMARK VINA RESULT:      -7.7      2.837      4.052
REMARK  Name = 
REMARK  6 active torsions:
REMARK  status: ('A' for Active; 'I' for Inactive)
REMARK    1  A    between atoms: C_2  and  C_17
REMARK    2  A    between atoms: N_3  and  C_4
REMARK    3  A    between atoms: C_7  and  C_8
REMARK    4  A    between atoms: C_13  and  N_14
REMARK    5  A    between atoms: N_19  and  N_20
REMARK    6  A    between atoms: C_21  and  S_22
REMARK                            x       y       z     vdW  Elec       q    Type
REMARK                         _______ _______ _______ _____ _____    ______ ____
ROOT
ATOM      1  O   UNL     1       1.148  12.688  19.755  0.00  0.00    +0.000 OA
ATOM      2  C   UNL     1       0.059  12.153  19.935  0.00  0.00    +0.000 C 
ATOM      3  N   UNL     1      -0.265  10.809  19.781  0.00  0.00    +0.000 N 
ATOM      4  H   UNL     1      -1.263  10.585  19.851  0.00  0.00    +0.000 HD
ENDROOT
BRANCH   3   5
ATOM      5  C   UNL     1       0.631   9.742  19.443  0.00  0.00    +0.000 A 
ATOM      6  C   UNL     1       1.050   9.560  18.118  0.00  0.00    +0.000 A 
ATOM      7  C   UNL     1       1.925   8.525  17.738  0.00  0.00    +0.000 A 
ATOM      8  C   UNL     1       2.420   7.621  18.683  0.00  0.00    +0.000 A 
ATOM      9  C   UNL     1       2.036   7.793  20.022  0.00  0.00    +0.000 A 
ATOM     10  C   UNL     1       1.158   8.841  20.402  0.00  0.00    +0.000 A 
BRANCH   8  11
ATOM     11  C   UNL     1       3.341   6.490  18.283  0.00  0.00    +0.000 C 
ATOM     12  F   UNL     1       2.706   5.481  17.624  0.00  0.00    +0.000 F 
ATOM     13  F   UNL     1       4.342   6.903  17.459  0.00  0.00    +0.000 F 
ATOM     14  F   UNL     1       3.948   5.914  19.356  0.00  0.00    +0.000 F 
ENDBRANCH   8  11
BRANCH  10  15
ATOM     15  N   UNL     1       0.811   8.933  21.828  0.00  0.00    +0.000 N 
ATOM     16  O   UNL     1      -0.365   8.725  22.158  0.00  0.00    +0.000 OA
ATOM     17  O   UNL     1       1.718   9.213  22.625  0.00  0.00    +0.000 OA
ENDBRANCH  10  15
ENDBRANCH   3   5
BRANCH   2  18
ATOM     18  C   UNL     1      -1.108  13.091  20.333  0.00  0.00    +0.000 C 
ATOM     19  O   UNL     1      -1.061  14.284  20.080  0.00  0.00    +0.000 OA
ATOM     20  N   UNL     1      -2.129  12.370  20.938  0.00  0.00    +0.000 N 
ATOM     21  H   UNL     1      -2.102  11.361  20.801  0.00  0.00    +0.000 HD
BRANCH  20  22
ATOM     22  N   UNL     1      -3.399  12.937  21.258  0.00  0.00    +0.000 N 
ATOM     23  C   UNL     1      -4.388  13.006  20.273  0.00  0.00    +0.000 A 
ATOM     24  N   UNL     1      -5.528  13.595  20.414  0.00  0.00    +0.000 NA
ATOM     25  C   UNL     1      -5.930  13.853  21.744  0.00  0.00    +0.000 A 
ATOM     26  C   UNL     1      -7.259  14.227  21.964  0.00  0.00    +0.000 A 
ATOM     27  C   UNL     1      -7.905  13.827  23.133  0.00  0.00    +0.000 A 
ATOM     28  C   UNL     1      -7.214  13.088  24.093  0.00  0.00    +0.000 A 
ATOM     29  C   UNL     1      -5.840  12.887  23.965  0.00  0.00    +0.000 A 
ATOM     30  C   UNL     1      -5.190  13.327  22.810  0.00  0.00    +0.000 A 
ATOM     31  C   UNL     1      -3.758  13.028  22.590  0.00  0.00    +0.000 A 
ATOM     32  O   UNL     1      -3.029  12.777  23.542  0.00  0.00    +0.000 OA
BRANCH  23  33
ATOM     33  S   UNL     1      -4.189  11.933  18.918  0.00  0.00    +0.000 S 
ATOM     34  H   UNL     1      -3.038  11.417  19.407  0.00  0.00    +0.000 HD
ENDBRANCH  23  33
ENDBRANCH  20  22
ENDBRANCH   2  18
TORSDOF 6
ENDMDL
MODEL 7
REMARK VINA RESULT:      -7.6      2.566      3.824
REMARK  Name = 
REMARK  6 active torsions:
REMARK  status: ('A' for Active; 'I' for Inactive)
REMARK    1  A    between atoms: C_2  and  C_17
REMARK    2  A    between atoms: N_3  and  C_4
REMARK    3  A    between atoms: C_7  and  C_8
REMARK    4  A    between atoms: C_13  and  N_14
REMARK    5  A    between atoms: N_19  and  N_20
REMARK    6  A    between atoms: C_21  and  S_22
REMARK                            x       y       z     vdW  Elec       q    Type
REMARK                         _______ _______ _______ _____ _____    ______ ____
ROOT
ATOM      1  O   UNL     1       2.547   9.751  17.147  0.00  0.00    +0.000 OA
ATOM      2  C   UNL     1       1.919   9.070  17.950  0.00  0.00    +0.000 C 
ATOM      3  N   UNL     1       2.120   7.732  18.273  0.00  0.00    +0.000 N 
ATOM      4  H   UNL     1       1.403   7.309  18.870  0.00  0.00    +0.000 HD
ENDROOT
BRANCH   3   5
ATOM      5  C   UNL     1       3.161   6.877  17.781  0.00  0.00    +0.000 A 
ATOM      6  C   UNL     1       4.365   7.420  17.314  0.00  0.00    +0.000 A 
ATOM      7  C   UNL     1       5.413   6.620  16.819  0.00  0.00    +0.000 A 
ATOM      8  C   UNL     1       5.292   5.228  16.772  0.00  0.00    +0.000 A 
ATOM      9  C   UNL     1       4.106   4.654  17.255  0.00  0.00    +0.000 A 
ATOM     10  C   UNL     1       3.054   5.463  17.759  0.00  0.00    +0.000 A 
BRANCH   8  11
ATOM     11  C   UNL     1       6.400   4.360  16.219  0.00  0.00    +0.000 C 
ATOM     12  F   UNL     1       7.407   4.135  17.107  0.00  0.00    +0.000 F 
ATOM     13  F   UNL     1       5.955   3.131  15.838  0.00  0.00    +0.000 F 
ATOM     14  F   UNL     1       6.984   4.907  15.119  0.00  0.00    +0.000 F 
ENDBRANCH   8  11
BRANCH  10  15
ATOM     15  N   UNL     1       1.850   4.767  18.235  0.00  0.00    +0.000 N 
ATOM     16  O   UNL     1       1.592   4.808  19.447  0.00  0.00    +0.000 OA
ATOM     17  O   UNL     1       1.155   4.176  17.395  0.00  0.00    +0.000 OA
ENDBRANCH  10  15
ENDBRANCH   3   5
BRANCH   2  18
ATOM     18  C   UNL     1       0.726   9.766  18.653  0.00  0.00    +0.000 C 
ATOM     19  O   UNL     1      -0.418   9.571  18.275  0.00  0.00    +0.000 OA
ATOM     20  N   UNL     1       1.171  10.543  19.714  0.00  0.00    +0.000 N 
ATOM     21  H   UNL     1       2.117  10.350  20.039  0.00  0.00    +0.000 HD
BRANCH  20  22
ATOM     22  N   UNL     1       0.290  11.166  20.647  0.00  0.00    +0.000 N 
ATOM     23  C   UNL     1      -0.050  10.495  21.824  0.00  0.00    +0.000 A 
ATOM     24  N   UNL     1      -0.921  10.908  22.684  0.00  0.00    +0.000 NA
ATOM     25  C   UNL     1      -1.263  12.277  22.605  0.00  0.00    +0.000 A 
ATOM     26  C   UNL     1      -1.975  12.834  23.672  0.00  0.00    +0.000 A 
ATOM     27  C   UNL     1      -1.750  14.161  24.035  0.00  0.00    +0.000 A 
ATOM     28  C   UNL     1      -0.845  14.937  23.313  0.00  0.00    +0.000 A 
ATOM     29  C   UNL     1      -0.285  14.444  22.134  0.00  0.00    +0.000 A 
ATOM     30  C   UNL     1      -0.548  13.127  21.753  0.00  0.00    +0.000 A 
ATOM     31  C   UNL     1       0.120  12.536  20.572  0.00  0.00    +0.000 A 
ATOM     32  O   UNL     1       0.566  13.261  19.692  0.00  0.00    +0.000 OA
BRANCH  23  33
ATOM     33  S   UNL     1       1.023   9.213  22.307  0.00  0.00    +0.000 S 
ATOM     34  H   UNL     1       0.164   8.248  21.907  0.00  0.00    +0.000 HD
ENDBRANCH  23  33
ENDBRANCH  20  22
ENDBRANCH   2  18
TORSDOF 6
ENDMDL
MODEL 8
REMARK VINA RESULT:      -7.5      2.140      3.113
REMARK  Name = 
REMARK  6 active torsions:
REMARK  status: ('A' for Active; 'I' for Inactive)
REMARK    1  A    between atoms: C_2  and  C_17
REMARK    2  A    between atoms: N_3  and  C_4
REMARK    3  A    between atoms: C_7  and  C_8
REMARK    4  A    between atoms: C_13  and  N_14
REMARK    5  A    between atoms: N_19  and  N_20
REMARK    6  A    between atoms: C_21  and  S_22
REMARK                            x       y       z     vdW  Elec       q    Type
REMARK                         _______ _______ _______ _____ _____    ______ ____
ROOT
ATOM      1  O   UNL     1       0.434   9.380  17.618  0.00  0.00    +0.000 OA
ATOM      2  C   UNL     1       1.015   9.584  18.679  0.00  0.00    +0.000 C 
ATOM      3  N   UNL     1       2.016   8.815  19.263  0.00  0.00    +0.000 N 
ATOM      4  H   UNL     1       2.278   9.082  20.217  0.00  0.00    +0.000 HD
ENDROOT
BRANCH   3   5
ATOM      5  C   UNL     1       2.635   7.646  18.709  0.00  0.00    +0.000 A 
ATOM      6  C   UNL     1       3.481   7.750  17.597  0.00  0.00    +0.000 A 
ATOM      7  C   UNL     1       4.109   6.631  17.017  0.00  0.00    +0.000 A 
ATOM      8  C   UNL     1       3.908   5.348  17.536  0.00  0.00    +0.000 A 
ATOM      9  C   UNL     1       3.084   5.216  18.664  0.00  0.00    +0.000 A 
ATOM     10  C   UNL     1       2.458   6.347  19.250  0.00  0.00    +0.000 A 
BRANCH   8  11
ATOM     11  C   UNL     1       4.556   4.135  16.906  0.00  0.00    +0.000 C 
ATOM     12  F   UNL     1       4.792   4.278  15.573  0.00  0.00    +0.000 F 
ATOM     13  F   UNL     1       5.759   3.838  17.470  0.00  0.00    +0.000 F 
ATOM     14  F   UNL     1       3.793   3.017  17.035  0.00  0.00    +0.000 F 
ENDBRANCH   8  11
BRANCH  10  15
ATOM     15  N   UNL     1       1.609   6.103  20.424  0.00  0.00    +0.000 N 
ATOM     16  O   UNL     1       1.172   4.957  20.602  0.00  0.00    +0.000 OA
ATOM     17  O   UNL     1       1.377   7.060  21.177  0.00  0.00    +0.000 OA
ENDBRANCH  10  15
ENDBRANCH   3   5
BRANCH   2  18
ATOM     18  C   UNL     1       0.545  10.817  19.491  0.00  0.00    +0.000 C 
ATOM     19  O   UNL     1       1.242  11.816  19.563  0.00  0.00    +0.000 OA
ATOM     20  N   UNL     1      -0.715  10.594  20.031  0.00  0.00    +0.000 N 
ATOM     21  H   UNL     1      -1.241   9.821  19.626  0.00  0.00    +0.000 HD
BRANCH  20  22
ATOM     22  N   UNL     1      -1.473  11.610  20.686  0.00  0.00    +0.000 N 
ATOM     23  C   UNL     1      -2.418  12.337  19.957  0.00  0.00    +0.000 A 
ATOM     24  N   UNL     1      -3.080  13.349  20.411  0.00  0.00    +0.000 NA
ATOM     25  C   UNL     1      -3.112  13.484  21.817  0.00  0.00    +0.000 A 
ATOM     26  C   UNL     1      -4.032  14.383  22.366  0.00  0.00    +0.000 A 
ATOM     27  C   UNL     1      -4.625  14.100  23.596  0.00  0.00    +0.000 A 
ATOM     28  C   UNL     1      -4.273  12.943  24.290  0.00  0.00    +0.000 A 
ATOM     29  C   UNL     1      -3.216  12.152  23.840  0.00  0.00    +0.000 A 
ATOM     30  C   UNL     1      -2.598  12.464  22.628  0.00  0.00    +0.000 A 
ATOM     31  C   UNL     1      -1.553  11.580  22.065  0.00  0.00    +0.000 A 
ATOM     32  O   UNL     1      -0.926  10.826  22.799  0.00  0.00    +0.000 OA
BRANCH  23  33
ATOM     33  S   UNL     1      -2.969  11.603  18.479  0.00  0.00    +0.000 S 
ATOM     34  H   UNL     1      -1.781  11.792  17.861  0.00  0.00    +0.000 HD
ENDBRANCH  23  33
ENDBRANCH  20  22
ENDBRANCH   2  18
TORSDOF 6
ENDMDL
MODEL 9
REMARK VINA RESULT:      -7.4      1.864      2.983
REMARK  Name = 
REMARK  6 active torsions:
REMARK  status: ('A' for Active; 'I' for Inactive)
REMARK    1  A    between atoms: C_2  and  C_17
REMARK    2  A    between atoms: N_3  and  C_4
REMARK    3  A    between atoms: C_7  and  C_8
REMARK    4  A    between atoms: C_13  and  N_14
REMARK    5  A    between atoms: N_19  and  N_20
REMARK    6  A    between atoms: C_21  and  S_22
REMARK                            x       y       z     vdW  Elec       q    Type
REMARK                         _______ _______ _______ _____ _____    ______ ____
ROOT
ATOM      1  O   UNL     1       2.021  10.094  17.562  0.00  0.00    +0.000 OA
ATOM      2  C   UNL     1       1.505   9.638  18.577  0.00  0.00    +0.000 C 
ATOM      3  N   UNL     1       1.663   8.365  19.113  0.00  0.00    +0.000 N 
ATOM      4  H   UNL     1       1.041   8.134  19.894  0.00  0.00    +0.000 HD
ENDROOT
BRANCH   3   5
ATOM      5  C   UNL     1       2.526   7.328  18.626  0.00  0.00    +0.000 A 
ATOM      6  C   UNL     1       3.434   7.588  17.591  0.00  0.00    +0.000 A 
ATOM      7  C   UNL     1       4.298   6.601  17.079  0.00  0.00    +0.000 A 
ATOM      8  C   UNL     1       4.284   5.300  17.589  0.00  0.00    +0.000 A 
ATOM      9  C   UNL     1       3.400   5.016  18.642  0.00  0.00    +0.000 A 
ATOM     10  C   UNL     1       2.535   6.014  19.161  0.00  0.00    +0.000 A 
BRANCH   8  11
ATOM     11  C   UNL     1       5.188   4.225  17.030  0.00  0.00    +0.000 C 
ATOM     12  F   UNL     1       4.667   2.971  17.129  0.00  0.00    +0.000 F 
ATOM     13  F   UNL     1       5.462   4.413  15.709  0.00  0.00    +0.000 F 
ATOM     14  F   UNL     1       6.392   4.182  17.662  0.00  0.00    +0.000 F 
ENDBRANCH   8  11
BRANCH  10  15
ATOM     15  N   UNL     1       1.643   5.616  20.259  0.00  0.00    +0.000 N 
ATOM     16  O   UNL     1       1.174   4.468  20.244  0.00  0.00    +0.000 OA
ATOM     17  O   UNL     1       1.409   6.452  21.144  0.00  0.00    +0.000 OA
ENDBRANCH  10  15
ENDBRANCH   3   5
BRANCH   2  18
ATOM     18  C   UNL     1       0.521  10.572  19.325  0.00  0.00    +0.000 C 
ATOM     19  O   UNL     1      -0.641  10.669  18.963  0.00  0.00    +0.000 OA
ATOM     20  N   UNL     1       1.150  11.183  20.401  0.00  0.00    +0.000 N 
ATOM     21  H   UNL     1       2.027  10.759  20.701  0.00  0.00    +0.000 HD
BRANCH  20  22
ATOM     22  N   UNL     1       0.454  11.965  21.370  0.00  0.00    +0.000 N 
ATOM     23  C   UNL     1       0.397  13.353  21.218  0.00  0.00    +0.000 A 
ATOM     24  N   UNL     1      -0.105  14.170  22.084  0.00  0.00    +0.000 NA
ATOM     25  C   UNL     1      -0.963  13.595  23.048  0.00  0.00    +0.000 A 
ATOM     26  C   UNL     1      -1.745  14.457  23.823  0.00  0.00    +0.000 A 
ATOM     27  C   UNL     1      -3.019  14.059  24.227  0.00  0.00    +0.000 A 
ATOM     28  C   UNL     1      -3.495  12.793  23.888  0.00  0.00    +0.000 A 
ATOM     29  C   UNL     1      -2.644  11.864  23.288  0.00  0.00    +0.000 A 
ATOM     30  C   UNL     1      -1.354  12.255  22.924  0.00  0.00    +0.000 A 
ATOM     31  C   UNL     1      -0.467  11.332  22.183  0.00  0.00    +0.000 A 
ATOM     32  O   UNL     1      -0.656  10.123  22.237  0.00  0.00    +0.000 OA
BRANCH  23  33
ATOM     33  S   UNL     1       0.710  13.958  19.617  0.00  0.00    +0.000 S 
ATOM     34  H   UNL     1      -0.607  14.042  19.317  0.00  0.00    +0.000 HD
ENDBRANCH  23  33
ENDBRANCH  20  22
ENDBRANCH   2  18
TORSDOF 6
ENDMDL
