MODEL 1
REMARK VINA RESULT:      -7.9      0.000      0.000
REMARK  Name = 
REMARK  8 active torsions:
REMARK  status: ('A' for Active; 'I' for Inactive)
REMARK    1  A    between atoms: N_6  and  C_7
REMARK    2  A    between atoms: C_7  and  C_8
REMARK    3  A    between atoms: C_9  and  C_10
REMARK    4  A    between atoms: C_10  and  P_11
REMARK    5  A    between atoms: P_11  and  O_13
REMARK    6  A    between atoms: P_11  and  O_14
REMARK    7  A    between atoms: C_16  and  C_17
REMARK    8  A    between atoms: C_17  and  C_18
REMARK                            x       y       z     vdW  Elec       q    Type
REMARK                         _______ _______ _______ _____ _____    ______ ____
ROOT
ATOM      1  O   UNL     1       3.768   3.459  16.395  0.00  0.00    +0.000 OA
ATOM      2  C   UNL     1       4.658   4.137  16.897  0.00  0.00    +0.000 A 
ATOM      3  N   UNL     1       5.977   3.847  16.699  0.00  0.00    +0.000 N 
ATOM      4  C   UNL     1       7.044   4.575  17.150  0.00  0.00    +0.000 A 
ATOM      5  O   UNL     1       8.188   4.233  16.859  0.00  0.00    +0.000 OA
ATOM      6  N   UNL     1       6.724   5.685  17.919  0.00  0.00    +0.000 N 
ATOM      7  C   UNL     1       5.415   6.013  18.218  0.00  0.00    +0.000 A 
ATOM      8  C   UNL     1       4.372   5.313  17.752  0.00  0.00    +0.000 A 
ATOM      9  H   UNL     1       6.190   3.050  16.119  0.00  0.00    +0.000 HD
ENDROOT
BRANCH   6  10
ATOM     10  C   UNL     1       7.812   6.516  18.418  0.00  0.00    +0.000 C 
BRANCH  10  11
ATOM     11  C   UNL     1       7.743   7.879  17.790  0.00  0.00    +0.000 C 
ATOM     12  C   UNL     1       8.363   8.964  18.282  0.00  0.00    +0.000 C 
BRANCH  12  13
ATOM     13  C   UNL     1       8.330  10.323  17.638  0.00  0.00    +0.000 C 
BRANCH  13  14
ATOM     14  P   UNL     1       9.473  11.439  18.529  0.00  0.00    +0.000 P 
ATOM     15  O   UNL     1       9.679  10.406  19.639  0.00  0.00    +0.000 OA
BRANCH  14  16
ATOM     16  O   UNL     1      10.679  11.127  17.465  0.00  0.00    +0.000 OA
ATOM     17  H   UNL     1      10.622  10.208  17.143  0.00  0.00    +0.000 HD
ENDBRANCH  14  16
BRANCH  14  18
ATOM     18  O   UNL     1      10.555  12.495  19.371  0.00  0.00    +0.000 OA
ATOM     19  H   UNL     1       9.971  13.071  19.905  0.00  0.00    +0.000 HD
ENDBRANCH  14  18
ENDBRANCH  13  14
ENDBRANCH  12  13
ENDBRANCH  10  11
ENDBRANCH   6  10
BRANCH   8  20
ATOM     20  C   UNL     1       2.936   5.635  18.064  0.00  0.00    +0.000 C 
BRANCH  20  21
ATOM     21  C   UNL     1       2.329   4.698  19.085  0.00  0.00    +0.000 A 
ATOM     22  C   UNL     1       1.364   3.754  18.703  0.00  0.00    +0.000 A 
ATOM     23  C   UNL     1       0.756   2.935  19.655  0.00  0.00    +0.000 A 
ATOM     24  C   UNL     1       1.117   3.038  20.996  0.00  0.00    +0.000 A 
ATOM     25  C   UNL     1       2.098   3.948  21.385  0.00  0.00    +0.000 A 
ATOM     26  C   UNL     1       2.702   4.774  20.435  0.00  0.00    +0.000 A 
ENDBRANCH  20  21
ENDBRANCH   8  20
TORSDOF 8
ENDMDL
MODEL 2
REMARK VINA RESULT:      -7.2      4.753      6.288
REMARK  Name = 
REMARK  8 active torsions:
REMARK  status: ('A' for Active; 'I' for Inactive)
REMARK    1  A    between atoms: N_6  and  C_7
REMARK    2  A    between atoms: C_7  and  C_8
REMARK    3  A    between atoms: C_9  and  C_10
REMARK    4  A    between atoms: C_10  and  P_11
REMARK    5  A    between atoms: P_11  and  O_13
REMARK    6  A    between atoms: P_11  and  O_14
REMARK    7  A    between atoms: C_16  and  C_17
REMARK    8  A    between atoms: C_17  and  C_18
REMARK                            x       y       z     vdW  Elec       q    Type
REMARK                         _______ _______ _______ _____ _____    ______ ____
ROOT
ATOM      1  O   UNL     1       1.215   9.130  21.156  0.00  0.00    +0.000 OA
ATOM      2  C   UNL     1       1.633   8.285  20.372  0.00  0.00    +0.000 A 
ATOM      3  N   UNL     1       1.928   7.016  20.777  0.00  0.00    +0.000 N 
ATOM      4  C   UNL     1       2.330   5.982  19.977  0.00  0.00    +0.000 A 
ATOM      5  O   UNL     1       2.516   4.867  20.460  0.00  0.00    +0.000 OA
ATOM      6  N   UNL     1       2.489   6.296  18.634  0.00  0.00    +0.000 N 
ATOM      7  C   UNL     1       2.272   7.574  18.153  0.00  0.00    +0.000 A 
ATOM      8  C   UNL     1       1.851   8.577  18.935  0.00  0.00    +0.000 A 
ATOM      9  H   UNL     1       1.785   6.800  21.751  0.00  0.00    +0.000 HD
ENDROOT
BRANCH   6  10
ATOM     10  C   UNL     1       2.899   5.237  17.721  0.00  0.00    +0.000 C 
BRANCH  10  11
ATOM     11  C   UNL     1       4.398   5.177  17.649  0.00  0.00    +0.000 C 
ATOM     12  C   UNL     1       5.174   6.214  17.294  0.00  0.00    +0.000 C 
BRANCH  12  13
ATOM     13  C   UNL     1       6.677   6.172  17.256  0.00  0.00    +0.000 C 
BRANCH  13  14
ATOM     14  P   UNL     1       7.311   5.761  18.922  0.00  0.00    +0.000 P 
ATOM     15  O   UNL     1       8.065   4.546  18.378  0.00  0.00    +0.000 OA
BRANCH  14  16
ATOM     16  O   UNL     1       8.409   6.975  18.855  0.00  0.00    +0.000 OA
ATOM     17  H   UNL     1       8.637   7.280  19.753  0.00  0.00    +0.000 HD
ENDBRANCH  14  16
BRANCH  14  18
ATOM     18  O   UNL     1       7.910   5.373  20.498  0.00  0.00    +0.000 OA
ATOM     19  H   UNL     1       8.883   5.365  20.398  0.00  0.00    +0.000 HD
ENDBRANCH  14  18
ENDBRANCH  13  14
ENDBRANCH  12  13
ENDBRANCH  10  11
ENDBRANCH   6  10
BRANCH   8  20
ATOM     20  C   UNL     1       1.613   9.981  18.449  0.00  0.00    +0.000 C 
BRANCH  20  21
ATOM     21  C   UNL     1       0.145  10.334  18.358  0.00  0.00    +0.000 A 
ATOM     22  C   UNL     1      -0.389  11.371  19.138  0.00  0.00    +0.000 A 
ATOM     23  C   UNL     1      -1.754  11.654  19.105  0.00  0.00    +0.000 A 
ATOM     24  C   UNL     1      -2.600  10.916  18.279  0.00  0.00    +0.000 A 
ATOM     25  C   UNL     1      -2.077   9.905  17.474  0.00  0.00    +0.000 A 
ATOM     26  C   UNL     1      -0.712   9.616  17.513  0.00  0.00    +0.000 A 
ENDBRANCH  20  21
ENDBRANCH   8  20
TORSDOF 8
ENDMDL
MODEL 3
REMARK VINA RESULT:      -7.2      5.631      7.495
REMARK  Name = 
REMARK  8 active torsions:
REMARK  status: ('A' for Active; 'I' for Inactive)
REMARK    1  A    between atoms: N_6  and  C_7
REMARK    2  A    between atoms: C_7  and  C_8
REMARK    3  A    between atoms: C_9  and  C_10
REMARK    4  A    between atoms: C_10  and  P_11
REMARK    5  A    between atoms: P_11  and  O_13
REMARK    6  A    between atoms: P_11  and  O_14
REMARK    7  A    between atoms: C_16  and  C_17
REMARK    8  A    between atoms: C_17  and  C_18
REMARK                            x       y       z     vdW  Elec       q    Type
REMARK                         _______ _______ _______ _____ _____    ______ ____
ROOT
ATOM      1  O   UNL     1       2.867   3.998  20.602  0.00  0.00    +0.000 OA
ATOM      2  C   UNL     1       2.679   5.079  20.052  0.00  0.00    +0.000 A 
ATOM      3  N   UNL     1       2.195   6.155  20.736  0.00  0.00    +0.000 N 
ATOM      4  C   UNL     1       2.016   7.417  20.241  0.00  0.00    +0.000 A 
ATOM      5  O   UNL     1       1.618   8.317  20.979  0.00  0.00    +0.000 OA
ATOM      6  N   UNL     1       2.322   7.578  18.897  0.00  0.00    +0.000 N 
ATOM      7  C   UNL     1       2.758   6.523  18.117  0.00  0.00    +0.000 A 
ATOM      8  C   UNL     1       2.959   5.295  18.613  0.00  0.00    +0.000 A 
ATOM      9  H   UNL     1       1.999   6.026  21.717  0.00  0.00    +0.000 HD
ENDROOT
BRANCH   6  10
ATOM     10  C   UNL     1       2.171   8.902  18.307  0.00  0.00    +0.000 C 
BRANCH  10  11
ATOM     11  C   UNL     1       0.806   9.037  17.696  0.00  0.00    +0.000 C 
ATOM     12  C   UNL     1      -0.100   9.951  18.079  0.00  0.00    +0.000 C 
BRANCH  12  13
ATOM     13  C   UNL     1      -1.455  10.116  17.447  0.00  0.00    +0.000 C 
BRANCH  13  14
ATOM     14  P   UNL     1      -2.343  11.485  18.276  0.00  0.00    +0.000 P 
ATOM     15  O   UNL     1      -1.567  11.252  19.575  0.00  0.00    +0.000 OA
BRANCH  14  16
ATOM     16  O   UNL     1      -1.455  12.606  17.477  0.00  0.00    +0.000 OA
ATOM     17  H   UNL     1      -1.700  13.505  17.766  0.00  0.00    +0.000 HD
ENDBRANCH  14  16
BRANCH  14  18
ATOM     18  O   UNL     1      -3.183  12.778  19.060  0.00  0.00    +0.000 OA
ATOM     19  H   UNL     1      -3.148  12.554  20.012  0.00  0.00    +0.000 HD
ENDBRANCH  14  18
ENDBRANCH  13  14
ENDBRANCH  12  13
ENDBRANCH  10  11
ENDBRANCH   6  10
BRANCH   8  20
ATOM     20  C   UNL     1       3.424   4.122  17.794  0.00  0.00    +0.000 C 
BRANCH  20  21
ATOM     21  C   UNL     1       4.810   4.314  17.220  0.00  0.00    +0.000 A 
ATOM     22  C   UNL     1       5.040   4.167  15.844  0.00  0.00    +0.000 A 
ATOM     23  C   UNL     1       6.329   4.279  15.323  0.00  0.00    +0.000 A 
ATOM     24  C   UNL     1       7.401   4.556  16.168  0.00  0.00    +0.000 A 
ATOM     25  C   UNL     1       7.182   4.739  17.532  0.00  0.00    +0.000 A 
ATOM     26  C   UNL     1       5.894   4.619  18.056  0.00  0.00    +0.000 A 
ENDBRANCH  20  21
ENDBRANCH   8  20
TORSDOF 8
ENDMDL
MODEL 4
REMARK VINA RESULT:      -7.2      3.577      5.129
REMARK  Name = 
REMARK  8 active torsions:
REMARK  status: ('A' for Active; 'I' for Inactive)
REMARK    1  A    between atoms: N_6  and  C_7
REMARK    2  A    between atoms: C_7  and  C_8
REMARK    3  A    between atoms: C_9  and  C_10
REMARK    4  A    between atoms: C_10  and  P_11
REMARK    5  A    between atoms: P_11  and  O_13
REMARK    6  A    between atoms: P_11  and  O_14
REMARK    7  A    between atoms: C_16  and  C_17
REMARK    8  A    between atoms: C_17  and  C_18
REMARK                            x       y       z     vdW  Elec       q    Type
REMARK                         _______ _______ _______ _____ _____    ______ ____
ROOT
ATOM      1  O   UNL     1       0.825   8.066  21.433  0.00  0.00    +0.000 OA
ATOM      2  C   UNL     1       1.431   7.916  20.377  0.00  0.00    +0.000 A 
ATOM      3  N   UNL     1       1.513   8.915  19.451  0.00  0.00    +0.000 N 
ATOM      4  C   UNL     1       2.217   8.879  18.279  0.00  0.00    +0.000 A 
ATOM      5  O   UNL     1       2.252   9.869  17.552  0.00  0.00    +0.000 OA
ATOM      6  N   UNL     1       2.865   7.681  18.011  0.00  0.00    +0.000 N 
ATOM      7  C   UNL     1       2.781   6.599  18.868  0.00  0.00    +0.000 A 
ATOM      8  C   UNL     1       2.112   6.648  20.028  0.00  0.00    +0.000 A 
ATOM      9  H   UNL     1       1.055   9.786  19.673  0.00  0.00    +0.000 HD
ENDROOT
BRANCH   6  10
ATOM     10  C   UNL     1       3.650   7.578  16.788  0.00  0.00    +0.000 C 
BRANCH  10  11
ATOM     11  C   UNL     1       4.763   6.587  16.977  0.00  0.00    +0.000 C 
ATOM     12  C   UNL     1       5.496   6.082  15.972  0.00  0.00    +0.000 C 
BRANCH  12  13
ATOM     13  C   UNL     1       6.636   5.118  16.156  0.00  0.00    +0.000 C 
BRANCH  13  14
ATOM     14  P   UNL     1       7.197   5.175  17.897  0.00  0.00    +0.000 P 
ATOM     15  O   UNL     1       8.270   4.117  17.627  0.00  0.00    +0.000 OA
BRANCH  14  16
ATOM     16  O   UNL     1       7.969   6.599  17.649  0.00  0.00    +0.000 OA
ATOM     17  H   UNL     1       7.463   7.335  18.041  0.00  0.00    +0.000 HD
ENDBRANCH  14  16
BRANCH  14  18
ATOM     18  O   UNL     1       7.727   5.230  19.543  0.00  0.00    +0.000 OA
ATOM     19  H   UNL     1       7.594   6.161  19.814  0.00  0.00    +0.000 HD
ENDBRANCH  14  18
ENDBRANCH  13  14
ENDBRANCH  12  13
ENDBRANCH  10  11
ENDBRANCH   6  10
BRANCH   8  20
ATOM     20  C   UNL     1       1.991   5.488  20.979  0.00  0.00    +0.000 C 
BRANCH  20  21
ATOM     21  C   UNL     1       2.004   4.147  20.280  0.00  0.00    +0.000 A 
ATOM     22  C   UNL     1       3.208   3.452  20.090  0.00  0.00    +0.000 A 
ATOM     23  C   UNL     1       3.230   2.247  19.388  0.00  0.00    +0.000 A 
ATOM     24  C   UNL     1       2.047   1.713  18.882  0.00  0.00    +0.000 A 
ATOM     25  C   UNL     1       0.839   2.375  19.094  0.00  0.00    +0.000 A 
ATOM     26  C   UNL     1       0.816   3.585  19.789  0.00  0.00    +0.000 A 
ENDBRANCH  20  21
ENDBRANCH   8  20
TORSDOF 8
ENDMDL
MODEL 5
REMARK VINA RESULT:      -7.1      5.267      6.756
REMARK  Name = 
REMARK  8 active torsions:
REMARK  status: ('A' for Active; 'I' for Inactive)
REMARK    1  A    between atoms: N_6  and  C_7
REMARK    2  A    between atoms: C_7  and  C_8
REMARK    3  A    between atoms: C_9  and  C_10
REMARK    4  A    between atoms: C_10  and  P_11
REMARK    5  A    between atoms: P_11  and  O_13
REMARK    6  A    between atoms: P_11  and  O_14
REMARK    7  A    between atoms: C_16  and  C_17
REMARK    8  A    between atoms: C_17  and  C_18
REMARK                            x       y       z     vdW  Elec       q    Type
REMARK                         _______ _______ _______ _____ _____    ______ ____
ROOT
ATOM      1  O   UNL     1       0.487   9.629  21.417  0.00  0.00    +0.000 OA
ATOM      2  C   UNL     1       1.059   8.946  20.575  0.00  0.00    +0.000 A 
ATOM      3  N   UNL     1       1.559   7.712  20.872  0.00  0.00    +0.000 N 
ATOM      4  C   UNL     1       2.148   6.842  19.996  0.00  0.00    +0.000 A 
ATOM      5  O   UNL     1       2.513   5.734  20.382  0.00  0.00    +0.000 OA
ATOM      6  N   UNL     1       2.278   7.306  18.694  0.00  0.00    +0.000 N 
ATOM      7  C   UNL     1       1.853   8.569  18.324  0.00  0.00    +0.000 A 
ATOM      8  C   UNL     1       1.252   9.407  19.179  0.00  0.00    +0.000 A 
ATOM      9  H   UNL     1       1.436   7.382  21.817  0.00  0.00    +0.000 HD
ENDROOT
BRANCH   6  10
ATOM     10  C   UNL     1       2.881   6.424  17.703  0.00  0.00    +0.000 C 
BRANCH  10  11
ATOM     11  C   UNL     1       4.328   6.778  17.519  0.00  0.00    +0.000 C 
ATOM     12  C   UNL     1       5.342   5.919  17.715  0.00  0.00    +0.000 C 
BRANCH  12  13
ATOM     13  C   UNL     1       6.792   6.254  17.496  0.00  0.00    +0.000 C 
BRANCH  13  14
ATOM     14  P   UNL     1       7.759   5.722  18.955  0.00  0.00    +0.000 P 
ATOM     15  O   UNL     1       6.482   5.371  19.722  0.00  0.00    +0.000 OA
BRANCH  14  16
ATOM     16  O   UNL     1       8.182   4.320  18.220  0.00  0.00    +0.000 OA
ATOM     17  H   UNL     1       8.608   3.716  18.856  0.00  0.00    +0.000 HD
ENDBRANCH  14  16
BRANCH  14  18
ATOM     18  O   UNL     1       8.675   5.219  20.334  0.00  0.00    +0.000 OA
ATOM     19  H   UNL     1       9.607   5.247  20.035  0.00  0.00    +0.000 HD
ENDBRANCH  14  18
ENDBRANCH  13  14
ENDBRANCH  12  13
ENDBRANCH  10  11
ENDBRANCH   6  10
BRANCH   8  20
ATOM     20  C   UNL     1       0.786  10.790  18.815  0.00  0.00    +0.000 C 
BRANCH  20  21
ATOM     21  C   UNL     1      -0.683  10.845  18.460  0.00  0.00    +0.000 A 
ATOM     22  C   UNL     1      -1.544  11.737  19.117  0.00  0.00    +0.000 A 
ATOM     23  C   UNL     1      -2.910  11.742  18.838  0.00  0.00    +0.000 A 
ATOM     24  C   UNL     1      -3.431  10.868  17.887  0.00  0.00    +0.000 A 
ATOM     25  C   UNL     1      -2.583  10.000  17.202  0.00  0.00    +0.000 A 
ATOM     26  C   UNL     1      -1.216   9.988  17.486  0.00  0.00    +0.000 A 
ENDBRANCH  20  21
ENDBRANCH   8  20
TORSDOF 8
ENDMDL
MODEL 6
REMARK VINA RESULT:      -7.1      0.772      1.056
REMARK  Name = 
REMARK  8 active torsions:
REMARK  status: ('A' for Active; 'I' for Inactive)
REMARK    1  A    between atoms: N_6  and  C_7
REMARK    2  A    between atoms: C_7  and  C_8
REMARK    3  A    between atoms: C_9  and  C_10
REMARK    4  A    between atoms: C_10  and  P_11
REMARK    5  A    between atoms: P_11  and  O_13
REMARK    6  A    between atoms: P_11  and  O_14
REMARK    7  A    between atoms: C_16  and  C_17
REMARK    8  A    between atoms: C_17  and  C_18
REMARK                            x       y       z     vdW  Elec       q    Type
REMARK                         _______ _______ _______ _____ _____    ______ ____
ROOT
ATOM      1  O   UNL     1       3.762   3.549  16.412  0.00  0.00    +0.000 OA
ATOM      2  C   UNL     1       4.670   4.147  16.980  0.00  0.00    +0.000 A 
ATOM      3  N   UNL     1       5.979   3.915  16.676  0.00  0.00    +0.000 N 
ATOM      4  C   UNL     1       7.061   4.572  17.194  0.00  0.00    +0.000 A 
ATOM      5  O   UNL     1       8.193   4.302  16.797  0.00  0.00    +0.000 OA
ATOM      6  N   UNL     1       6.771   5.532  18.154  0.00  0.00    +0.000 N 
ATOM      7  C   UNL     1       5.474   5.783  18.564  0.00  0.00    +0.000 A 
ATOM      8  C   UNL     1       4.416   5.157  18.034  0.00  0.00    +0.000 A 
ATOM      9  H   UNL     1       6.170   3.231  15.960  0.00  0.00    +0.000 HD
ENDROOT
BRANCH   6  10
ATOM     10  C   UNL     1       7.875   6.283  18.736  0.00  0.00    +0.000 C 
BRANCH  10  11
ATOM     11  C   UNL     1       7.973   7.633  18.085  0.00  0.00    +0.000 C 
ATOM     12  C   UNL     1       8.549   8.702  18.658  0.00  0.00    +0.000 C 
BRANCH  12  13
ATOM     13  C   UNL     1       8.684  10.047  17.998  0.00  0.00    +0.000 C 
BRANCH  13  14
ATOM     14  P   UNL     1       9.993  11.005  18.845  0.00  0.00    +0.000 P 
ATOM     15  O   UNL     1      10.519  11.541  17.512  0.00  0.00    +0.000 OA
BRANCH  14  16
ATOM     16  O   UNL     1       8.912  12.136  19.332  0.00  0.00    +0.000 OA
ATOM     17  H   UNL     1       8.143  12.154  18.733  0.00  0.00    +0.000 HD
ENDBRANCH  14  16
BRANCH  14  18
ATOM     18  O   UNL     1      11.229  11.910  19.648  0.00  0.00    +0.000 OA
ATOM     19  H   UNL     1      10.853  12.117  20.527  0.00  0.00    +0.000 HD
ENDBRANCH  14  18
ENDBRANCH  13  14
ENDBRANCH  12  13
ENDBRANCH  10  11
ENDBRANCH   6  10
BRANCH   8  20
ATOM     20  C   UNL     1       2.994   5.398  18.462  0.00  0.00    +0.000 C 
BRANCH  20  21
ATOM     21  C   UNL     1       2.506   4.395  19.484  0.00  0.00    +0.000 A 
ATOM     22  C   UNL     1       1.141   4.304  19.799  0.00  0.00    +0.000 A 
ATOM     23  C   UNL     1       0.698   3.426  20.789  0.00  0.00    +0.000 A 
ATOM     24  C   UNL     1       1.610   2.617  21.463  0.00  0.00    +0.000 A 
ATOM     25  C   UNL     1       2.964   2.674  21.136  0.00  0.00    +0.000 A 
ATOM     26  C   UNL     1       3.410   3.557  20.152  0.00  0.00    +0.000 A 
ENDBRANCH  20  21
ENDBRANCH   8  20
TORSDOF 8
ENDMDL
MODEL 7
REMARK VINA RESULT:      -7.0      4.488      6.874
REMARK  Name = 
REMARK  8 active torsions:
REMARK  status: ('A' for Active; 'I' for Inactive)
REMARK    1  A    between atoms: N_6  and  C_7
REMARK    2  A    between atoms: C_7  and  C_8
REMARK    3  A    between atoms: C_9  and  C_10
REMARK    4  A    between atoms: C_10  and  P_11
REMARK    5  A    between atoms: P_11  and  O_13
REMARK    6  A    between atoms: P_11  and  O_14
REMARK    7  A    between atoms: C_16  and  C_17
REMARK    8  A    between atoms: C_17  and  C_18
REMARK                            x       y       z     vdW  Elec       q    Type
REMARK                         _______ _______ _______ _____ _____    ______ ____
ROOT
ATOM      1  O   UNL     1       8.065   4.159  17.352  0.00  0.00    +0.000 OA
ATOM      2  C   UNL     1       6.897   4.495  17.513  0.00  0.00    +0.000 A 
ATOM      3  N   UNL     1       6.154   4.025  18.556  0.00  0.00    +0.000 N 
ATOM      4  C   UNL     1       4.873   4.388  18.868  0.00  0.00    +0.000 A 
ATOM      5  O   UNL     1       4.329   3.927  19.869  0.00  0.00    +0.000 OA
ATOM      6  N   UNL     1       4.280   5.290  17.994  0.00  0.00    +0.000 N 
ATOM      7  C   UNL     1       4.943   5.766  16.878  0.00  0.00    +0.000 A 
ATOM      8  C   UNL     1       6.208   5.429  16.592  0.00  0.00    +0.000 A 
ATOM      9  H   UNL     1       6.608   3.389  19.193  0.00  0.00    +0.000 HD
ENDROOT
BRANCH   6  10
ATOM     10  C   UNL     1       2.922   5.734  18.275  0.00  0.00    +0.000 C 
BRANCH  10  11
ATOM     11  C   UNL     1       2.895   7.227  18.433  0.00  0.00    +0.000 C 
ATOM     12  C   UNL     1       2.093   8.042  17.728  0.00  0.00    +0.000 C 
BRANCH  12  13
ATOM     13  C   UNL     1       2.033   9.534  17.907  0.00  0.00    +0.000 C 
BRANCH  13  14
ATOM     14  P   UNL     1       0.638   9.953  19.014  0.00  0.00    +0.000 P 
ATOM     15  O   UNL     1       1.297  11.278  19.406  0.00  0.00    +0.000 OA
BRANCH  14  16
ATOM     16  O   UNL     1      -0.315  10.343  17.740  0.00  0.00    +0.000 OA
ATOM     17  H   UNL     1      -1.100   9.765  17.711  0.00  0.00    +0.000 HD
ENDBRANCH  14  16
BRANCH  14  18
ATOM     18  O   UNL     1      -0.681  10.348  20.061  0.00  0.00    +0.000 OA
ATOM     19  H   UNL     1      -0.336  10.193  20.963  0.00  0.00    +0.000 HD
ENDBRANCH  14  18
ENDBRANCH  13  14
ENDBRANCH  12  13
ENDBRANCH  10  11
ENDBRANCH   6  10
BRANCH   8  20
ATOM     20  C   UNL     1       6.957   5.920  15.383  0.00  0.00    +0.000 C 
BRANCH  20  21
ATOM     21  C   UNL     1       6.735   5.058  14.160  0.00  0.00    +0.000 A 
ATOM     22  C   UNL     1       5.629   4.197  14.084  0.00  0.00    +0.000 A 
ATOM     23  C   UNL     1       5.460   3.353  12.986  0.00  0.00    +0.000 A 
ATOM     24  C   UNL     1       6.383   3.371  11.944  0.00  0.00    +0.000 A 
ATOM     25  C   UNL     1       7.468   4.245  11.990  0.00  0.00    +0.000 A 
ATOM     26  C   UNL     1       7.643   5.084  13.092  0.00  0.00    +0.000 A 
ENDBRANCH  20  21
ENDBRANCH   8  20
TORSDOF 8
ENDMDL
MODEL 8
REMARK VINA RESULT:      -7.0      4.305      6.367
REMARK  Name = 
REMARK  8 active torsions:
REMARK  status: ('A' for Active; 'I' for Inactive)
REMARK    1  A    between atoms: N_6  and  C_7
REMARK    2  A    between atoms: C_7  and  C_8
REMARK    3  A    between atoms: C_9  and  C_10
REMARK    4  A    between atoms: C_10  and  P_11
REMARK    5  A    between atoms: P_11  and  O_13
REMARK    6  A    between atoms: P_11  and  O_14
REMARK    7  A    between atoms: C_16  and  C_17
REMARK    8  A    between atoms: C_17  and  C_18
REMARK                            x       y       z     vdW  Elec       q    Type
REMARK                         _______ _______ _______ _____ _____    ______ ____
ROOT
ATOM      1  O   UNL     1       1.778   8.591  20.829  0.00  0.00    +0.000 OA
ATOM      2  C   UNL     1       1.958   7.548  20.210  0.00  0.00    +0.000 A 
ATOM      3  N   UNL     1       1.903   6.332  20.824  0.00  0.00    +0.000 N 
ATOM      4  C   UNL     1       2.017   5.110  20.219  0.00  0.00    +0.000 A 
ATOM      5  O   UNL     1       1.898   4.082  20.881  0.00  0.00    +0.000 OA
ATOM      6  N   UNL     1       2.256   5.144  18.852  0.00  0.00    +0.000 N 
ATOM      7  C   UNL     1       2.388   6.337  18.164  0.00  0.00    +0.000 A 
ATOM      8  C   UNL     1       2.249   7.530  18.756  0.00  0.00    +0.000 A 
ATOM      9  H   UNL     1       1.705   6.325  21.813  0.00  0.00    +0.000 HD
ENDROOT
BRANCH   6  10
ATOM     10  C   UNL     1       2.371   3.879  18.139  0.00  0.00    +0.000 C 
BRANCH  10  11
ATOM     11  C   UNL     1       3.384   4.004  17.037  0.00  0.00    +0.000 C 
ATOM     12  C   UNL     1       4.708   3.867  17.216  0.00  0.00    +0.000 C 
BRANCH  12  13
ATOM     13  C   UNL     1       5.725   3.953  16.112  0.00  0.00    +0.000 C 
BRANCH  13  14
ATOM     14  P   UNL     1       6.773   5.430  16.373  0.00  0.00    +0.000 P 
ATOM     15  O   UNL     1       7.772   4.622  17.206  0.00  0.00    +0.000 OA
BRANCH  14  16
ATOM     16  O   UNL     1       7.362   5.339  14.847  0.00  0.00    +0.000 OA
ATOM     17  H   UNL     1       7.224   6.183  14.377  0.00  0.00    +0.000 HD
ENDBRANCH  14  16
BRANCH  14  18
ATOM     18  O   UNL     1       7.764   6.826  16.620  0.00  0.00    +0.000 OA
ATOM     19  H   UNL     1       7.635   7.367  15.814  0.00  0.00    +0.000 HD
ENDBRANCH  14  18
ENDBRANCH  13  14
ENDBRANCH  12  13
ENDBRANCH  10  11
ENDBRANCH   6  10
BRANCH   8  20
ATOM     20  C   UNL     1       2.395   8.846  18.042  0.00  0.00    +0.000 C 
BRANCH  20  21
ATOM     21  C   UNL     1       1.183   9.739  18.196  0.00  0.00    +0.000 A 
ATOM     22  C   UNL     1      -0.088   9.291  17.804  0.00  0.00    +0.000 A 
ATOM     23  C   UNL     1      -1.195  10.136  17.883  0.00  0.00    +0.000 A 
ATOM     24  C   UNL     1      -1.049  11.433  18.370  0.00  0.00    +0.000 A 
ATOM     25  C   UNL     1       0.202  11.880  18.793  0.00  0.00    +0.000 A 
ATOM     26  C   UNL     1       1.312  11.038  18.708  0.00  0.00    +0.000 A 
ENDBRANCH  20  21
ENDBRANCH   8  20
TORSDOF 8
ENDMDL
MODEL 9
REMARK VINA RESULT:      -7.0      4.407      6.486
REMARK  Name = 
REMARK  8 active torsions:
REMARK  status: ('A' for Active; 'I' for Inactive)
REMARK    1  A    between atoms: N_6  and  C_7
REMARK    2  A    between atoms: C_7  and  C_8
REMARK    3  A    between atoms: C_9  and  C_10
REMARK    4  A    between atoms: C_10  and  P_11
REMARK    5  A    between atoms: P_11  and  O_13
REMARK    6  A    between atoms: P_11  and  O_14
REMARK    7  A    between atoms: C_16  and  C_17
REMARK    8  A    between atoms: C_17  and  C_18
REMARK                            x       y       z     vdW  Elec       q    Type
REMARK                         _______ _______ _______ _____ _____    ______ ____
ROOT
ATOM      1  O   UNL     1       1.658   8.677  20.884  0.00  0.00    +0.000 OA
ATOM      2  C   UNL     1       1.870   7.635  20.273  0.00  0.00    +0.000 A 
ATOM      3  N   UNL     1       1.786   6.417  20.882  0.00  0.00    +0.000 N 
ATOM      4  C   UNL     1       1.931   5.198  20.281  0.00  0.00    +0.000 A 
ATOM      5  O   UNL     1       1.780   4.168  20.934  0.00  0.00    +0.000 OA
ATOM      6  N   UNL     1       2.239   5.234  18.927  0.00  0.00    +0.000 N 
ATOM      7  C   UNL     1       2.404   6.428  18.249  0.00  0.00    +0.000 A 
ATOM      8  C   UNL     1       2.233   7.620  18.836  0.00  0.00    +0.000 A 
ATOM      9  H   UNL     1       1.539   6.409  21.860  0.00  0.00    +0.000 HD
ENDROOT
BRANCH   6  10
ATOM     10  C   UNL     1       2.391   3.970  18.219  0.00  0.00    +0.000 C 
BRANCH  10  11
ATOM     11  C   UNL     1       3.370   4.131  17.092  0.00  0.00    +0.000 C 
ATOM     12  C   UNL     1       4.695   3.949  17.217  0.00  0.00    +0.000 C 
BRANCH  12  13
ATOM     13  C   UNL     1       5.678   4.072  16.085  0.00  0.00    +0.000 C 
BRANCH  13  14
ATOM     14  P   UNL     1       6.717   5.554  16.349  0.00  0.00    +0.000 P 
ATOM     15  O   UNL     1       7.582   5.211  15.133  0.00  0.00    +0.000 OA
BRANCH  14  16
ATOM     16  O   UNL     1       5.552   6.535  15.746  0.00  0.00    +0.000 OA
ATOM     17  H   UNL     1       4.916   6.779  16.444  0.00  0.00    +0.000 HD
ENDBRANCH  14  16
BRANCH  14  18
ATOM     18  O   UNL     1       7.700   6.956  16.599  0.00  0.00    +0.000 OA
ATOM     19  H   UNL     1       8.618   6.639  16.476  0.00  0.00    +0.000 HD
ENDBRANCH  14  18
ENDBRANCH  13  14
ENDBRANCH  12  13
ENDBRANCH  10  11
ENDBRANCH   6  10
BRANCH   8  20
ATOM     20  C   UNL     1       2.413   8.938  18.133  0.00  0.00    +0.000 C 
BRANCH  20  21
ATOM     21  C   UNL     1       1.180   9.813  18.192  0.00  0.00    +0.000 A 
ATOM     22  C   UNL     1       1.249  11.107  18.729  0.00  0.00    +0.000 A 
ATOM     23  C   UNL     1       0.100  11.890  18.845  0.00  0.00    +0.000 A 
ATOM     24  C   UNL     1      -1.128  11.395  18.412  0.00  0.00    +0.000 A 
ATOM     25  C   UNL     1      -1.205  10.124  17.846  0.00  0.00    +0.000 A 
ATOM     26  C   UNL     1      -0.057   9.336  17.736  0.00  0.00    +0.000 A 
ENDBRANCH  20  21
ENDBRANCH   8  20
TORSDOF 8
ENDMDL
