MODEL 1
REMARK VINA RESULT:      -7.1      0.000      0.000
REMARK  Name = 
REMARK  14 active torsions:
REMARK  status: ('A' for Active; 'I' for Inactive)
REMARK    1  A    between atoms: C_1  and  C_2
REMARK    2  A    between atoms: C_2  and  C_3
REMARK    3  A    between atoms: C_2  and  N_12
REMARK    4  A    between atoms: C_3  and  N_4
REMARK    5  A    between atoms: C_5  and  O_7
REMARK    6  A    between atoms: O_7  and  C_8
REMARK    7  A    between atoms: C_8  and  C_9
REMARK    8  A    between atoms: C_8  and  C_10
REMARK    9  A    between atoms: C_8  and  C_11
REMARK   10  A    between atoms: N_12  and  C_13
REMARK   11  A    between atoms: C_14  and  C_16
REMARK   12  A    between atoms: C_16  and  O_17
REMARK   13  A    between atoms: O_17  and  C_18
REMARK   14  A    between atoms: C_23  and  C_24
REMARK                            x       y       z     vdW  Elec       q    Type
REMARK                         _______ _______ _______ _____ _____    ______ ____
ROOT
ATOM      1  N   UNL     1       2.212   3.968  19.344  0.00  0.00    +0.000 N 
ATOM      2  C   UNL     1       1.726   4.531  18.089  0.00  0.00    +0.000 C 
ATOM      3  C   UNL     1       1.901   4.583  20.560  0.00  0.00    +0.000 C 
ATOM      4  O   UNL     1       2.251   4.149  21.661  0.00  0.00    +0.000 OA
ENDROOT
BRANCH   1   6
ATOM      5  C   UNL     1       2.808   2.018  17.888  0.00  0.00    +0.000 C 
ATOM      6  C   UNL     1       2.935   2.657  19.284  0.00  0.00    +0.000 C 
BRANCH   6   7
ATOM      7  C   UNL     1       4.428   2.706  19.747  0.00  0.00    +0.000 C 
BRANCH   7   8
ATOM      8  N   UNL     1       5.371   3.253  18.804  0.00  0.00    +0.000 N 
ATOM      9  C   UNL     1       5.771   4.533  18.934  0.00  0.00    +0.000 C 
ATOM     10  O   UNL     1       5.300   5.318  19.745  0.00  0.00    +0.000 OA
ATOM     11  H   UNL     1       5.970   2.642  18.272  0.00  0.00    +0.000 HD
BRANCH   9  12
ATOM     12  O   UNL     1       6.747   4.826  18.043  0.00  0.00    +0.000 OA
BRANCH  12  13
ATOM     13  C   UNL     1       6.458   5.831  17.038  0.00  0.00    +0.000 C 
ATOM     14  C   UNL     1       7.218   7.131  17.327  0.00  0.00    +0.000 C 
ATOM     15  C   UNL     1       6.965   5.246  15.712  0.00  0.00    +0.000 C 
ATOM     16  C   UNL     1       4.942   6.053  16.902  0.00  0.00    +0.000 C 
ENDBRANCH  12  13
ENDBRANCH   9  12
ENDBRANCH   7   8
ENDBRANCH   6   7
ENDBRANCH   1   6
BRANCH   3  17
ATOM     17  C   UNL     1       1.061   5.848  20.561  0.00  0.00    +0.000 C 
BRANCH  17  18
ATOM     18  O   UNL     1       1.903   6.963  20.828  0.00  0.00    +0.000 OA
BRANCH  18  19
ATOM     19  C   UNL     1       1.585   8.141  20.202  0.00  0.00    +0.000 A 
ATOM     20  C   UNL     1       1.972   8.169  18.861  0.00  0.00    +0.000 A 
ATOM     21  C   UNL     1       1.735   9.292  18.073  0.00  0.00    +0.000 A 
ATOM     22  C   UNL     1       1.132  10.416  18.616  0.00  0.00    +0.000 A 
ATOM     23  C   UNL     1       0.783  10.423  19.967  0.00  0.00    +0.000 A 
ATOM     24  C   UNL     1       1.020   9.298  20.781  0.00  0.00    +0.000 A 
BRANCH  24  25
ATOM     25  C   UNL     1       0.706   9.482  22.161  0.00  0.00    +0.000 C 
ATOM     26  N   UNL     1       0.457   9.695  23.278  0.00  0.00    +0.000 NA
ENDBRANCH  24  25
ENDBRANCH  18  19
ENDBRANCH  17  18
ENDBRANCH   3  17
TORSDOF 9
ENDMDL
MODEL 2
REMARK VINA RESULT:      -6.7      1.334      2.138
REMARK  Name = 
REMARK  14 active torsions:
REMARK  status: ('A' for Active; 'I' for Inactive)
REMARK    1  A    between atoms: C_1  and  C_2
REMARK    2  A    between atoms: C_2  and  C_3
REMARK    3  A    between atoms: C_2  and  N_12
REMARK    4  A    between atoms: C_3  and  N_4
REMARK    5  A    between atoms: C_5  and  O_7
REMARK    6  A    between atoms: O_7  and  C_8
REMARK    7  A    between atoms: C_8  and  C_9
REMARK    8  A    between atoms: C_8  and  C_10
REMARK    9  A    between atoms: C_8  and  C_11
REMARK   10  A    between atoms: N_12  and  C_13
REMARK   11  A    between atoms: C_14  and  C_16
REMARK   12  A    between atoms: C_16  and  O_17
REMARK   13  A    between atoms: O_17  and  C_18
REMARK   14  A    between atoms: C_23  and  C_24
REMARK                            x       y       z     vdW  Elec       q    Type
REMARK                         _______ _______ _______ _____ _____    ______ ____
ROOT
ATOM      1  N   UNL     1       2.185   4.012  19.280  0.00  0.00    +0.000 N 
ATOM      2  C   UNL     1       1.695   4.526  18.006  0.00  0.00    +0.000 C 
ATOM      3  C   UNL     1       1.893   4.684  20.470  0.00  0.00    +0.000 C 
ATOM      4  O   UNL     1       2.247   4.294  21.586  0.00  0.00    +0.000 OA
ENDROOT
BRANCH   1   6
ATOM      5  C   UNL     1       2.781   2.012  17.893  0.00  0.00    +0.000 C 
ATOM      6  C   UNL     1       2.891   2.691  19.271  0.00  0.00    +0.000 C 
BRANCH   6   7
ATOM      7  C   UNL     1       4.377   2.734  19.759  0.00  0.00    +0.000 C 
BRANCH   7   8
ATOM      8  N   UNL     1       5.344   3.240  18.818  0.00  0.00    +0.000 N 
ATOM      9  C   UNL     1       5.773   4.512  18.928  0.00  0.00    +0.000 C 
ATOM     10  O   UNL     1       5.313   5.324  19.719  0.00  0.00    +0.000 OA
ATOM     11  H   UNL     1       5.934   2.604  18.304  0.00  0.00    +0.000 HD
BRANCH   9  12
ATOM     12  O   UNL     1       6.767   4.764  18.044  0.00  0.00    +0.000 OA
BRANCH  12  13
ATOM     13  C   UNL     1       6.473   5.662  16.944  0.00  0.00    +0.000 C 
ATOM     14  C   UNL     1       4.978   6.000  16.895  0.00  0.00    +0.000 C 
ATOM     15  C   UNL     1       7.260   6.947  17.238  0.00  0.00    +0.000 C 
ATOM     16  C   UNL     1       6.990   5.091  15.613  0.00  0.00    +0.000 C 
ENDBRANCH  12  13
ENDBRANCH   9  12
ENDBRANCH   7   8
ENDBRANCH   6   7
ENDBRANCH   1   6
BRANCH   3  17
ATOM     17  C   UNL     1       1.069   5.958  20.423  0.00  0.00    +0.000 C 
BRANCH  17  18
ATOM     18  O   UNL     1       1.895   7.058  20.783  0.00  0.00    +0.000 OA
BRANCH  18  19
ATOM     19  C   UNL     1       1.305   8.296  20.796  0.00  0.00    +0.000 A 
ATOM     20  C   UNL     1       0.632   8.568  21.988  0.00  0.00    +0.000 A 
ATOM     21  C   UNL     1      -0.033   9.777  22.173  0.00  0.00    +0.000 A 
ATOM     22  C   UNL     1      -0.059  10.725  21.162  0.00  0.00    +0.000 A 
ATOM     23  C   UNL     1       0.568  10.450  19.946  0.00  0.00    +0.000 A 
ATOM     24  C   UNL     1       1.241   9.230  19.739  0.00  0.00    +0.000 A 
BRANCH  24  25
ATOM     25  C   UNL     1       1.747   9.044  18.417  0.00  0.00    +0.000 C 
ATOM     26  N   UNL     1       2.176   8.833  17.356  0.00  0.00    +0.000 NA
ENDBRANCH  24  25
ENDBRANCH  18  19
ENDBRANCH  17  18
ENDBRANCH   3  17
TORSDOF 9
ENDMDL
MODEL 3
REMARK VINA RESULT:      -6.5      1.070      1.486
REMARK  Name = 
REMARK  14 active torsions:
REMARK  status: ('A' for Active; 'I' for Inactive)
REMARK    1  A    between atoms: C_1  and  C_2
REMARK    2  A    between atoms: C_2  and  C_3
REMARK    3  A    between atoms: C_2  and  N_12
REMARK    4  A    between atoms: C_3  and  N_4
REMARK    5  A    between atoms: C_5  and  O_7
REMARK    6  A    between atoms: O_7  and  C_8
REMARK    7  A    between atoms: C_8  and  C_9
REMARK    8  A    between atoms: C_8  and  C_10
REMARK    9  A    between atoms: C_8  and  C_11
REMARK   10  A    between atoms: N_12  and  C_13
REMARK   11  A    between atoms: C_14  and  C_16
REMARK   12  A    between atoms: C_16  and  O_17
REMARK   13  A    between atoms: O_17  and  C_18
REMARK   14  A    between atoms: C_23  and  C_24
REMARK                            x       y       z     vdW  Elec       q    Type
REMARK                         _______ _______ _______ _____ _____    ______ ____
ROOT
ATOM      1  N   UNL     1       2.079   4.180  19.875  0.00  0.00    +0.000 N 
ATOM      2  C   UNL     1       1.000   3.667  20.709  0.00  0.00    +0.000 C 
ATOM      3  C   UNL     1       2.369   5.547  19.858  0.00  0.00    +0.000 C 
ATOM      4  O   UNL     1       3.284   6.051  19.201  0.00  0.00    +0.000 OA
ENDROOT
BRANCH   1   6
ATOM      5  C   UNL     1       2.736   3.292  17.626  0.00  0.00    +0.000 C 
ATOM      6  C   UNL     1       2.932   3.184  19.150  0.00  0.00    +0.000 C 
BRANCH   6   7
ATOM      7  C   UNL     1       4.450   3.218  19.525  0.00  0.00    +0.000 C 
BRANCH   7   8
ATOM      8  N   UNL     1       5.363   3.557  18.463  0.00  0.00    +0.000 N 
ATOM      9  C   UNL     1       6.311   4.491  18.676  0.00  0.00    +0.000 C 
ATOM     10  O   UNL     1       6.388   5.168  19.692  0.00  0.00    +0.000 OA
ATOM     11  H   UNL     1       5.524   2.911  17.706  0.00  0.00    +0.000 HD
BRANCH   9  12
ATOM     12  O   UNL     1       7.148   4.579  17.616  0.00  0.00    +0.000 OA
BRANCH  12  13
ATOM     13  C   UNL     1       6.876   5.609  16.631  0.00  0.00    +0.000 C 
ATOM     14  C   UNL     1       7.358   5.179  15.241  0.00  0.00    +0.000 C 
ATOM     15  C   UNL     1       5.348   5.759  16.601  0.00  0.00    +0.000 C 
ATOM     16  C   UNL     1       7.470   6.959  17.068  0.00  0.00    +0.000 C 
ENDBRANCH  12  13
ENDBRANCH   9  12
ENDBRANCH   7   8
ENDBRANCH   6   7
ENDBRANCH   1   6
BRANCH   3  17
ATOM     17  C   UNL     1       1.540   6.494  20.710  0.00  0.00    +0.000 C 
BRANCH  17  18
ATOM     18  O   UNL     1       2.071   7.808  20.592  0.00  0.00    +0.000 OA
BRANCH  18  19
ATOM     19  C   UNL     1       1.209   8.787  20.169  0.00  0.00    +0.000 A 
ATOM     20  C   UNL     1       1.257   9.000  18.791  0.00  0.00    +0.000 A 
ATOM     21  C   UNL     1       0.453   9.964  18.189  0.00  0.00    +0.000 A 
ATOM     22  C   UNL     1      -0.393  10.750  18.956  0.00  0.00    +0.000 A 
ATOM     23  C   UNL     1      -0.418  10.584  20.341  0.00  0.00    +0.000 A 
ATOM     24  C   UNL     1       0.392   9.617  20.968  0.00  0.00    +0.000 A 
BRANCH  24  25
ATOM     25  C   UNL     1       0.339   9.627  22.394  0.00  0.00    +0.000 C 
ATOM     26  N   UNL     1       0.248   9.676  23.553  0.00  0.00    +0.000 NA
ENDBRANCH  24  25
ENDBRANCH  18  19
ENDBRANCH  17  18
ENDBRANCH   3  17
TORSDOF 9
ENDMDL
MODEL 4
REMARK VINA RESULT:      -6.5      4.226      7.217
REMARK  Name = 
REMARK  14 active torsions:
REMARK  status: ('A' for Active; 'I' for Inactive)
REMARK    1  A    between atoms: C_1  and  C_2
REMARK    2  A    between atoms: C_2  and  C_3
REMARK    3  A    between atoms: C_2  and  N_12
REMARK    4  A    between atoms: C_3  and  N_4
REMARK    5  A    between atoms: C_5  and  O_7
REMARK    6  A    between atoms: O_7  and  C_8
REMARK    7  A    between atoms: C_8  and  C_9
REMARK    8  A    between atoms: C_8  and  C_10
REMARK    9  A    between atoms: C_8  and  C_11
REMARK   10  A    between atoms: N_12  and  C_13
REMARK   11  A    between atoms: C_14  and  C_16
REMARK   12  A    between atoms: C_16  and  O_17
REMARK   13  A    between atoms: O_17  and  C_18
REMARK   14  A    between atoms: C_23  and  C_24
REMARK                            x       y       z     vdW  Elec       q    Type
REMARK                         _______ _______ _______ _____ _____    ______ ____
ROOT
ATOM      1  N   UNL     1       7.506   6.701  18.070  0.00  0.00    +0.000 N 
ATOM      2  C   UNL     1       7.970   5.979  19.248  0.00  0.00    +0.000 C 
ATOM      3  C   UNL     1       7.871   8.036  17.870  0.00  0.00    +0.000 C 
ATOM      4  O   UNL     1       7.542   8.701  16.884  0.00  0.00    +0.000 OA
ENDROOT
BRANCH   1   6
ATOM      5  C   UNL     1       7.241   4.475  16.951  0.00  0.00    +0.000 C 
ATOM      6  C   UNL     1       6.741   5.929  17.038  0.00  0.00    +0.000 C 
BRANCH   6   7
ATOM      7  C   UNL     1       5.185   5.980  17.196  0.00  0.00    +0.000 C 
BRANCH   7   8
ATOM      8  N   UNL     1       4.553   4.778  17.676  0.00  0.00    +0.000 N 
ATOM      9  C   UNL     1       4.006   4.763  18.907  0.00  0.00    +0.000 C 
ATOM     10  O   UNL     1       4.103   5.680  19.711  0.00  0.00    +0.000 OA
ATOM     11  H   UNL     1       4.225   4.081  17.025  0.00  0.00    +0.000 HD
BRANCH   9  12
ATOM     12  O   UNL     1       3.350   3.600  19.130  0.00  0.00    +0.000 OA
BRANCH  12  13
ATOM     13  C   UNL     1       1.915   3.588  18.919  0.00  0.00    +0.000 C 
ATOM     14  C   UNL     1       1.401   2.157  18.722  0.00  0.00    +0.000 C 
ATOM     15  C   UNL     1       1.304   4.159  20.207  0.00  0.00    +0.000 C 
ATOM     16  C   UNL     1       1.521   4.520  17.761  0.00  0.00    +0.000 C 
ENDBRANCH  12  13
ENDBRANCH   9  12
ENDBRANCH   7   8
ENDBRANCH   6   7
ENDBRANCH   1   6
BRANCH   3  17
ATOM     17  C   UNL     1       8.750   8.728  18.897  0.00  0.00    +0.000 C 
BRANCH  17  18
ATOM     18  O   UNL     1       8.544  10.133  18.811  0.00  0.00    +0.000 OA
BRANCH  18  19
ATOM     19  C   UNL     1       9.601  10.934  19.162  0.00  0.00    +0.000 A 
ATOM     20  C   UNL     1      10.606  10.968  18.195  0.00  0.00    +0.000 A 
ATOM     21  C   UNL     1      11.757  11.726  18.388  0.00  0.00    +0.000 A 
ATOM     22  C   UNL     1      11.937  12.442  19.561  0.00  0.00    +0.000 A 
ATOM     23  C   UNL     1      10.964  12.381  20.559  0.00  0.00    +0.000 A 
ATOM     24  C   UNL     1       9.795  11.615  20.383  0.00  0.00    +0.000 A 
BRANCH  24  25
ATOM     25  C   UNL     1       8.937  11.564  21.523  0.00  0.00    +0.000 C 
ATOM     26  N   UNL     1       8.285  11.494  22.484  0.00  0.00    +0.000 NA
ENDBRANCH  24  25
ENDBRANCH  18  19
ENDBRANCH  17  18
ENDBRANCH   3  17
TORSDOF 9
ENDMDL
MODEL 5
REMARK VINA RESULT:      -6.5      0.931      1.166
REMARK  Name = 
REMARK  14 active torsions:
REMARK  status: ('A' for Active; 'I' for Inactive)
REMARK    1  A    between atoms: C_1  and  C_2
REMARK    2  A    between atoms: C_2  and  C_3
REMARK    3  A    between atoms: C_2  and  N_12
REMARK    4  A    between atoms: C_3  and  N_4
REMARK    5  A    between atoms: C_5  and  O_7
REMARK    6  A    between atoms: O_7  and  C_8
REMARK    7  A    between atoms: C_8  and  C_9
REMARK    8  A    between atoms: C_8  and  C_10
REMARK    9  A    between atoms: C_8  and  C_11
REMARK   10  A    between atoms: N_12  and  C_13
REMARK   11  A    between atoms: C_14  and  C_16
REMARK   12  A    between atoms: C_16  and  O_17
REMARK   13  A    between atoms: O_17  and  C_18
REMARK   14  A    between atoms: C_23  and  C_24
REMARK                            x       y       z     vdW  Elec       q    Type
REMARK                         _______ _______ _______ _____ _____    ______ ____
ROOT
ATOM      1  N   UNL     1       2.213   3.607  20.403  0.00  0.00    +0.000 N 
ATOM      2  C   UNL     1       1.940   3.409  21.821  0.00  0.00    +0.000 C 
ATOM      3  C   UNL     1       1.942   4.838  19.798  0.00  0.00    +0.000 C 
ATOM      4  O   UNL     1       2.173   5.089  18.612  0.00  0.00    +0.000 OA
ENDROOT
BRANCH   1   6
ATOM      5  C   UNL     1       2.300   2.311  18.260  0.00  0.00    +0.000 C 
ATOM      6  C   UNL     1       2.902   2.500  19.665  0.00  0.00    +0.000 C 
BRANCH   6   7
ATOM      7  C   UNL     1       4.460   2.623  19.597  0.00  0.00    +0.000 C 
BRANCH   7   8
ATOM      8  N   UNL     1       5.000   3.243  18.414  0.00  0.00    +0.000 N 
ATOM      9  C   UNL     1       5.836   4.292  18.537  0.00  0.00    +0.000 C 
ATOM     10  O   UNL     1       6.093   4.841  19.601  0.00  0.00    +0.000 OA
ATOM     11  H   UNL     1       5.037   2.734  17.544  0.00  0.00    +0.000 HD
BRANCH   9  12
ATOM     12  O   UNL     1       6.338   4.654  17.334  0.00  0.00    +0.000 OA
BRANCH  12  13
ATOM     13  C   UNL     1       6.096   6.013  16.888  0.00  0.00    +0.000 C 
ATOM     14  C   UNL     1       7.322   6.899  17.136  0.00  0.00    +0.000 C 
ATOM     15  C   UNL     1       5.855   5.914  15.374  0.00  0.00    +0.000 C 
ATOM     16  C   UNL     1       4.819   6.583  17.528  0.00  0.00    +0.000 C 
ENDBRANCH  12  13
ENDBRANCH   9  12
ENDBRANCH   7   8
ENDBRANCH   6   7
ENDBRANCH   1   6
BRANCH   3  17
ATOM     17  C   UNL     1       1.351   5.962  20.631  0.00  0.00    +0.000 C 
BRANCH  17  18
ATOM     18  O   UNL     1       2.193   7.105  20.530  0.00  0.00    +0.000 OA
BRANCH  18  19
ATOM     19  C   UNL     1       1.631   8.241  20.005  0.00  0.00    +0.000 A 
ATOM     20  C   UNL     1       1.834   8.366  18.630  0.00  0.00    +0.000 A 
ATOM     21  C   UNL     1       1.339   9.465  17.932  0.00  0.00    +0.000 A 
ATOM     22  C   UNL     1       0.656  10.469  18.599  0.00  0.00    +0.000 A 
ATOM     23  C   UNL     1       0.486  10.384  19.982  0.00  0.00    +0.000 A 
ATOM     24  C   UNL     1       0.984   9.282  20.705  0.00  0.00    +0.000 A 
BRANCH  24  25
ATOM     25  C   UNL     1       0.827   9.377  22.120  0.00  0.00    +0.000 C 
ATOM     26  N   UNL     1       0.745   9.496  23.275  0.00  0.00    +0.000 NA
ENDBRANCH  24  25
ENDBRANCH  18  19
ENDBRANCH  17  18
ENDBRANCH   3  17
TORSDOF 9
ENDMDL
MODEL 6
REMARK VINA RESULT:      -6.4      1.895      4.014
REMARK  Name = 
REMARK  14 active torsions:
REMARK  status: ('A' for Active; 'I' for Inactive)
REMARK    1  A    between atoms: C_1  and  C_2
REMARK    2  A    between atoms: C_2  and  C_3
REMARK    3  A    between atoms: C_2  and  N_12
REMARK    4  A    between atoms: C_3  and  N_4
REMARK    5  A    between atoms: C_5  and  O_7
REMARK    6  A    between atoms: O_7  and  C_8
REMARK    7  A    between atoms: C_8  and  C_9
REMARK    8  A    between atoms: C_8  and  C_10
REMARK    9  A    between atoms: C_8  and  C_11
REMARK   10  A    between atoms: N_12  and  C_13
REMARK   11  A    between atoms: C_14  and  C_16
REMARK   12  A    between atoms: C_16  and  O_17
REMARK   13  A    between atoms: O_17  and  C_18
REMARK   14  A    between atoms: C_23  and  C_24
REMARK                            x       y       z     vdW  Elec       q    Type
REMARK                         _______ _______ _______ _____ _____    ______ ____
ROOT
ATOM      1  N   UNL     1       4.400   6.191  17.318  0.00  0.00    +0.000 N 
ATOM      2  C   UNL     1       5.441   7.182  17.069  0.00  0.00    +0.000 C 
ATOM      3  C   UNL     1       3.131   6.594  17.744  0.00  0.00    +0.000 C 
ATOM      4  O   UNL     1       2.193   5.818  17.946  0.00  0.00    +0.000 OA
ENDROOT
BRANCH   1   6
ATOM      5  C   UNL     1       5.481   4.659  15.656  0.00  0.00    +0.000 C 
ATOM      6  C   UNL     1       4.704   4.763  16.982  0.00  0.00    +0.000 C 
BRANCH   6   7
ATOM      7  C   UNL     1       5.418   3.957  18.117  0.00  0.00    +0.000 C 
BRANCH   7   8
ATOM      8  N   UNL     1       4.627   3.660  19.284  0.00  0.00    +0.000 N 
ATOM      9  C   UNL     1       3.717   2.668  19.233  0.00  0.00    +0.000 C 
ATOM     10  O   UNL     1       3.427   2.057  18.213  0.00  0.00    +0.000 OA
ATOM     11  H   UNL     1       4.949   3.935  20.199  0.00  0.00    +0.000 HD
BRANCH   9  12
ATOM     12  O   UNL     1       3.169   2.453  20.452  0.00  0.00    +0.000 OA
BRANCH  12  13
ATOM     13  C   UNL     1       1.920   3.126  20.753  0.00  0.00    +0.000 C 
ATOM     14  C   UNL     1       0.901   2.922  19.626  0.00  0.00    +0.000 C 
ATOM     15  C   UNL     1       1.388   2.457  22.029  0.00  0.00    +0.000 C 
ATOM     16  C   UNL     1       2.158   4.612  21.069  0.00  0.00    +0.000 C 
ENDBRANCH  12  13
ENDBRANCH   9  12
ENDBRANCH   7   8
ENDBRANCH   6   7
ENDBRANCH   1   6
BRANCH   3  17
ATOM     17  C   UNL     1       2.850   8.072  17.952  0.00  0.00    +0.000 C 
BRANCH  17  18
ATOM     18  O   UNL     1       2.261   8.255  19.234  0.00  0.00    +0.000 OA
BRANCH  18  19
ATOM     19  C   UNL     1       1.154   9.062  19.295  0.00  0.00    +0.000 A 
ATOM     20  C   UNL     1       0.651   9.397  18.037  0.00  0.00    +0.000 A 
ATOM     21  C   UNL     1      -0.467  10.216  17.910  0.00  0.00    +0.000 A 
ATOM     22  C   UNL     1      -1.087  10.737  19.036  0.00  0.00    +0.000 A 
ATOM     23  C   UNL     1      -0.568  10.452  20.299  0.00  0.00    +0.000 A 
ATOM     24  C   UNL     1       0.565   9.628  20.447  0.00  0.00    +0.000 A 
BRANCH  24  25
ATOM     25  C   UNL     1       1.044   9.505  21.786  0.00  0.00    +0.000 C 
ATOM     26  N   UNL     1       1.411   9.462  22.889  0.00  0.00    +0.000 NA
ENDBRANCH  24  25
ENDBRANCH  18  19
ENDBRANCH  17  18
ENDBRANCH   3  17
TORSDOF 9
ENDMDL
MODEL 7
REMARK VINA RESULT:      -6.4      3.142      5.845
REMARK  Name = 
REMARK  14 active torsions:
REMARK  status: ('A' for Active; 'I' for Inactive)
REMARK    1  A    between atoms: C_1  and  C_2
REMARK    2  A    between atoms: C_2  and  C_3
REMARK    3  A    between atoms: C_2  and  N_12
REMARK    4  A    between atoms: C_3  and  N_4
REMARK    5  A    between atoms: C_5  and  O_7
REMARK    6  A    between atoms: O_7  and  C_8
REMARK    7  A    between atoms: C_8  and  C_9
REMARK    8  A    between atoms: C_8  and  C_10
REMARK    9  A    between atoms: C_8  and  C_11
REMARK   10  A    between atoms: N_12  and  C_13
REMARK   11  A    between atoms: C_14  and  C_16
REMARK   12  A    between atoms: C_16  and  O_17
REMARK   13  A    between atoms: O_17  and  C_18
REMARK   14  A    between atoms: C_23  and  C_24
REMARK                            x       y       z     vdW  Elec       q    Type
REMARK                         _______ _______ _______ _____ _____    ______ ____
ROOT
ATOM      1  N   UNL     1       5.463   6.039  18.009  0.00  0.00    +0.000 N 
ATOM      2  C   UNL     1       5.710   5.371  19.281  0.00  0.00    +0.000 C 
ATOM      3  C   UNL     1       4.228   6.643  17.758  0.00  0.00    +0.000 C 
ATOM      4  O   UNL     1       3.956   7.251  16.719  0.00  0.00    +0.000 OA
ENDROOT
BRANCH   1   6
ATOM      5  C   UNL     1       7.631   7.203  17.538  0.00  0.00    +0.000 C 
ATOM      6  C   UNL     1       6.609   6.158  17.051  0.00  0.00    +0.000 C 
BRANCH   6   7
ATOM      7  C   UNL     1       7.314   4.807  16.695  0.00  0.00    +0.000 C 
BRANCH   7   8
ATOM      8  N   UNL     1       6.609   3.941  15.784  0.00  0.00    +0.000 N 
ATOM      9  C   UNL     1       6.561   4.253  14.475  0.00  0.00    +0.000 C 
ATOM     10  O   UNL     1       6.987   5.300  14.005  0.00  0.00    +0.000 OA
ATOM     11  H   UNL     1       6.441   2.977  16.027  0.00  0.00    +0.000 HD
BRANCH   9  12
ATOM     12  O   UNL     1       5.972   3.264  13.763  0.00  0.00    +0.000 OA
BRANCH  12  13
ATOM     13  C   UNL     1       6.020   3.358  12.317  0.00  0.00    +0.000 C 
ATOM     14  C   UNL     1       7.150   4.292  11.865  0.00  0.00    +0.000 C 
ATOM     15  C   UNL     1       6.324   1.938  11.820  0.00  0.00    +0.000 C 
ATOM     16  C   UNL     1       4.653   3.770  11.747  0.00  0.00    +0.000 C 
ENDBRANCH  12  13
ENDBRANCH   9  12
ENDBRANCH   7   8
ENDBRANCH   6   7
ENDBRANCH   1   6
BRANCH   3  17
ATOM     17  C   UNL     1       3.144   6.590  18.820  0.00  0.00    +0.000 C 
BRANCH  17  18
ATOM     18  O   UNL     1       2.151   5.653  18.422  0.00  0.00    +0.000 OA
BRANCH  18  19
ATOM     19  C   UNL     1       2.076   4.488  19.142  0.00  0.00    +0.000 A 
ATOM     20  C   UNL     1       1.411   4.640  20.359  0.00  0.00    +0.000 A 
ATOM     21  C   UNL     1       1.249   3.561  21.224  0.00  0.00    +0.000 A 
ATOM     22  C   UNL     1       1.771   2.318  20.901  0.00  0.00    +0.000 A 
ATOM     23  C   UNL     1       2.481   2.160  19.710  0.00  0.00    +0.000 A 
ATOM     24  C   UNL     1       2.658   3.242  18.825  0.00  0.00    +0.000 A 
BRANCH  24  25
ATOM     25  C   UNL     1       3.489   2.961  17.698  0.00  0.00    +0.000 C 
ATOM     26  N   UNL     1       4.123   2.762  16.743  0.00  0.00    +0.000 NA
ENDBRANCH  24  25
ENDBRANCH  18  19
ENDBRANCH  17  18
ENDBRANCH   3  17
TORSDOF 9
ENDMDL
MODEL 8
REMARK VINA RESULT:      -6.4      3.598      8.157
REMARK  Name = 
REMARK  14 active torsions:
REMARK  status: ('A' for Active; 'I' for Inactive)
REMARK    1  A    between atoms: C_1  and  C_2
REMARK    2  A    between atoms: C_2  and  C_3
REMARK    3  A    between atoms: C_2  and  N_12
REMARK    4  A    between atoms: C_3  and  N_4
REMARK    5  A    between atoms: C_5  and  O_7
REMARK    6  A    between atoms: O_7  and  C_8
REMARK    7  A    between atoms: C_8  and  C_9
REMARK    8  A    between atoms: C_8  and  C_10
REMARK    9  A    between atoms: C_8  and  C_11
REMARK   10  A    between atoms: N_12  and  C_13
REMARK   11  A    between atoms: C_14  and  C_16
REMARK   12  A    between atoms: C_16  and  O_17
REMARK   13  A    between atoms: O_17  and  C_18
REMARK   14  A    between atoms: C_23  and  C_24
REMARK                            x       y       z     vdW  Elec       q    Type
REMARK                         _______ _______ _______ _____ _____    ______ ____
ROOT
ATOM      1  N   UNL     1       1.466   9.225  19.417  0.00  0.00    +0.000 N 
ATOM      2  C   UNL     1       1.921   9.265  18.032  0.00  0.00    +0.000 C 
ATOM      3  C   UNL     1       1.682   8.086  20.198  0.00  0.00    +0.000 C 
ATOM      4  O   UNL     1       1.353   7.991  21.383  0.00  0.00    +0.000 OA
ENDROOT
BRANCH   1   6
ATOM      5  C   UNL     1       1.510  11.730  19.344  0.00  0.00    +0.000 C 
ATOM      6  C   UNL     1       0.886  10.480  19.994  0.00  0.00    +0.000 C 
BRANCH   6   7
ATOM      7  C   UNL     1      -0.677  10.555  19.970  0.00  0.00    +0.000 C 
BRANCH   7   8
ATOM      8  N   UNL     1      -1.289  10.705  18.674  0.00  0.00    +0.000 N 
ATOM      9  C   UNL     1      -2.230  11.651  18.491  0.00  0.00    +0.000 C 
ATOM     10  O   UNL     1      -2.695  12.338  19.391  0.00  0.00    +0.000 OA
ATOM     11  H   UNL     1      -0.822  10.364  17.848  0.00  0.00    +0.000 HD
BRANCH   9  12
ATOM     12  O   UNL     1      -2.592  11.727  17.189  0.00  0.00    +0.000 OA
BRANCH  12  13
ATOM     13  C   UNL     1      -3.727  10.931  16.762  0.00  0.00    +0.000 C 
ATOM     14  C   UNL     1      -5.037  11.709  16.930  0.00  0.00    +0.000 C 
ATOM     15  C   UNL     1      -3.501  10.660  15.267  0.00  0.00    +0.000 C 
ATOM     16  C   UNL     1      -3.751   9.574  17.484  0.00  0.00    +0.000 C 
ENDBRANCH  12  13
ENDBRANCH   9  12
ENDBRANCH   7   8
ENDBRANCH   6   7
ENDBRANCH   1   6
BRANCH   3  17
ATOM     17  C   UNL     1       2.385   6.887  19.586  0.00  0.00    +0.000 C 
BRANCH  17  18
ATOM     18  O   UNL     1       1.856   5.698  20.159  0.00  0.00    +0.000 OA
BRANCH  18  19
ATOM     19  C   UNL     1       2.036   4.537  19.451  0.00  0.00    +0.000 A 
ATOM     20  C   UNL     1       2.223   4.754  18.085  0.00  0.00    +0.000 A 
ATOM     21  C   UNL     1       2.413   3.687  17.212  0.00  0.00    +0.000 A 
ATOM     22  C   UNL     1       2.393   2.383  17.683  0.00  0.00    +0.000 A 
ATOM     23  C   UNL     1       2.159   2.146  19.038  0.00  0.00    +0.000 A 
ATOM     24  C   UNL     1       1.959   3.213  19.935  0.00  0.00    +0.000 A 
BRANCH  24  25
ATOM     25  C   UNL     1       1.631   2.820  21.267  0.00  0.00    +0.000 C 
ATOM     26  N   UNL     1       1.421   2.516  22.371  0.00  0.00    +0.000 NA
ENDBRANCH  24  25
ENDBRANCH  18  19
ENDBRANCH  17  18
ENDBRANCH   3  17
TORSDOF 9
ENDMDL
MODEL 9
REMARK VINA RESULT:      -6.3      4.605      7.488
REMARK  Name = 
REMARK  14 active torsions:
REMARK  status: ('A' for Active; 'I' for Inactive)
REMARK    1  A    between atoms: C_1  and  C_2
REMARK    2  A    between atoms: C_2  and  C_3
REMARK    3  A    between atoms: C_2  and  N_12
REMARK    4  A    between atoms: C_3  and  N_4
REMARK    5  A    between atoms: C_5  and  O_7
REMARK    6  A    between atoms: O_7  and  C_8
REMARK    7  A    between atoms: C_8  and  C_9
REMARK    8  A    between atoms: C_8  and  C_10
REMARK    9  A    between atoms: C_8  and  C_11
REMARK   10  A    between atoms: N_12  and  C_13
REMARK   11  A    between atoms: C_14  and  C_16
REMARK   12  A    between atoms: C_16  and  O_17
REMARK   13  A    between atoms: O_17  and  C_18
REMARK   14  A    between atoms: C_23  and  C_24
REMARK                            x       y       z     vdW  Elec       q    Type
REMARK                         _______ _______ _______ _____ _____    ______ ____
ROOT
ATOM      1  N   UNL     1       7.564   6.792  18.066  0.00  0.00    +0.000 N 
ATOM      2  C   UNL     1       8.077   6.080  19.230  0.00  0.00    +0.000 C 
ATOM      3  C   UNL     1       7.878   8.140  17.868  0.00  0.00    +0.000 C 
ATOM      4  O   UNL     1       7.506   8.799  16.894  0.00  0.00    +0.000 OA
ENDROOT
BRANCH   1   6
ATOM      5  C   UNL     1       7.302   4.542  16.996  0.00  0.00    +0.000 C 
ATOM      6  C   UNL     1       6.808   6.000  17.043  0.00  0.00    +0.000 C 
BRANCH   6   7
ATOM      7  C   UNL     1       5.251   6.062  17.181  0.00  0.00    +0.000 C 
BRANCH   7   8
ATOM      8  N   UNL     1       4.599   4.848  17.603  0.00  0.00    +0.000 N 
ATOM      9  C   UNL     1       4.073   4.774  18.841  0.00  0.00    +0.000 C 
ATOM     10  O   UNL     1       4.206   5.641  19.694  0.00  0.00    +0.000 OA
ATOM     11  H   UNL     1       4.244   4.197  16.920  0.00  0.00    +0.000 HD
BRANCH   9  12
ATOM     12  O   UNL     1       3.394   3.615  19.009  0.00  0.00    +0.000 OA
BRANCH  12  13
ATOM     13  C   UNL     1       1.946   3.671  18.951  0.00  0.00    +0.000 C 
ATOM     14  C   UNL     1       1.476   4.446  17.715  0.00  0.00    +0.000 C 
ATOM     15  C   UNL     1       1.481   2.213  18.828  0.00  0.00    +0.000 C 
ATOM     16  C   UNL     1       1.365   4.238  20.257  0.00  0.00    +0.000 C 
ENDBRANCH  12  13
ENDBRANCH   9  12
ENDBRANCH   7   8
ENDBRANCH   6   7
ENDBRANCH   1   6
BRANCH   3  17
ATOM     17  C   UNL     1       8.751   8.857  18.884  0.00  0.00    +0.000 C 
BRANCH  17  18
ATOM     18  O   UNL     1       9.190  10.091  18.328  0.00  0.00    +0.000 OA
BRANCH  18  19
ATOM     19  C   UNL     1       9.580  11.063  19.214  0.00  0.00    +0.000 A 
ATOM     20  C   UNL     1       9.118  10.838  20.511  0.00  0.00    +0.000 A 
ATOM     21  C   UNL     1       9.412  11.729  21.539  0.00  0.00    +0.000 A 
ATOM     22  C   UNL     1      10.151  12.874  21.284  0.00  0.00    +0.000 A 
ATOM     23  C   UNL     1      10.580  13.139  19.983  0.00  0.00    +0.000 A 
ATOM     24  C   UNL     1      10.287  12.251  18.930  0.00  0.00    +0.000 A 
BRANCH  24  25
ATOM     25  C   UNL     1      10.700  12.699  17.639  0.00  0.00    +0.000 C 
ATOM     26  N   UNL     1      11.096  13.047  16.601  0.00  0.00    +0.000 NA
ENDBRANCH  24  25
ENDBRANCH  18  19
ENDBRANCH  17  18
ENDBRANCH   3  17
TORSDOF 9
ENDMDL
