MODEL 1
REMARK VINA RESULT:      -7.8      0.000      0.000
REMARK  Name = 
REMARK  5 active torsions:
REMARK  status: ('A' for Active; 'I' for Inactive)
REMARK    1  A    between atoms: C_1  and  C_2
REMARK    2  A    between atoms: C_4  and  C_5
REMARK    3  A    between atoms: C_13  and  C_14
REMARK    4  A    between atoms: C_14  and  C_15
REMARK    5  A    between atoms: C_17  and  C_18
REMARK                            x       y       z     vdW  Elec       q    Type
REMARK                         _______ _______ _______ _____ _____    ______ ____
ROOT
ATOM      1  C   UNL     1       0.920   8.255  21.806  0.00  0.00    +0.000 C 
ATOM      2  C   UNL     1       1.423   8.364  20.412  0.00  0.00    +0.000 A 
ATOM      3  N   UNL     1       2.229   7.337  19.928  0.00  0.00    +0.000 NA
ATOM      4  C   UNL     1       2.533   7.519  18.653  0.00  0.00    +0.000 A 
ATOM      5  S   UNL     1       1.895   8.951  17.980  0.00  0.00    +0.000 S 
ATOM      6  C   UNL     1       1.166   9.374  19.505  0.00  0.00    +0.000 A 
ENDROOT
BRANCH   4   7
ATOM      7  C   UNL     1       3.392   6.621  17.859  0.00  0.00    +0.000 A 
ATOM      8  C   UNL     1       4.449   7.070  17.052  0.00  0.00    +0.000 A 
ATOM      9  C   UNL     1       5.233   6.165  16.325  0.00  0.00    +0.000 A 
ATOM     10  C   UNL     1       4.964   4.801  16.398  0.00  0.00    +0.000 A 
ATOM     11 CL   UNL     1       5.928   3.689  15.507  0.00  0.00    +0.000 Cl
ATOM     12  C   UNL     1       3.920   4.331  17.183  0.00  0.00    +0.000 A 
ATOM     13  C   UNL     1       3.136   5.239  17.909  0.00  0.00    +0.000 A 
ENDBRANCH   4   7
BRANCH   6  14
ATOM     14  C   UNL     1       0.339  10.637  19.564  0.00  0.00    +0.000 C 
ATOM     15  C   UNL     1       0.662  11.384  20.870  0.00  0.00    +0.000 C 
ATOM     16  C   UNL     1      -1.109  10.283  19.282  0.00  0.00    +0.000 C 
ATOM     17  C   UNL     1      -1.592  11.561  18.710  0.00  0.00    +0.000 C 
ATOM     18  N   UNL     1      -0.630  12.300  18.249  0.00  0.00    +0.000 NA
ATOM     19  O   UNL     1       0.595  11.554  18.473  0.00  0.00    +0.000 OA
BRANCH  17  20
ATOM     20  C   UNL     1      -3.054  11.822  18.603  0.00  0.00    +0.000 A 
ATOM     21  C   UNL     1      -3.743  12.391  19.686  0.00  0.00    +0.000 A 
ATOM     22  C   UNL     1      -5.114  12.544  19.610  0.00  0.00    +0.000 A 
ATOM     23  N   UNL     1      -5.831  12.180  18.527  0.00  0.00    +0.000 NA
ATOM     24  C   UNL     1      -5.157  11.641  17.500  0.00  0.00    +0.000 A 
ATOM     25  C   UNL     1      -3.784  11.445  17.483  0.00  0.00    +0.000 A 
ENDBRANCH  17  20
ENDBRANCH   6  14
TORSDOF 3
ENDMDL
MODEL 2
REMARK VINA RESULT:      -7.8      0.130      1.352
REMARK  Name = 
REMARK  5 active torsions:
REMARK  status: ('A' for Active; 'I' for Inactive)
REMARK    1  A    between atoms: C_1  and  C_2
REMARK    2  A    between atoms: C_4  and  C_5
REMARK    3  A    between atoms: C_13  and  C_14
REMARK    4  A    between atoms: C_14  and  C_15
REMARK    5  A    between atoms: C_17  and  C_18
REMARK                            x       y       z     vdW  Elec       q    Type
REMARK                         _______ _______ _______ _____ _____    ______ ____
ROOT
ATOM      1  C   UNL     1       0.953   8.408  21.860  0.00  0.00    +0.000 C 
ATOM      2  C   UNL     1       1.410   8.440  20.447  0.00  0.00    +0.000 A 
ATOM      3  N   UNL     1       2.197   7.385  19.993  0.00  0.00    +0.000 NA
ATOM      4  C   UNL     1       2.460   7.497  18.701  0.00  0.00    +0.000 A 
ATOM      5  S   UNL     1       1.802   8.893  17.972  0.00  0.00    +0.000 S 
ATOM      6  C   UNL     1       1.125   9.400  19.495  0.00  0.00    +0.000 A 
ENDROOT
BRANCH   4   7
ATOM      7  C   UNL     1       3.290   6.555  17.928  0.00  0.00    +0.000 A 
ATOM      8  C   UNL     1       3.072   5.169  17.901  0.00  0.00    +0.000 A 
ATOM      9  C   UNL     1       3.894   4.327  17.140  0.00  0.00    +0.000 A 
ATOM     10  C   UNL     1       4.944   4.865  16.402  0.00  0.00    +0.000 A 
ATOM     11 CL   UNL     1       5.952   3.832  15.467  0.00  0.00    +0.000 Cl
ATOM     12  C   UNL     1       5.186   6.232  16.417  0.00  0.00    +0.000 A 
ATOM     13  C   UNL     1       4.362   7.072  17.179  0.00  0.00    +0.000 A 
ENDBRANCH   4   7
BRANCH   6  14
ATOM     14  C   UNL     1       0.302  10.667  19.513  0.00  0.00    +0.000 C 
ATOM     15  C   UNL     1       0.701  11.504  20.741  0.00  0.00    +0.000 C 
ATOM     16  C   UNL     1      -1.160  10.299  19.341  0.00  0.00    +0.000 C 
ATOM     17  C   UNL     1      -1.676  11.535  18.710  0.00  0.00    +0.000 C 
ATOM     18  N   UNL     1      -0.743  12.236  18.142  0.00  0.00    +0.000 NA
ATOM     19  O   UNL     1       0.493  11.503  18.346  0.00  0.00    +0.000 OA
BRANCH  17  20
ATOM     20  C   UNL     1      -3.142  11.794  18.671  0.00  0.00    +0.000 A 
ATOM     21  C   UNL     1      -3.877  11.477  17.518  0.00  0.00    +0.000 A 
ATOM     22  C   UNL     1      -5.218  11.806  17.458  0.00  0.00    +0.000 A 
ATOM     23  N   UNL     1      -5.866  12.413  18.474  0.00  0.00    +0.000 NA
ATOM     24  C   UNL     1      -5.150  12.706  19.570  0.00  0.00    +0.000 A 
ATOM     25  C   UNL     1      -3.802  12.418  19.721  0.00  0.00    +0.000 A 
ENDBRANCH  17  20
ENDBRANCH   6  14
TORSDOF 3
ENDMDL
MODEL 3
REMARK VINA RESULT:      -7.7      2.652      4.111
REMARK  Name = 
REMARK  5 active torsions:
REMARK  status: ('A' for Active; 'I' for Inactive)
REMARK    1  A    between atoms: C_1  and  C_2
REMARK    2  A    between atoms: C_4  and  C_5
REMARK    3  A    between atoms: C_13  and  C_14
REMARK    4  A    between atoms: C_14  and  C_15
REMARK    5  A    between atoms: C_17  and  C_18
REMARK                            x       y       z     vdW  Elec       q    Type
REMARK                         _______ _______ _______ _____ _____    ______ ____
ROOT
ATOM      1  C   UNL     1       0.856   8.179  21.560  0.00  0.00    +0.000 C 
ATOM      2  C   UNL     1       1.493   8.268  20.221  0.00  0.00    +0.000 A 
ATOM      3  N   UNL     1       2.199   7.160  19.760  0.00  0.00    +0.000 NA
ATOM      4  C   UNL     1       2.637   7.345  18.525  0.00  0.00    +0.000 A 
ATOM      5  S   UNL     1       2.252   8.871  17.866  0.00  0.00    +0.000 S 
ATOM      6  C   UNL     1       1.450   9.333  19.342  0.00  0.00    +0.000 A 
ENDROOT
BRANCH   4   7
ATOM      7  C   UNL     1       3.441   6.369  17.766  0.00  0.00    +0.000 A 
ATOM      8  C   UNL     1       3.202   4.986  17.780  0.00  0.00    +0.000 A 
ATOM      9  C   UNL     1       3.999   4.112  17.030  0.00  0.00    +0.000 A 
ATOM     10  C   UNL     1       5.044   4.614  16.260  0.00  0.00    +0.000 A 
ATOM     11 CL   UNL     1       6.022   3.540  15.338  0.00  0.00    +0.000 Cl
ATOM     12  C   UNL     1       5.307   5.976  16.233  0.00  0.00    +0.000 A 
ATOM     13  C   UNL     1       4.508   6.850  16.986  0.00  0.00    +0.000 A 
ENDBRANCH   4   7
BRANCH   6  14
ATOM     14  C   UNL     1       0.790  10.692  19.389  0.00  0.00    +0.000 C 
ATOM     15  C   UNL     1      -0.665  10.557  18.908  0.00  0.00    +0.000 C 
ATOM     16  C   UNL     1       1.687  11.693  18.685  0.00  0.00    +0.000 C 
ATOM     17  C   UNL     1       1.303  12.939  19.387  0.00  0.00    +0.000 C 
ATOM     18  N   UNL     1       0.761  12.717  20.545  0.00  0.00    +0.000 NA
ATOM     19  O   UNL     1       0.748  11.275  20.715  0.00  0.00    +0.000 OA
BRANCH  17  20
ATOM     20  C   UNL     1       1.660  14.261  18.802  0.00  0.00    +0.000 A 
ATOM     21  C   UNL     1       2.891  14.426  18.148  0.00  0.00    +0.000 A 
ATOM     22  C   UNL     1       3.251  15.680  17.691  0.00  0.00    +0.000 A 
ATOM     23  N   UNL     1       2.461  16.764  17.833  0.00  0.00    +0.000 NA
ATOM     24  C   UNL     1       1.287  16.588  18.458  0.00  0.00    +0.000 A 
ATOM     25  C   UNL     1       0.840  15.372  18.952  0.00  0.00    +0.000 A 
ENDBRANCH  17  20
ENDBRANCH   6  14
TORSDOF 3
ENDMDL
MODEL 4
REMARK VINA RESULT:      -7.7      2.992      4.310
REMARK  Name = 
REMARK  5 active torsions:
REMARK  status: ('A' for Active; 'I' for Inactive)
REMARK    1  A    between atoms: C_1  and  C_2
REMARK    2  A    between atoms: C_4  and  C_5
REMARK    3  A    between atoms: C_13  and  C_14
REMARK    4  A    between atoms: C_14  and  C_15
REMARK    5  A    between atoms: C_17  and  C_18
REMARK                            x       y       z     vdW  Elec       q    Type
REMARK                         _______ _______ _______ _____ _____    ______ ____
ROOT
ATOM      1  C   UNL     1       0.336   8.991  21.634  0.00  0.00    +0.000 C 
ATOM      2  C   UNL     1       1.075   8.976  20.345  0.00  0.00    +0.000 A 
ATOM      3  N   UNL     1       1.709   7.795  19.972  0.00  0.00    +0.000 NA
ATOM      4  C   UNL     1       2.252   7.895  18.770  0.00  0.00    +0.000 A 
ATOM      5  S   UNL     1       2.058   9.425  18.040  0.00  0.00    +0.000 S 
ATOM      6  C   UNL     1       1.195  10.009  19.436  0.00  0.00    +0.000 A 
ENDROOT
BRANCH   4   7
ATOM      7  C   UNL     1       3.017   6.826  18.102  0.00  0.00    +0.000 A 
ATOM      8  C   UNL     1       2.683   5.465  18.183  0.00  0.00    +0.000 A 
ATOM      9  C   UNL     1       3.448   4.497  17.519  0.00  0.00    +0.000 A 
ATOM     10  C   UNL     1       4.556   4.882  16.770  0.00  0.00    +0.000 A 
ATOM     11 CL   UNL     1       5.494   3.694  15.954  0.00  0.00    +0.000 Cl
ATOM     12  C   UNL     1       4.913   6.221  16.680  0.00  0.00    +0.000 A 
ATOM     13  C   UNL     1       4.146   7.188  17.346  0.00  0.00    +0.000 A 
ENDBRANCH   4   7
BRANCH   6  14
ATOM     14  C   UNL     1       0.660  11.422  19.393  0.00  0.00    +0.000 C 
ATOM     15  C   UNL     1      -0.779  11.395  18.849  0.00  0.00    +0.000 C 
ATOM     16  C   UNL     1       1.675  12.305  18.691  0.00  0.00    +0.000 C 
ATOM     17  C   UNL     1       1.376  13.612  19.319  0.00  0.00    +0.000 C 
ATOM     18  N   UNL     1       0.765  13.493  20.459  0.00  0.00    +0.000 NA
ATOM     19  O   UNL     1       0.614  12.068  20.689  0.00  0.00    +0.000 OA
BRANCH  17  20
ATOM     20  C   UNL     1       1.877  14.868  18.696  0.00  0.00    +0.000 A 
ATOM     21  C   UNL     1       1.118  16.045  18.789  0.00  0.00    +0.000 A 
ATOM     22  C   UNL     1       1.547  17.181  18.129  0.00  0.00    +0.000 A 
ATOM     23  N   UNL     1       2.683  17.217  17.402  0.00  0.00    +0.000 NA
ATOM     24  C   UNL     1       3.399  16.085  17.327  0.00  0.00    +0.000 A 
ATOM     25  C   UNL     1       3.048  14.897  17.951  0.00  0.00    +0.000 A 
ENDBRANCH  17  20
ENDBRANCH   6  14
TORSDOF 3
ENDMDL
MODEL 5
REMARK VINA RESULT:      -7.6      2.501      3.720
REMARK  Name = 
REMARK  5 active torsions:
REMARK  status: ('A' for Active; 'I' for Inactive)
REMARK    1  A    between atoms: C_1  and  C_2
REMARK    2  A    between atoms: C_4  and  C_5
REMARK    3  A    between atoms: C_13  and  C_14
REMARK    4  A    between atoms: C_14  and  C_15
REMARK    5  A    between atoms: C_17  and  C_18
REMARK                            x       y       z     vdW  Elec       q    Type
REMARK                         _______ _______ _______ _____ _____    ______ ____
ROOT
ATOM      1  C   UNL     1       0.847   8.199  21.617  0.00  0.00    +0.000 C 
ATOM      2  C   UNL     1       1.433   8.330  20.257  0.00  0.00    +0.000 A 
ATOM      3  N   UNL     1       2.218   7.283  19.783  0.00  0.00    +0.000 NA
ATOM      4  C   UNL     1       2.602   7.492  18.534  0.00  0.00    +0.000 A 
ATOM      5  S   UNL     1       2.065   8.972  17.876  0.00  0.00    +0.000 S 
ATOM      6  C   UNL     1       1.271   9.378  19.373  0.00  0.00    +0.000 A 
ENDROOT
BRANCH   4   7
ATOM      7  C   UNL     1       3.464   6.582  17.757  0.00  0.00    +0.000 A 
ATOM      8  C   UNL     1       4.525   7.019  16.950  0.00  0.00    +0.000 A 
ATOM      9  C   UNL     1       5.313   6.102  16.240  0.00  0.00    +0.000 A 
ATOM     10  C   UNL     1       5.043   4.740  16.332  0.00  0.00    +0.000 A 
ATOM     11 CL   UNL     1       6.011   3.614  15.463  0.00  0.00    +0.000 Cl
ATOM     12  C   UNL     1       3.994   4.282  17.118  0.00  0.00    +0.000 A 
ATOM     13  C   UNL     1       3.207   5.201  17.826  0.00  0.00    +0.000 A 
ENDBRANCH   4   7
BRANCH   6  14
ATOM     14  C   UNL     1       0.497  10.675  19.430  0.00  0.00    +0.000 C 
ATOM     15  C   UNL     1      -0.921  10.434  18.883  0.00  0.00    +0.000 C 
ATOM     16  C   UNL     1       1.334  11.769  18.794  0.00  0.00    +0.000 C 
ATOM     17  C   UNL     1       0.817  12.955  19.514  0.00  0.00    +0.000 C 
ATOM     18  N   UNL     1       0.249  12.652  20.641  0.00  0.00    +0.000 NA
ATOM     19  O   UNL     1       0.352  11.210  20.768  0.00  0.00    +0.000 OA
BRANCH  17  20
ATOM     20  C   UNL     1       1.084  14.321  18.983  0.00  0.00    +0.000 A 
ATOM     21  C   UNL     1       2.379  14.667  18.564  0.00  0.00    +0.000 A 
ATOM     22  C   UNL     1       2.635  15.963  18.160  0.00  0.00    +0.000 A 
ATOM     23  N   UNL     1       1.686  16.922  18.137  0.00  0.00    +0.000 NA
ATOM     24  C   UNL     1       0.454  16.574  18.537  0.00  0.00    +0.000 A 
ATOM     25  C   UNL     1       0.101  15.301  18.961  0.00  0.00    +0.000 A 
ENDBRANCH  17  20
ENDBRANCH   6  14
TORSDOF 3
ENDMDL
MODEL 6
REMARK VINA RESULT:      -7.6      4.472      9.535
REMARK  Name = 
REMARK  5 active torsions:
REMARK  status: ('A' for Active; 'I' for Inactive)
REMARK    1  A    between atoms: C_1  and  C_2
REMARK    2  A    between atoms: C_4  and  C_5
REMARK    3  A    between atoms: C_13  and  C_14
REMARK    4  A    between atoms: C_14  and  C_15
REMARK    5  A    between atoms: C_17  and  C_18
REMARK                            x       y       z     vdW  Elec       q    Type
REMARK                         _______ _______ _______ _____ _____    ______ ____
ROOT
ATOM      1  C   UNL     1       2.958   4.168  20.494  0.00  0.00    +0.000 C 
ATOM      2  C   UNL     1       2.968   5.399  19.662  0.00  0.00    +0.000 A 
ATOM      3  N   UNL     1       2.108   6.433  20.020  0.00  0.00    +0.000 NA
ATOM      4  C   UNL     1       2.282   7.496  19.251  0.00  0.00    +0.000 A 
ATOM      5  S   UNL     1       3.465   7.295  18.037  0.00  0.00    +0.000 S 
ATOM      6  C   UNL     1       3.763   5.661  18.563  0.00  0.00    +0.000 A 
ENDROOT
BRANCH   4   7
ATOM      7  C   UNL     1       1.506   8.745  19.357  0.00  0.00    +0.000 A 
ATOM      8  C   UNL     1       1.423   9.698  18.330  0.00  0.00    +0.000 A 
ATOM      9  C   UNL     1       0.663  10.864  18.492  0.00  0.00    +0.000 A 
ATOM     10  C   UNL     1      -0.020  11.087  19.684  0.00  0.00    +0.000 A 
ATOM     11 CL   UNL     1      -0.955  12.517  19.881  0.00  0.00    +0.000 Cl
ATOM     12  C   UNL     1       0.051  10.164  20.718  0.00  0.00    +0.000 A 
ATOM     13  C   UNL     1       0.813   8.999  20.555  0.00  0.00    +0.000 A 
ENDBRANCH   4   7
BRANCH   6  14
ATOM     14  C   UNL     1       4.842   4.878  17.851  0.00  0.00    +0.000 C 
ATOM     15  C   UNL     1       6.102   4.849  18.734  0.00  0.00    +0.000 C 
ATOM     16  C   UNL     1       4.971   5.406  16.435  0.00  0.00    +0.000 C 
ATOM     17  C   UNL     1       5.471   4.197  15.742  0.00  0.00    +0.000 C 
ATOM     18  N   UNL     1       5.203   3.102  16.385  0.00  0.00    +0.000 NA
ATOM     19  O   UNL     1       4.480   3.502  17.579  0.00  0.00    +0.000 OA
BRANCH  17  20
ATOM     20  C   UNL     1       6.088   4.316  14.391  0.00  0.00    +0.000 A 
ATOM     21  C   UNL     1       5.612   3.525  13.334  0.00  0.00    +0.000 A 
ATOM     22  C   UNL     1       6.251   3.577  12.110  0.00  0.00    +0.000 A 
ATOM     23  N   UNL     1       7.318   4.370  11.876  0.00  0.00    +0.000 NA
ATOM     24  C   UNL     1       7.757   5.121  12.896  0.00  0.00    +0.000 A 
ATOM     25  C   UNL     1       7.184   5.136  14.159  0.00  0.00    +0.000 A 
ENDBRANCH  17  20
ENDBRANCH   6  14
TORSDOF 3
ENDMDL
MODEL 7
REMARK VINA RESULT:      -7.5      4.404      9.433
REMARK  Name = 
REMARK  5 active torsions:
REMARK  status: ('A' for Active; 'I' for Inactive)
REMARK    1  A    between atoms: C_1  and  C_2
REMARK    2  A    between atoms: C_4  and  C_5
REMARK    3  A    between atoms: C_13  and  C_14
REMARK    4  A    between atoms: C_14  and  C_15
REMARK    5  A    between atoms: C_17  and  C_18
REMARK                            x       y       z     vdW  Elec       q    Type
REMARK                         _______ _______ _______ _____ _____    ______ ____
ROOT
ATOM      1  C   UNL     1       2.685   4.292  20.872  0.00  0.00    +0.000 C 
ATOM      2  C   UNL     1       2.697   5.490  19.992  0.00  0.00    +0.000 A 
ATOM      3  N   UNL     1       1.853   6.547  20.319  0.00  0.00    +0.000 NA
ATOM      4  C   UNL     1       2.028   7.576  19.507  0.00  0.00    +0.000 A 
ATOM      5  S   UNL     1       3.193   7.315  18.287  0.00  0.00    +0.000 S 
ATOM      6  C   UNL     1       3.481   5.699  18.874  0.00  0.00    +0.000 A 
ENDROOT
BRANCH   4   7
ATOM      7  C   UNL     1       1.267   8.838  19.574  0.00  0.00    +0.000 A 
ATOM      8  C   UNL     1       0.673   9.326  20.748  0.00  0.00    +0.000 A 
ATOM      9  C   UNL     1      -0.033  10.536  20.747  0.00  0.00    +0.000 A 
ATOM     10  C   UNL     1      -0.152  11.268  19.569  0.00  0.00    +0.000 A 
ATOM     11 CL   UNL     1      -1.016  12.755  19.569  0.00  0.00    +0.000 Cl
ATOM     12  C   UNL     1       0.420  10.805  18.392  0.00  0.00    +0.000 A 
ATOM     13  C   UNL     1       1.125   9.593  18.396  0.00  0.00    +0.000 A 
ENDBRANCH   4   7
BRANCH   6  14
ATOM     14  C   UNL     1       4.541   4.877  18.180  0.00  0.00    +0.000 C 
ATOM     15  C   UNL     1       5.780   4.791  19.089  0.00  0.00    +0.000 C 
ATOM     16  C   UNL     1       4.723   5.407  16.770  0.00  0.00    +0.000 C 
ATOM     17  C   UNL     1       5.187   4.183  16.079  0.00  0.00    +0.000 C 
ATOM     18  N   UNL     1       4.861   3.096  16.710  0.00  0.00    +0.000 NA
ATOM     19  O   UNL     1       4.130   3.519  17.890  0.00  0.00    +0.000 OA
BRANCH  17  20
ATOM     20  C   UNL     1       5.838   4.285  14.744  0.00  0.00    +0.000 A 
ATOM     21  C   UNL     1       5.341   3.535  13.666  0.00  0.00    +0.000 A 
ATOM     22  C   UNL     1       6.007   3.567  12.455  0.00  0.00    +0.000 A 
ATOM     23  N   UNL     1       7.120   4.302  12.254  0.00  0.00    +0.000 NA
ATOM     24  C   UNL     1       7.580   5.015  13.293  0.00  0.00    +0.000 A 
ATOM     25  C   UNL     1       6.982   5.045  14.544  0.00  0.00    +0.000 A 
ENDBRANCH  17  20
ENDBRANCH   6  14
TORSDOF 3
ENDMDL
MODEL 8
REMARK VINA RESULT:      -7.4      3.083      4.255
REMARK  Name = 
REMARK  5 active torsions:
REMARK  status: ('A' for Active; 'I' for Inactive)
REMARK    1  A    between atoms: C_1  and  C_2
REMARK    2  A    between atoms: C_4  and  C_5
REMARK    3  A    between atoms: C_13  and  C_14
REMARK    4  A    between atoms: C_14  and  C_15
REMARK    5  A    between atoms: C_17  and  C_18
REMARK                            x       y       z     vdW  Elec       q    Type
REMARK                         _______ _______ _______ _____ _____    ______ ____
ROOT
ATOM      1  C   UNL     1       0.340   9.369  21.877  0.00  0.00    +0.000 C 
ATOM      2  C   UNL     1       0.985   9.298  20.540  0.00  0.00    +0.000 A 
ATOM      3  N   UNL     1       1.628   8.114  20.190  0.00  0.00    +0.000 NA
ATOM      4  C   UNL     1       2.080   8.157  18.947  0.00  0.00    +0.000 A 
ATOM      5  S   UNL     1       1.784   9.634  18.146  0.00  0.00    +0.000 S 
ATOM      6  C   UNL     1       1.005  10.277  19.566  0.00  0.00    +0.000 A 
ENDROOT
BRANCH   4   7
ATOM      7  C   UNL     1       2.829   7.071  18.288  0.00  0.00    +0.000 A 
ATOM      8  C   UNL     1       3.954   7.285  17.478  0.00  0.00    +0.000 A 
ATOM      9  C   UNL     1       4.627   6.208  16.884  0.00  0.00    +0.000 A 
ATOM     10  C   UNL     1       4.177   4.908  17.096  0.00  0.00    +0.000 A 
ATOM     11 CL   UNL     1       5.004   3.587  16.368  0.00  0.00    +0.000 Cl
ATOM     12  C   UNL     1       3.063   4.670  17.887  0.00  0.00    +0.000 A 
ATOM     13  C   UNL     1       2.391   5.748  18.479  0.00  0.00    +0.000 A 
ENDBRANCH   4   7
BRANCH   6  14
ATOM     14  C   UNL     1       0.423  11.669  19.482  0.00  0.00    +0.000 C 
ATOM     15  C   UNL     1      -1.015  11.577  18.945  0.00  0.00    +0.000 C 
ATOM     16  C   UNL     1       1.406  12.563  18.748  0.00  0.00    +0.000 C 
ATOM     17  C   UNL     1       1.065  13.878  19.336  0.00  0.00    +0.000 C 
ATOM     18  N   UNL     1       0.462  13.775  20.481  0.00  0.00    +0.000 NA
ATOM     19  O   UNL     1       0.360  12.354  20.756  0.00  0.00    +0.000 OA
BRANCH  17  20
ATOM     20  C   UNL     1       1.522  15.130  18.672  0.00  0.00    +0.000 A 
ATOM     21  C   UNL     1       2.803  15.190  18.101  0.00  0.00    +0.000 A 
ATOM     22  C   UNL     1       3.251  16.384  17.569  0.00  0.00    +0.000 A 
ATOM     23  N   UNL     1       2.502  17.507  17.561  0.00  0.00    +0.000 NA
ATOM     24  C   UNL     1       1.280  17.431  18.108  0.00  0.00    +0.000 A 
ATOM     25  C   UNL     1       0.744  16.280  18.667  0.00  0.00    +0.000 A 
ENDBRANCH  17  20
ENDBRANCH   6  14
TORSDOF 3
ENDMDL
MODEL 9
REMARK VINA RESULT:      -7.4      4.308      9.371
REMARK  Name = 
REMARK  5 active torsions:
REMARK  status: ('A' for Active; 'I' for Inactive)
REMARK    1  A    between atoms: C_1  and  C_2
REMARK    2  A    between atoms: C_4  and  C_5
REMARK    3  A    between atoms: C_13  and  C_14
REMARK    4  A    between atoms: C_14  and  C_15
REMARK    5  A    between atoms: C_17  and  C_18
REMARK                            x       y       z     vdW  Elec       q    Type
REMARK                         _______ _______ _______ _____ _____    ______ ____
ROOT
ATOM      1  C   UNL     1       2.439   4.893  20.564  0.00  0.00    +0.000 C 
ATOM      2  C   UNL     1       2.607   6.026  19.618  0.00  0.00    +0.000 A 
ATOM      3  N   UNL     1       1.848   7.173  19.836  0.00  0.00    +0.000 NA
ATOM      4  C   UNL     1       2.159   8.130  18.975  0.00  0.00    +0.000 A 
ATOM      5  S   UNL     1       3.353   7.688  17.839  0.00  0.00    +0.000 S 
ATOM      6  C   UNL     1       3.461   6.094  18.534  0.00  0.00    +0.000 A 
ENDROOT
BRANCH   4   7
ATOM      7  C   UNL     1       1.515   9.456  18.926  0.00  0.00    +0.000 A 
ATOM      8  C   UNL     1       2.050  10.553  18.234  0.00  0.00    +0.000 A 
ATOM      9  C   UNL     1       1.386  11.787  18.221  0.00  0.00    +0.000 A 
ATOM     10  C   UNL     1       0.181  11.933  18.902  0.00  0.00    +0.000 A 
ATOM     11 CL   UNL     1      -0.636  13.447  18.884  0.00  0.00    +0.000 Cl
ATOM     12  C   UNL     1      -0.367  10.865  19.600  0.00  0.00    +0.000 A 
ATOM     13  C   UNL     1       0.301   9.632  19.612  0.00  0.00    +0.000 A 
ENDBRANCH   4   7
BRANCH   6  14
ATOM     14  C   UNL     1       4.474   5.137  17.949  0.00  0.00    +0.000 C 
ATOM     15  C   UNL     1       5.632   4.966  18.947  0.00  0.00    +0.000 C 
ATOM     16  C   UNL     1       4.805   5.584  16.537  0.00  0.00    +0.000 C 
ATOM     17  C   UNL     1       5.184   4.289  15.928  0.00  0.00    +0.000 C 
ATOM     18  N   UNL     1       4.703   3.270  16.572  0.00  0.00    +0.000 NA
ATOM     19  O   UNL     1       3.942   3.817  17.681  0.00  0.00    +0.000 OA
BRANCH  17  20
ATOM     20  C   UNL     1       5.930   4.264  14.639  0.00  0.00    +0.000 A 
ATOM     21  C   UNL     1       7.081   5.053  14.484  0.00  0.00    +0.000 A 
ATOM     22  C   UNL     1       7.713   5.093  13.255  0.00  0.00    +0.000 A 
ATOM     23  N   UNL     1       7.278   4.391  12.187  0.00  0.00    +0.000 NA
ATOM     24  C   UNL     1       6.179   3.641  12.354  0.00  0.00    +0.000 A 
ATOM     25  C   UNL     1       5.476   3.538  13.546  0.00  0.00    +0.000 A 
ENDBRANCH  17  20
ENDBRANCH   6  14
TORSDOF 3
ENDMDL
