MODEL 1
REMARK VINA RESULT:      -6.5      0.000      0.000
REMARK  Name = 
REMARK  7 active torsions:
REMARK  status: ('A' for Active; 'I' for Inactive)
REMARK    1  A    between atoms: C_1  and  C_2
REMARK    2  A    between atoms: C_2  and  C_3
REMARK    3  A    between atoms: C_3  and  N_4
REMARK    4  A    between atoms: N_4  and  C_5
REMARK    5  A    between atoms: C_5  and  C_6
REMARK    6  A    between atoms: N_8  and  C_9
REMARK    7  A    between atoms: C_11  and  C_12
REMARK                            x       y       z     vdW  Elec       q    Type
REMARK                         _______ _______ _______ _____ _____    ______ ____
ROOT
ATOM      1  C   UNL     1       3.086   4.817  17.684  0.00  0.00    +0.000 A 
ATOM      2  C   UNL     1       4.238   4.169  17.278  0.00  0.00    +0.000 A 
ATOM      3  N   UNL     1       5.271   5.017  17.413  0.00  0.00    +0.000 N 
ATOM      4  C   UNL     1       6.670   4.688  17.180  0.00  0.00    +0.000 C 
ATOM      5  N   UNL     1       4.834   6.195  17.829  0.00  0.00    +0.000 NA
ATOM      6  C   UNL     1       3.498   6.114  18.014  0.00  0.00    +0.000 A 
ENDROOT
BRANCH   6   7
ATOM      7  C   UNL     1       2.678   7.266  18.479  0.00  0.00    +0.000 A 
ATOM      8  C   UNL     1       2.356   8.362  17.657  0.00  0.00    +0.000 A 
ATOM      9  C   UNL     1       1.607   9.427  18.151  0.00  0.00    +0.000 A 
ATOM     10  C   UNL     1       1.185   9.405  19.476  0.00  0.00    +0.000 A 
ATOM     11  N   UNL     1       1.483   8.340  20.265  0.00  0.00    +0.000 NA
ATOM     12  C   UNL     1       2.200   7.279  19.800  0.00  0.00    +0.000 A 
ENDBRANCH   6   7
BRANCH   1  13
ATOM     13  C   UNL     1       1.686   4.238  17.704  0.00  0.00    +0.000 C 
BRANCH  13  14
ATOM     14  N   UNL     1       1.676   2.776  17.822  0.00  0.00    +0.000 NA
ATOM     15  H   UNL     1       1.212   2.392  16.965  0.00  0.00    +0.000 HD
BRANCH  14  16
ATOM     16  C   UNL     1       0.887   2.341  18.986  0.00  0.00    +0.000 C 
BRANCH  16  18
ATOM     17  C   UNL     1       1.468   2.874  21.361  0.00  0.00    +0.000 C 
ATOM     18  C   UNL     1       0.901   3.424  20.058  0.00  0.00    +0.000 C 
ENDBRANCH  16  18
ENDBRANCH  14  16
ENDBRANCH  13  14
ENDBRANCH   1  13
TORSDOF 5
ENDMDL
MODEL 2
REMARK VINA RESULT:      -6.4      3.030      5.598
REMARK  Name = 
REMARK  7 active torsions:
REMARK  status: ('A' for Active; 'I' for Inactive)
REMARK    1  A    between atoms: C_1  and  C_2
REMARK    2  A    between atoms: C_2  and  C_3
REMARK    3  A    between atoms: C_3  and  N_4
REMARK    4  A    between atoms: N_4  and  C_5
REMARK    5  A    between atoms: C_5  and  C_6
REMARK    6  A    between atoms: N_8  and  C_9
REMARK    7  A    between atoms: C_11  and  C_12
REMARK                            x       y       z     vdW  Elec       q    Type
REMARK                         _______ _______ _______ _____ _____    ______ ____
ROOT
ATOM      1  C   UNL     1       5.761   4.573  16.861  0.00  0.00    +0.000 A 
ATOM      2  C   UNL     1       6.942   5.174  17.256  0.00  0.00    +0.000 A 
ATOM      3  N   UNL     1       6.969   5.215  18.598  0.00  0.00    +0.000 N 
ATOM      4  C   UNL     1       8.083   5.687  19.407  0.00  0.00    +0.000 C 
ATOM      5  N   UNL     1       5.840   4.723  19.085  0.00  0.00    +0.000 NA
ATOM      6  C   UNL     1       5.072   4.311  18.052  0.00  0.00    +0.000 A 
ENDROOT
BRANCH   6   7
ATOM      7  C   UNL     1       3.726   3.707  18.241  0.00  0.00    +0.000 A 
ATOM      8  C   UNL     1       2.534   4.342  17.846  0.00  0.00    +0.000 A 
ATOM      9  C   UNL     1       1.298   3.742  18.071  0.00  0.00    +0.000 A 
ATOM     10  C   UNL     1       1.247   2.505  18.704  0.00  0.00    +0.000 A 
ATOM     11  N   UNL     1       2.399   1.884  19.072  0.00  0.00    +0.000 NA
ATOM     12  C   UNL     1       3.620   2.443  18.848  0.00  0.00    +0.000 A 
ENDBRANCH   6   7
BRANCH   1  13
ATOM     13  C   UNL     1       5.313   4.315  15.437  0.00  0.00    +0.000 C 
BRANCH  13  14
ATOM     14  N   UNL     1       6.294   3.548  14.662  0.00  0.00    +0.000 NA
ATOM     15  H   UNL     1       7.108   3.348  15.291  0.00  0.00    +0.000 HD
BRANCH  14  16
ATOM     16  C   UNL     1       6.798   4.328  13.520  0.00  0.00    +0.000 C 
BRANCH  16  18
ATOM     17  C   UNL     1       5.080   3.284  12.029  0.00  0.00    +0.000 C 
ATOM     18  C   UNL     1       6.566   3.562  12.223  0.00  0.00    +0.000 C 
ENDBRANCH  16  18
ENDBRANCH  14  16
ENDBRANCH  13  14
ENDBRANCH   1  13
TORSDOF 5
ENDMDL
MODEL 3
REMARK VINA RESULT:      -6.3      1.859      4.624
REMARK  Name = 
REMARK  7 active torsions:
REMARK  status: ('A' for Active; 'I' for Inactive)
REMARK    1  A    between atoms: C_1  and  C_2
REMARK    2  A    between atoms: C_2  and  C_3
REMARK    3  A    between atoms: C_3  and  N_4
REMARK    4  A    between atoms: N_4  and  C_5
REMARK    5  A    between atoms: C_5  and  C_6
REMARK    6  A    between atoms: N_8  and  C_9
REMARK    7  A    between atoms: C_11  and  C_12
REMARK                            x       y       z     vdW  Elec       q    Type
REMARK                         _______ _______ _______ _____ _____    ______ ____
ROOT
ATOM      1  C   UNL     1       3.976   5.048  18.818  0.00  0.00    +0.000 A 
ATOM      2  C   UNL     1       3.104   5.872  19.506  0.00  0.00    +0.000 A 
ATOM      3  N   UNL     1       2.913   6.987  18.782  0.00  0.00    +0.000 N 
ATOM      4  C   UNL     1       1.991   8.063  19.116  0.00  0.00    +0.000 C 
ATOM      5  N   UNL     1       3.664   6.949  17.692  0.00  0.00    +0.000 NA
ATOM      6  C   UNL     1       4.328   5.772  17.672  0.00  0.00    +0.000 A 
ENDROOT
BRANCH   6   7
ATOM      7  C   UNL     1       5.269   5.398  16.581  0.00  0.00    +0.000 A 
ATOM      8  C   UNL     1       4.944   4.480  15.565  0.00  0.00    +0.000 A 
ATOM      9  C   UNL     1       5.873   4.146  14.583  0.00  0.00    +0.000 A 
ATOM     10  C   UNL     1       7.138   4.723  14.618  0.00  0.00    +0.000 A 
ATOM     11  N   UNL     1       7.446   5.622  15.590  0.00  0.00    +0.000 NA
ATOM     12  C   UNL     1       6.550   5.976  16.552  0.00  0.00    +0.000 A 
ENDBRANCH   6   7
BRANCH   1  13
ATOM     13  C   UNL     1       4.469   3.685  19.260  0.00  0.00    +0.000 C 
BRANCH  13  14
ATOM     14  N   UNL     1       3.375   2.767  19.596  0.00  0.00    +0.000 NA
ATOM     15  H   UNL     1       3.804   1.889  19.973  0.00  0.00    +0.000 HD
BRANCH  14  16
ATOM     16  C   UNL     1       2.599   2.403  18.399  0.00  0.00    +0.000 C 
BRANCH  16  18
ATOM     17  C   UNL     1       0.804   3.135  19.981  0.00  0.00    +0.000 C 
ATOM     18  C   UNL     1       1.121   2.294  18.750  0.00  0.00    +0.000 C 
ENDBRANCH  16  18
ENDBRANCH  14  16
ENDBRANCH  13  14
ENDBRANCH   1  13
TORSDOF 5
ENDMDL
MODEL 4
REMARK VINA RESULT:      -6.3      2.977      5.671
REMARK  Name = 
REMARK  7 active torsions:
REMARK  status: ('A' for Active; 'I' for Inactive)
REMARK    1  A    between atoms: C_1  and  C_2
REMARK    2  A    between atoms: C_2  and  C_3
REMARK    3  A    between atoms: C_3  and  N_4
REMARK    4  A    between atoms: N_4  and  C_5
REMARK    5  A    between atoms: C_5  and  C_6
REMARK    6  A    between atoms: N_8  and  C_9
REMARK    7  A    between atoms: C_11  and  C_12
REMARK                            x       y       z     vdW  Elec       q    Type
REMARK                         _______ _______ _______ _____ _____    ______ ____
ROOT
ATOM      1  C   UNL     1       5.749   4.533  16.768  0.00  0.00    +0.000 A 
ATOM      2  C   UNL     1       6.928   5.150  17.143  0.00  0.00    +0.000 A 
ATOM      3  N   UNL     1       6.965   5.216  18.484  0.00  0.00    +0.000 N 
ATOM      4  C   UNL     1       8.082   5.712  19.275  0.00  0.00    +0.000 C 
ATOM      5  N   UNL     1       5.844   4.726  18.988  0.00  0.00    +0.000 NA
ATOM      6  C   UNL     1       5.072   4.289  17.969  0.00  0.00    +0.000 A 
ENDROOT
BRANCH   6   7
ATOM      7  C   UNL     1       3.731   3.678  18.180  0.00  0.00    +0.000 A 
ATOM      8  C   UNL     1       3.536   2.468  18.873  0.00  0.00    +0.000 A 
ATOM      9  C   UNL     1       2.261   1.928  19.018  0.00  0.00    +0.000 A 
ATOM     10  C   UNL     1       1.173   2.591  18.461  0.00  0.00    +0.000 A 
ATOM     11  N   UNL     1       1.360   3.766  17.805  0.00  0.00    +0.000 NA
ATOM     12  C   UNL     1       2.594   4.323  17.664  0.00  0.00    +0.000 A 
ENDBRANCH   6   7
BRANCH   1  13
ATOM     13  C   UNL     1       5.292   4.245  15.352  0.00  0.00    +0.000 C 
BRANCH  13  14
ATOM     14  N   UNL     1       6.257   3.439  14.596  0.00  0.00    +0.000 NA
ATOM     15  H   UNL     1       7.186   3.526  15.074  0.00  0.00    +0.000 HD
BRANCH  14  16
ATOM     16  C   UNL     1       6.416   3.947  13.224  0.00  0.00    +0.000 C 
BRANCH  16  18
ATOM     17  C   UNL     1       5.862   2.144  11.579  0.00  0.00    +0.000 C 
ATOM     18  C   UNL     1       5.332   3.363  12.325  0.00  0.00    +0.000 C 
ENDBRANCH  16  18
ENDBRANCH  14  16
ENDBRANCH  13  14
ENDBRANCH   1  13
TORSDOF 5
ENDMDL
MODEL 5
REMARK VINA RESULT:      -6.3      1.691      4.486
REMARK  Name = 
REMARK  7 active torsions:
REMARK  status: ('A' for Active; 'I' for Inactive)
REMARK    1  A    between atoms: C_1  and  C_2
REMARK    2  A    between atoms: C_2  and  C_3
REMARK    3  A    between atoms: C_3  and  N_4
REMARK    4  A    between atoms: N_4  and  C_5
REMARK    5  A    between atoms: C_5  and  C_6
REMARK    6  A    between atoms: N_8  and  C_9
REMARK    7  A    between atoms: C_11  and  C_12
REMARK                            x       y       z     vdW  Elec       q    Type
REMARK                         _______ _______ _______ _____ _____    ______ ____
ROOT
ATOM      1  C   UNL     1       3.055   4.909  17.787  0.00  0.00    +0.000 A 
ATOM      2  C   UNL     1       2.270   5.742  18.564  0.00  0.00    +0.000 A 
ATOM      3  N   UNL     1       2.707   7.002  18.410  0.00  0.00    +0.000 N 
ATOM      4  C   UNL     1       2.088   8.187  18.987  0.00  0.00    +0.000 C 
ATOM      5  N   UNL     1       3.769   7.016  17.620  0.00  0.00    +0.000 NA
ATOM      6  C   UNL     1       4.013   5.752  17.209  0.00  0.00    +0.000 A 
ENDROOT
BRANCH   6   7
ATOM      7  C   UNL     1       5.143   5.403  16.306  0.00  0.00    +0.000 A 
ATOM      8  C   UNL     1       5.019   4.509  15.227  0.00  0.00    +0.000 A 
ATOM      9  C   UNL     1       6.117   4.197  14.429  0.00  0.00    +0.000 A 
ATOM     10  C   UNL     1       7.351   4.772  14.715  0.00  0.00    +0.000 A 
ATOM     11  N   UNL     1       7.467   5.648  15.748  0.00  0.00    +0.000 NA
ATOM     12  C   UNL     1       6.405   5.981  16.532  0.00  0.00    +0.000 A 
ENDBRANCH   6   7
BRANCH   1  13
ATOM     13  C   UNL     1       2.917   3.406  17.652  0.00  0.00    +0.000 C 
BRANCH  13  14
ATOM     14  N   UNL     1       1.581   2.923  18.018  0.00  0.00    +0.000 NA
ATOM     15  H   UNL     1       0.987   3.761  18.226  0.00  0.00    +0.000 HD
BRANCH  14  16
ATOM     16  C   UNL     1       1.628   2.098  19.236  0.00  0.00    +0.000 C 
BRANCH  16  18
ATOM     17  C   UNL     1       2.149   3.124  21.459  0.00  0.00    +0.000 C 
ATOM     18  C   UNL     1       1.064   2.881  20.416  0.00  0.00    +0.000 C 
ENDBRANCH  16  18
ENDBRANCH  14  16
ENDBRANCH  13  14
ENDBRANCH   1  13
TORSDOF 5
ENDMDL
MODEL 6
REMARK VINA RESULT:      -6.3      0.710      1.201
REMARK  Name = 
REMARK  7 active torsions:
REMARK  status: ('A' for Active; 'I' for Inactive)
REMARK    1  A    between atoms: C_1  and  C_2
REMARK    2  A    between atoms: C_2  and  C_3
REMARK    3  A    between atoms: C_3  and  N_4
REMARK    4  A    between atoms: N_4  and  C_5
REMARK    5  A    between atoms: C_5  and  C_6
REMARK    6  A    between atoms: N_8  and  C_9
REMARK    7  A    between atoms: C_11  and  C_12
REMARK                            x       y       z     vdW  Elec       q    Type
REMARK                         _______ _______ _______ _____ _____    ______ ____
ROOT
ATOM      1  C   UNL     1       3.027   4.963  17.679  0.00  0.00    +0.000 A 
ATOM      2  C   UNL     1       4.147   4.398  17.098  0.00  0.00    +0.000 A 
ATOM      3  N   UNL     1       5.136   5.306  17.109  0.00  0.00    +0.000 N 
ATOM      4  C   UNL     1       6.505   5.071  16.673  0.00  0.00    +0.000 C 
ATOM      5  N   UNL     1       4.691   6.447  17.613  0.00  0.00    +0.000 NA
ATOM      6  C   UNL     1       3.402   6.278  17.982  0.00  0.00    +0.000 A 
ENDROOT
BRANCH   6   7
ATOM      7  C   UNL     1       2.589   7.368  18.587  0.00  0.00    +0.000 A 
ATOM      8  C   UNL     1       2.153   7.351  19.925  0.00  0.00    +0.000 A 
ATOM      9  C   UNL     1       1.371   8.385  20.433  0.00  0.00    +0.000 A 
ATOM     10  C   UNL     1       1.013   9.439  19.599  0.00  0.00    +0.000 A 
ATOM     11  N   UNL     1       1.447   9.463  18.312  0.00  0.00    +0.000 NA
ATOM     12  C   UNL     1       2.226   8.472  17.797  0.00  0.00    +0.000 A 
ENDBRANCH   6   7
BRANCH   1  13
ATOM     13  C   UNL     1       1.681   4.297  17.880  0.00  0.00    +0.000 C 
BRANCH  13  14
ATOM     14  N   UNL     1       1.743   2.837  17.745  0.00  0.00    +0.000 NA
ATOM     15  H   UNL     1       1.010   2.552  17.054  0.00  0.00    +0.000 HD
BRANCH  14  16
ATOM     16  C   UNL     1       1.435   2.171  19.021  0.00  0.00    +0.000 C 
BRANCH  16  18
ATOM     17  C   UNL     1       1.540   2.959  21.394  0.00  0.00    +0.000 C 
ATOM     18  C   UNL     1       0.909   3.189  20.026  0.00  0.00    +0.000 C 
ENDBRANCH  16  18
ENDBRANCH  14  16
ENDBRANCH  13  14
ENDBRANCH   1  13
TORSDOF 5
ENDMDL
MODEL 7
REMARK VINA RESULT:      -6.3      3.080      5.601
REMARK  Name = 
REMARK  7 active torsions:
REMARK  status: ('A' for Active; 'I' for Inactive)
REMARK    1  A    between atoms: C_1  and  C_2
REMARK    2  A    between atoms: C_2  and  C_3
REMARK    3  A    between atoms: C_3  and  N_4
REMARK    4  A    between atoms: N_4  and  C_5
REMARK    5  A    between atoms: C_5  and  C_6
REMARK    6  A    between atoms: N_8  and  C_9
REMARK    7  A    between atoms: C_11  and  C_12
REMARK                            x       y       z     vdW  Elec       q    Type
REMARK                         _______ _______ _______ _____ _____    ______ ____
ROOT
ATOM      1  C   UNL     1       6.144   4.617  16.393  0.00  0.00    +0.000 A 
ATOM      2  C   UNL     1       7.099   5.617  16.427  0.00  0.00    +0.000 A 
ATOM      3  N   UNL     1       6.936   6.320  17.559  0.00  0.00    +0.000 N 
ATOM      4  C   UNL     1       7.800   7.400  18.014  0.00  0.00    +0.000 C 
ATOM      5  N   UNL     1       5.890   5.861  18.227  0.00  0.00    +0.000 NA
ATOM      6  C   UNL     1       5.378   4.810  17.549  0.00  0.00    +0.000 A 
ENDROOT
BRANCH   6   7
ATOM      7  C   UNL     1       4.185   4.053  18.019  0.00  0.00    +0.000 A 
ATOM      8  C   UNL     1       2.900   4.225  17.472  0.00  0.00    +0.000 A 
ATOM      9  C   UNL     1       1.814   3.509  17.967  0.00  0.00    +0.000 A 
ATOM     10  C   UNL     1       2.006   2.623  19.023  0.00  0.00    +0.000 A 
ATOM     11  N   UNL     1       3.250   2.447  19.540  0.00  0.00    +0.000 NA
ATOM     12  C   UNL     1       4.331   3.123  19.062  0.00  0.00    +0.000 A 
ENDBRANCH   6   7
BRANCH   1  13
ATOM     13  C   UNL     1       5.959   3.583  15.301  0.00  0.00    +0.000 C 
BRANCH  13  14
ATOM     14  N   UNL     1       5.486   4.166  14.041  0.00  0.00    +0.000 NA
ATOM     15  H   UNL     1       4.541   3.760  13.840  0.00  0.00    +0.000 HD
BRANCH  14  16
ATOM     16  C   UNL     1       6.371   3.806  12.922  0.00  0.00    +0.000 C 
BRANCH  16  18
ATOM     17  C   UNL     1       4.345   3.366  11.520  0.00  0.00    +0.000 C 
ATOM     18  C   UNL     1       5.675   2.804  12.009  0.00  0.00    +0.000 C 
ENDBRANCH  16  18
ENDBRANCH  14  16
ENDBRANCH  13  14
ENDBRANCH   1  13
TORSDOF 5
ENDMDL
MODEL 8
REMARK VINA RESULT:      -6.2      1.846      5.147
REMARK  Name = 
REMARK  7 active torsions:
REMARK  status: ('A' for Active; 'I' for Inactive)
REMARK    1  A    between atoms: C_1  and  C_2
REMARK    2  A    between atoms: C_2  and  C_3
REMARK    3  A    between atoms: C_3  and  N_4
REMARK    4  A    between atoms: N_4  and  C_5
REMARK    5  A    between atoms: C_5  and  C_6
REMARK    6  A    between atoms: N_8  and  C_9
REMARK    7  A    between atoms: C_11  and  C_12
REMARK                            x       y       z     vdW  Elec       q    Type
REMARK                         _______ _______ _______ _____ _____    ______ ____
ROOT
ATOM      1  C   UNL     1       3.892   5.546  18.000  0.00  0.00    +0.000 A 
ATOM      2  C   UNL     1       3.873   6.809  17.438  0.00  0.00    +0.000 A 
ATOM      3  N   UNL     1       2.902   7.522  18.030  0.00  0.00    +0.000 N 
ATOM      4  C   UNL     1       2.619   8.930  17.787  0.00  0.00    +0.000 C 
ATOM      5  N   UNL     1       2.256   6.764  18.902  0.00  0.00    +0.000 NA
ATOM      6  C   UNL     1       2.836   5.544  18.921  0.00  0.00    +0.000 A 
ENDROOT
BRANCH   6   7
ATOM      7  C   UNL     1       2.356   4.438  19.793  0.00  0.00    +0.000 A 
ATOM      8  C   UNL     1       1.603   3.350  19.313  0.00  0.00    +0.000 A 
ATOM      9  C   UNL     1       1.157   2.355  20.179  0.00  0.00    +0.000 A 
ATOM     10  C   UNL     1       1.454   2.449  21.534  0.00  0.00    +0.000 A 
ATOM     11  N   UNL     1       2.194   3.491  21.995  0.00  0.00    +0.000 NA
ATOM     12  C   UNL     1       2.655   4.468  21.166  0.00  0.00    +0.000 A 
ENDBRANCH   6   7
BRANCH   1  13
ATOM     13  C   UNL     1       4.829   4.411  17.640  0.00  0.00    +0.000 C 
BRANCH  13  14
ATOM     14  N   UNL     1       5.960   4.291  18.566  0.00  0.00    +0.000 NA
ATOM     15  H   UNL     1       5.756   4.900  19.394  0.00  0.00    +0.000 HD
BRANCH  14  16
ATOM     16  C   UNL     1       7.206   4.779  17.952  0.00  0.00    +0.000 C 
BRANCH  16  18
ATOM     17  C   UNL     1       7.581   7.229  17.606  0.00  0.00    +0.000 C 
ATOM     18  C   UNL     1       7.634   6.084  18.611  0.00  0.00    +0.000 C 
ENDBRANCH  16  18
ENDBRANCH  14  16
ENDBRANCH  13  14
ENDBRANCH   1  13
TORSDOF 5
ENDMDL
MODEL 9
REMARK VINA RESULT:      -6.2      1.934      4.740
REMARK  Name = 
REMARK  7 active torsions:
REMARK  status: ('A' for Active; 'I' for Inactive)
REMARK    1  A    between atoms: C_1  and  C_2
REMARK    2  A    between atoms: C_2  and  C_3
REMARK    3  A    between atoms: C_3  and  N_4
REMARK    4  A    between atoms: N_4  and  C_5
REMARK    5  A    between atoms: C_5  and  C_6
REMARK    6  A    between atoms: N_8  and  C_9
REMARK    7  A    between atoms: C_11  and  C_12
REMARK                            x       y       z     vdW  Elec       q    Type
REMARK                         _______ _______ _______ _____ _____    ______ ____
ROOT
ATOM      1  C   UNL     1       3.321   6.264  18.980  0.00  0.00    +0.000 A 
ATOM      2  C   UNL     1       2.395   7.258  19.234  0.00  0.00    +0.000 A 
ATOM      3  N   UNL     1       2.371   8.095  18.184  0.00  0.00    +0.000 N 
ATOM      4  C   UNL     1       1.462   9.220  18.021  0.00  0.00    +0.000 C 
ATOM      5  N   UNL     1       3.277   7.723  17.293  0.00  0.00    +0.000 NA
ATOM      6  C   UNL     1       3.879   6.599  17.739  0.00  0.00    +0.000 A 
ENDROOT
BRANCH   6   7
ATOM      7  C   UNL     1       4.957   5.908  16.981  0.00  0.00    +0.000 A 
ATOM      8  C   UNL     1       4.783   4.655  16.365  0.00  0.00    +0.000 A 
ATOM      9  C   UNL     1       5.835   4.041  15.689  0.00  0.00    +0.000 A 
ATOM     10  C   UNL     1       7.072   4.675  15.635  0.00  0.00    +0.000 A 
ATOM     11  N   UNL     1       7.235   5.892  16.217  0.00  0.00    +0.000 NA
ATOM     12  C   UNL     1       6.218   6.520  16.869  0.00  0.00    +0.000 A 
ENDBRANCH   6   7
BRANCH   1  13
ATOM     13  C   UNL     1       3.674   5.105  19.890  0.00  0.00    +0.000 C 
BRANCH  13  14
ATOM     14  N   UNL     1       3.029   3.850  19.488  0.00  0.00    +0.000 NA
ATOM     15  H   UNL     1       2.304   3.622  20.209  0.00  0.00    +0.000 HD
BRANCH  14  16
ATOM     16  C   UNL     1       3.995   2.739  19.463  0.00  0.00    +0.000 C 
BRANCH  16  18
ATOM     17  C   UNL     1       2.380   2.182  17.635  0.00  0.00    +0.000 C 
ATOM     18  C   UNL     1       3.520   1.658  18.500  0.00  0.00    +0.000 C 
ENDBRANCH  16  18
ENDBRANCH  14  16
ENDBRANCH  13  14
ENDBRANCH   1  13
TORSDOF 5
ENDMDL
