MODEL 1
REMARK VINA RESULT:      -8.1      0.000      0.000
REMARK  Name = 
REMARK  4 active torsions:
REMARK  status: ('A' for Active; 'I' for Inactive)
REMARK    1  A    between atoms: N_2  and  C_4
REMARK    2  A    between atoms: C_7  and  C_8
REMARK    3  A    between atoms: C_8  and  N_9
REMARK    4  A    between atoms: N_12  and  C_13
REMARK                            x       y       z     vdW  Elec       q    Type
REMARK                         _______ _______ _______ _____ _____    ______ ____
ROOT
ATOM      1  N   UNL     1       6.411   5.635  16.532  0.00  0.00    +0.000 NA
ATOM      2  C   UNL     1       4.977   5.627  16.134  0.00  0.00    +0.000 C 
ATOM      3  C   UNL     1       4.123   4.483  16.746  0.00  0.00    +0.000 C 
ATOM      4  N   UNL     1       4.296   4.483  18.205  0.00  0.00    +0.000 N 
ATOM      5  C   UNL     1       5.693   4.448  18.669  0.00  0.00    +0.000 C 
ATOM      6  C   UNL     1       6.465   5.619  18.018  0.00  0.00    +0.000 C 
ENDROOT
BRANCH   4   7
ATOM      7  C   UNL     1       3.271   4.133  19.070  0.00  0.00    +0.000 A 
ATOM      8  C   UNL     1       2.661   5.097  19.895  0.00  0.00    +0.000 A 
ATOM      9  C   UNL     1       1.613   4.769  20.765  0.00  0.00    +0.000 A 
ATOM     10  C   UNL     1       1.141   3.463  20.833  0.00  0.00    +0.000 A 
ATOM     11  C   UNL     1       1.741   2.479  20.056  0.00  0.00    +0.000 A 
ATOM     12  C   UNL     1       2.803   2.802  19.204  0.00  0.00    +0.000 A 
ATOM     13 CL   UNL     1       3.589   1.454  18.436  0.00  0.00    +0.000 Cl
ENDBRANCH   4   7
BRANCH   1  14
ATOM     14  C   UNL     1       7.151   4.493  15.962  0.00  0.00    +0.000 C 
BRANCH  14  18
ATOM     15  C   UNL     1       6.207   3.660  12.598  0.00  0.00    +0.000 A 
ATOM     16  C   UNL     1       7.137   4.605  12.242  0.00  0.00    +0.000 A 
ATOM     17  C   UNL     1       7.649   5.103  13.460  0.00  0.00    +0.000 A 
ATOM     18  C   UNL     1       7.003   4.430  14.476  0.00  0.00    +0.000 A 
ATOM     19  O   UNL     1       6.101   3.535  13.954  0.00  0.00    +0.000 OA
BRANCH  15  21
ATOM     20  O   UNL     1       4.266   3.252  11.498  0.00  0.00    +0.000 OA
ATOM     21  N   UNL     1       5.385   2.811  11.788  0.00  0.00    +0.000 N 
ATOM     22  O   UNL     1       5.842   1.713  11.446  0.00  0.00    +0.000 OA
ENDBRANCH  15  21
ENDBRANCH  14  18
ENDBRANCH   1  14
TORSDOF 4
ENDMDL
MODEL 2
REMARK VINA RESULT:      -8.0      1.320      1.639
REMARK  Name = 
REMARK  4 active torsions:
REMARK  status: ('A' for Active; 'I' for Inactive)
REMARK    1  A    between atoms: N_2  and  C_4
REMARK    2  A    between atoms: C_7  and  C_8
REMARK    3  A    between atoms: C_8  and  N_9
REMARK    4  A    between atoms: N_12  and  C_13
REMARK                            x       y       z     vdW  Elec       q    Type
REMARK                         _______ _______ _______ _____ _____    ______ ____
ROOT
ATOM      1  N   UNL     1       6.567   5.855  16.290  0.00  0.00    +0.000 NA
ATOM      2  C   UNL     1       5.104   5.752  16.036  0.00  0.00    +0.000 C 
ATOM      3  C   UNL     1       4.367   4.642  16.835  0.00  0.00    +0.000 C 
ATOM      4  N   UNL     1       4.676   4.794  18.263  0.00  0.00    +0.000 N 
ATOM      5  C   UNL     1       6.109   4.859  18.590  0.00  0.00    +0.000 C 
ATOM      6  C   UNL     1       6.760   5.988  17.758  0.00  0.00    +0.000 C 
ENDROOT
BRANCH   4   7
ATOM      7  C   UNL     1       3.754   4.491  19.253  0.00  0.00    +0.000 A 
ATOM      8  C   UNL     1       3.691   3.200  19.811  0.00  0.00    +0.000 A 
ATOM      9  C   UNL     1       2.779   2.877  20.824  0.00  0.00    +0.000 A 
ATOM     10  C   UNL     1       1.903   3.839  21.313  0.00  0.00    +0.000 A 
ATOM     11  C   UNL     1       1.916   5.116  20.763  0.00  0.00    +0.000 A 
ATOM     12  C   UNL     1       2.812   5.433  19.736  0.00  0.00    +0.000 A 
ATOM     13 CL   UNL     1       2.597   6.997  19.006  0.00  0.00    +0.000 Cl
ENDBRANCH   4   7
BRANCH   1  14
ATOM     14  C   UNL     1       7.304   4.692  15.761  0.00  0.00    +0.000 C 
BRANCH  14  18
ATOM     15  C   UNL     1       6.241   3.666  12.487  0.00  0.00    +0.000 A 
ATOM     16  C   UNL     1       7.168   4.576  12.044  0.00  0.00    +0.000 A 
ATOM     17  C   UNL     1       7.724   5.142  13.211  0.00  0.00    +0.000 A 
ATOM     18  C   UNL     1       7.106   4.540  14.287  0.00  0.00    +0.000 A 
ATOM     19  O   UNL     1       6.179   3.626  13.851  0.00  0.00    +0.000 OA
BRANCH  15  21
ATOM     20  O   UNL     1       4.251   3.205  11.502  0.00  0.00    +0.000 OA
ATOM     21  N   UNL     1       5.384   2.780  11.759  0.00  0.00    +0.000 N 
ATOM     22  O   UNL     1       5.827   1.667  11.446  0.00  0.00    +0.000 OA
ENDBRANCH  15  21
ENDBRANCH  14  18
ENDBRANCH   1  14
TORSDOF 4
ENDMDL
MODEL 3
REMARK VINA RESULT:      -7.6      1.080      1.246
REMARK  Name = 
REMARK  4 active torsions:
REMARK  status: ('A' for Active; 'I' for Inactive)
REMARK    1  A    between atoms: N_2  and  C_4
REMARK    2  A    between atoms: C_7  and  C_8
REMARK    3  A    between atoms: C_8  and  N_9
REMARK    4  A    between atoms: N_12  and  C_13
REMARK                            x       y       z     vdW  Elec       q    Type
REMARK                         _______ _______ _______ _____ _____    ______ ____
ROOT
ATOM      1  N   UNL     1       6.146   5.582  16.623  0.00  0.00    +0.000 NA
ATOM      2  C   UNL     1       4.721   5.362  16.253  0.00  0.00    +0.000 C 
ATOM      3  C   UNL     1       4.040   4.139  16.926  0.00  0.00    +0.000 C 
ATOM      4  N   UNL     1       4.231   4.224  18.380  0.00  0.00    +0.000 N 
ATOM      5  C   UNL     1       5.625   4.399  18.819  0.00  0.00    +0.000 C 
ATOM      6  C   UNL     1       6.221   5.636  18.107  0.00  0.00    +0.000 C 
ENDROOT
BRANCH   4   7
ATOM      7  C   UNL     1       3.275   3.773  19.277  0.00  0.00    +0.000 A 
ATOM      8  C   UNL     1       3.644   3.022  20.409  0.00  0.00    +0.000 A 
ATOM      9  C   UNL     1       2.697   2.570  21.338  0.00  0.00    +0.000 A 
ATOM     10  C   UNL     1       1.349   2.861  21.162  0.00  0.00    +0.000 A 
ATOM     11  C   UNL     1       0.945   3.574  20.039  0.00  0.00    +0.000 A 
ATOM     12  C   UNL     1       1.889   4.006  19.100  0.00  0.00    +0.000 A 
ATOM     13 CL   UNL     1       1.239   4.715  17.651  0.00  0.00    +0.000 Cl
ENDBRANCH   4   7
BRANCH   1  14
ATOM     14  C   UNL     1       7.027   4.529  16.085  0.00  0.00    +0.000 C 
BRANCH  14  18
ATOM     15  C   UNL     1       6.228   3.677  12.689  0.00  0.00    +0.000 A 
ATOM     16  C   UNL     1       7.186   4.607  12.368  0.00  0.00    +0.000 A 
ATOM     17  C   UNL     1       7.648   5.110  13.603  0.00  0.00    +0.000 A 
ATOM     18  C   UNL     1       6.947   4.454  14.594  0.00  0.00    +0.000 A 
ATOM     19  O   UNL     1       6.059   3.566  14.039  0.00  0.00    +0.000 OA
BRANCH  15  21
ATOM     20  O   UNL     1       4.312   3.261  11.549  0.00  0.00    +0.000 OA
ATOM     21  N   UNL     1       5.433   2.832  11.849  0.00  0.00    +0.000 N 
ATOM     22  O   UNL     1       5.913   1.748  11.493  0.00  0.00    +0.000 OA
ENDBRANCH  15  21
ENDBRANCH  14  18
ENDBRANCH   1  14
TORSDOF 4
ENDMDL
MODEL 4
REMARK VINA RESULT:      -7.6      1.306      1.757
REMARK  Name = 
REMARK  4 active torsions:
REMARK  status: ('A' for Active; 'I' for Inactive)
REMARK    1  A    between atoms: N_2  and  C_4
REMARK    2  A    between atoms: C_7  and  C_8
REMARK    3  A    between atoms: C_8  and  N_9
REMARK    4  A    between atoms: N_12  and  C_13
REMARK                            x       y       z     vdW  Elec       q    Type
REMARK                         _______ _______ _______ _____ _____    ______ ____
ROOT
ATOM      1  N   UNL     1       6.335   5.029  16.615  0.00  0.00    +0.000 NA
ATOM      2  C   UNL     1       5.979   5.766  17.858  0.00  0.00    +0.000 C 
ATOM      3  C   UNL     1       4.485   5.682  18.277  0.00  0.00    +0.000 C 
ATOM      4  N   UNL     1       4.081   4.270  18.329  0.00  0.00    +0.000 N 
ATOM      5  C   UNL     1       4.365   3.492  17.113  0.00  0.00    +0.000 C 
ATOM      6  C   UNL     1       5.868   3.627  16.774  0.00  0.00    +0.000 C 
ENDROOT
BRANCH   4   7
ATOM      7  C   UNL     1       3.156   3.802  19.249  0.00  0.00    +0.000 A 
ATOM      8  C   UNL     1       3.573   3.144  20.422  0.00  0.00    +0.000 A 
ATOM      9  C   UNL     1       2.657   2.676  21.373  0.00  0.00    +0.000 A 
ATOM     10  C   UNL     1       1.292   2.857  21.180  0.00  0.00    +0.000 A 
ATOM     11  C   UNL     1       0.843   3.474  20.018  0.00  0.00    +0.000 A 
ATOM     12  C   UNL     1       1.757   3.921  19.057  0.00  0.00    +0.000 A 
ATOM     13 CL   UNL     1       1.065   4.498  17.570  0.00  0.00    +0.000 Cl
ENDBRANCH   4   7
BRANCH   1  14
ATOM     14  C   UNL     1       5.746   5.652  15.414  0.00  0.00    +0.000 C 
BRANCH  14  18
ATOM     15  C   UNL     1       5.870   3.577  12.485  0.00  0.00    +0.000 A 
ATOM     16  C   UNL     1       7.173   4.002  12.399  0.00  0.00    +0.000 A 
ATOM     17  C   UNL     1       7.352   4.881  13.488  0.00  0.00    +0.000 A 
ATOM     18  C   UNL     1       6.153   4.934  14.168  0.00  0.00    +0.000 A 
ATOM     19  O   UNL     1       5.223   4.133  13.551  0.00  0.00    +0.000 OA
BRANCH  15  21
ATOM     20  O   UNL     1       5.685   1.582  11.424  0.00  0.00    +0.000 OA
ATOM     21  N   UNL     1       5.134   2.663  11.665  0.00  0.00    +0.000 N 
ATOM     22  O   UNL     1       4.018   3.013  11.259  0.00  0.00    +0.000 OA
ENDBRANCH  15  21
ENDBRANCH  14  18
ENDBRANCH   1  14
TORSDOF 4
ENDMDL
MODEL 5
REMARK VINA RESULT:      -7.6      1.047      1.302
REMARK  Name = 
REMARK  4 active torsions:
REMARK  status: ('A' for Active; 'I' for Inactive)
REMARK    1  A    between atoms: N_2  and  C_4
REMARK    2  A    between atoms: C_7  and  C_8
REMARK    3  A    between atoms: C_8  and  N_9
REMARK    4  A    between atoms: N_12  and  C_13
REMARK                            x       y       z     vdW  Elec       q    Type
REMARK                         _______ _______ _______ _____ _____    ______ ____
ROOT
ATOM      1  N   UNL     1       6.199   5.016  16.514  0.00  0.00    +0.000 NA
ATOM      2  C   UNL     1       5.893   5.828  17.722  0.00  0.00    +0.000 C 
ATOM      3  C   UNL     1       4.411   5.794  18.189  0.00  0.00    +0.000 C 
ATOM      4  N   UNL     1       3.987   4.395  18.334  0.00  0.00    +0.000 N 
ATOM      5  C   UNL     1       4.222   3.544  17.156  0.00  0.00    +0.000 C 
ATOM      6  C   UNL     1       5.716   3.633  16.766  0.00  0.00    +0.000 C 
ENDROOT
BRANCH   4   7
ATOM      7  C   UNL     1       3.083   3.995  19.306  0.00  0.00    +0.000 A 
ATOM      8  C   UNL     1       1.877   4.695  19.503  0.00  0.00    +0.000 A 
ATOM      9  C   UNL     1       0.942   4.299  20.469  0.00  0.00    +0.000 A 
ATOM     10  C   UNL     1       1.185   3.186  21.265  0.00  0.00    +0.000 A 
ATOM     11  C   UNL     1       2.379   2.489  21.119  0.00  0.00    +0.000 A 
ATOM     12  C   UNL     1       3.323   2.898  20.171  0.00  0.00    +0.000 A 
ATOM     13 CL   UNL     1       4.849   2.065  20.220  0.00  0.00    +0.000 Cl
ENDBRANCH   4   7
BRANCH   1  14
ATOM     14  C   UNL     1       5.584   5.580  15.297  0.00  0.00    +0.000 C 
BRANCH  14  18
ATOM     15  C   UNL     1       5.854   3.488  12.390  0.00  0.00    +0.000 A 
ATOM     16  C   UNL     1       7.142   3.959  12.332  0.00  0.00    +0.000 A 
ATOM     17  C   UNL     1       7.263   4.853  13.417  0.00  0.00    +0.000 A 
ATOM     18  C   UNL     1       6.046   4.867  14.067  0.00  0.00    +0.000 A 
ATOM     19  O   UNL     1       5.162   4.028  13.436  0.00  0.00    +0.000 OA
BRANCH  15  21
ATOM     20  O   UNL     1       4.052   2.878  11.156  0.00  0.00    +0.000 OA
ATOM     21  N   UNL     1       5.171   2.540  11.562  0.00  0.00    +0.000 N 
ATOM     22  O   UNL     1       5.736   1.466  11.318  0.00  0.00    +0.000 OA
ENDBRANCH  15  21
ENDBRANCH  14  18
ENDBRANCH   1  14
TORSDOF 4
ENDMDL
MODEL 6
REMARK VINA RESULT:      -7.4      1.387      1.918
REMARK  Name = 
REMARK  4 active torsions:
REMARK  status: ('A' for Active; 'I' for Inactive)
REMARK    1  A    between atoms: N_2  and  C_4
REMARK    2  A    between atoms: C_7  and  C_8
REMARK    3  A    between atoms: C_8  and  N_9
REMARK    4  A    between atoms: N_12  and  C_13
REMARK                            x       y       z     vdW  Elec       q    Type
REMARK                         _______ _______ _______ _____ _____    ______ ____
ROOT
ATOM      1  N   UNL     1       6.828   4.289  16.435  0.00  0.00    +0.000 NA
ATOM      2  C   UNL     1       6.932   4.852  17.809  0.00  0.00    +0.000 C 
ATOM      3  C   UNL     1       5.601   5.376  18.415  0.00  0.00    +0.000 C 
ATOM      4  N   UNL     1       4.583   4.322  18.320  0.00  0.00    +0.000 N 
ATOM      5  C   UNL     1       4.398   3.750  16.976  0.00  0.00    +0.000 C 
ATOM      6  C   UNL     1       5.765   3.250  16.454  0.00  0.00    +0.000 C 
ENDROOT
BRANCH   4   7
ATOM      7  C   UNL     1       3.599   4.156  19.283  0.00  0.00    +0.000 A 
ATOM      8  C   UNL     1       3.565   3.003  20.089  0.00  0.00    +0.000 A 
ATOM      9  C   UNL     1       2.589   2.822  21.079  0.00  0.00    +0.000 A 
ATOM     10  C   UNL     1       1.620   3.795  21.294  0.00  0.00    +0.000 A 
ATOM     11  C   UNL     1       1.605   4.932  20.495  0.00  0.00    +0.000 A 
ATOM     12  C   UNL     1       2.565   5.102  19.491  0.00  0.00    +0.000 A 
ATOM     13 CL   UNL     1       2.323   6.467  18.441  0.00  0.00    +0.000 Cl
ENDBRANCH   4   7
BRANCH   1  14
ATOM     14  C   UNL     1       6.537   5.330  15.431  0.00  0.00    +0.000 C 
BRANCH  14  18
ATOM     15  C   UNL     1       6.062   3.587  12.326  0.00  0.00    +0.000 A 
ATOM     16  C   UNL     1       7.240   4.189  11.959  0.00  0.00    +0.000 A 
ATOM     17  C   UNL     1       7.620   4.974  13.068  0.00  0.00    +0.000 A 
ATOM     18  C   UNL     1       6.656   4.798  14.039  0.00  0.00    +0.000 A 
ATOM     19  O   UNL     1       5.680   3.943  13.588  0.00  0.00    +0.000 OA
BRANCH  15  21
ATOM     20  O   UNL     1       4.087   3.064  11.341  0.00  0.00    +0.000 OA
ATOM     21  N   UNL     1       5.226   2.666  11.616  0.00  0.00    +0.000 N 
ATOM     22  O   UNL     1       5.692   1.554  11.337  0.00  0.00    +0.000 OA
ENDBRANCH  15  21
ENDBRANCH  14  18
ENDBRANCH   1  14
TORSDOF 4
ENDMDL
MODEL 7
REMARK VINA RESULT:      -7.4      0.745      1.392
REMARK  Name = 
REMARK  4 active torsions:
REMARK  status: ('A' for Active; 'I' for Inactive)
REMARK    1  A    between atoms: N_2  and  C_4
REMARK    2  A    between atoms: C_7  and  C_8
REMARK    3  A    between atoms: C_8  and  N_9
REMARK    4  A    between atoms: N_12  and  C_13
REMARK                            x       y       z     vdW  Elec       q    Type
REMARK                         _______ _______ _______ _____ _____    ______ ____
ROOT
ATOM      1  N   UNL     1       6.802   4.284  16.427  0.00  0.00    +0.000 NA
ATOM      2  C   UNL     1       6.824   4.820  17.815  0.00  0.00    +0.000 C 
ATOM      3  C   UNL     1       5.477   5.404  18.324  0.00  0.00    +0.000 C 
ATOM      4  N   UNL     1       4.417   4.406  18.127  0.00  0.00    +0.000 N 
ATOM      5  C   UNL     1       4.311   3.865  16.762  0.00  0.00    +0.000 C 
ATOM      6  C   UNL     1       5.689   3.303  16.341  0.00  0.00    +0.000 C 
ENDROOT
BRANCH   4   7
ATOM      7  C   UNL     1       3.352   4.279  19.005  0.00  0.00    +0.000 A 
ATOM      8  C   UNL     1       2.853   5.395  19.703  0.00  0.00    +0.000 A 
ATOM      9  C   UNL     1       1.768   5.292  20.583  0.00  0.00    +0.000 A 
ATOM     10  C   UNL     1       1.145   4.066  20.789  0.00  0.00    +0.000 A 
ATOM     11  C   UNL     1       1.631   2.937  20.141  0.00  0.00    +0.000 A 
ATOM     12  C   UNL     1       2.730   3.035  19.279  0.00  0.00    +0.000 A 
ATOM     13 CL   UNL     1       3.358   1.527  18.684  0.00  0.00    +0.000 Cl
ENDBRANCH   4   7
BRANCH   1  14
ATOM     14  C   UNL     1       6.646   5.354  15.422  0.00  0.00    +0.000 C 
BRANCH  14  18
ATOM     15  C   UNL     1       6.105   3.611  12.329  0.00  0.00    +0.000 A 
ATOM     16  C   UNL     1       7.286   4.197  11.944  0.00  0.00    +0.000 A 
ATOM     17  C   UNL     1       7.692   4.979  13.046  0.00  0.00    +0.000 A 
ATOM     18  C   UNL     1       6.738   4.818  14.030  0.00  0.00    +0.000 A 
ATOM     19  O   UNL     1       5.746   3.975  13.595  0.00  0.00    +0.000 OA
BRANCH  15  21
ATOM     20  O   UNL     1       5.726   1.585  11.381  0.00  0.00    +0.000 OA
ATOM     21  N   UNL     1       5.248   2.699  11.633  0.00  0.00    +0.000 N 
ATOM     22  O   UNL     1       4.111   3.083  11.332  0.00  0.00    +0.000 OA
ENDBRANCH  15  21
ENDBRANCH  14  18
ENDBRANCH   1  14
TORSDOF 4
ENDMDL
MODEL 8
REMARK VINA RESULT:      -7.0      1.628      1.965
REMARK  Name = 
REMARK  4 active torsions:
REMARK  status: ('A' for Active; 'I' for Inactive)
REMARK    1  A    between atoms: N_2  and  C_4
REMARK    2  A    between atoms: C_7  and  C_8
REMARK    3  A    between atoms: C_8  and  N_9
REMARK    4  A    between atoms: N_12  and  C_13
REMARK                            x       y       z     vdW  Elec       q    Type
REMARK                         _______ _______ _______ _____ _____    ______ ____
ROOT
ATOM      1  N   UNL     1       6.535   5.859  17.651  0.00  0.00    +0.000 NA
ATOM      2  C   UNL     1       5.224   5.932  16.951  0.00  0.00    +0.000 C 
ATOM      3  C   UNL     1       4.277   4.722  17.183  0.00  0.00    +0.000 C 
ATOM      4  N   UNL     1       4.128   4.501  18.628  0.00  0.00    +0.000 N 
ATOM      5  C   UNL     1       5.389   4.376  19.376  0.00  0.00    +0.000 C 
ATOM      6  C   UNL     1       6.263   5.619  19.093  0.00  0.00    +0.000 C 
ENDROOT
BRANCH   4   7
ATOM      7  C   UNL     1       2.945   4.040  19.185  0.00  0.00    +0.000 A 
ATOM      8  C   UNL     1       2.167   4.868  20.016  0.00  0.00    +0.000 A 
ATOM      9  C   UNL     1       0.960   4.428  20.577  0.00  0.00    +0.000 A 
ATOM     10  C   UNL     1       0.493   3.145  20.318  0.00  0.00    +0.000 A 
ATOM     11  C   UNL     1       1.251   2.289  19.527  0.00  0.00    +0.000 A 
ATOM     12  C   UNL     1       2.468   2.721  18.986  0.00  0.00    +0.000 A 
ATOM     13 CL   UNL     1       3.408   1.500  18.179  0.00  0.00    +0.000 Cl
ENDBRANCH   4   7
BRANCH   1  14
ATOM     14  C   UNL     1       7.403   4.805  17.092  0.00  0.00    +0.000 C 
BRANCH  14  18
ATOM     15  C   UNL     1       7.258   4.829  13.504  0.00  0.00    +0.000 A 
ATOM     16  C   UNL     1       6.269   3.891  13.668  0.00  0.00    +0.000 A 
ATOM     17  C   UNL     1       6.161   3.702  15.063  0.00  0.00    +0.000 A 
ATOM     18  C   UNL     1       7.085   4.536  15.657  0.00  0.00    +0.000 A 
ATOM     19  O   UNL     1       7.776   5.237  14.700  0.00  0.00    +0.000 OA
BRANCH  15  21
ATOM     20  O   UNL     1       8.601   6.342  12.480  0.00  0.00    +0.000 OA
ATOM     21  N   UNL     1       7.784   5.428  12.314  0.00  0.00    +0.000 N 
ATOM     22  O   UNL     1       7.389   5.000  11.223  0.00  0.00    +0.000 OA
ENDBRANCH  15  21
ENDBRANCH  14  18
ENDBRANCH   1  14
TORSDOF 4
ENDMDL
MODEL 9
REMARK VINA RESULT:      -6.8      3.466      5.144
REMARK  Name = 
REMARK  4 active torsions:
REMARK  status: ('A' for Active; 'I' for Inactive)
REMARK    1  A    between atoms: N_2  and  C_4
REMARK    2  A    between atoms: C_7  and  C_8
REMARK    3  A    between atoms: C_8  and  N_9
REMARK    4  A    between atoms: N_12  and  C_13
REMARK                            x       y       z     vdW  Elec       q    Type
REMARK                         _______ _______ _______ _____ _____    ______ ____
ROOT
ATOM      1  N   UNL     1       2.972   4.675  18.555  0.00  0.00    +0.000 NA
ATOM      2  C   UNL     1       1.801   4.672  19.473  0.00  0.00    +0.000 C 
ATOM      3  C   UNL     1       1.810   5.776  20.567  0.00  0.00    +0.000 C 
ATOM      4  N   UNL     1       2.014   7.083  19.927  0.00  0.00    +0.000 N 
ATOM      5  C   UNL     1       3.182   7.168  19.036  0.00  0.00    +0.000 C 
ATOM      6  C   UNL     1       3.089   6.042  17.981  0.00  0.00    +0.000 C 
ENDROOT
BRANCH   4   7
ATOM      7  C   UNL     1       1.430   8.242  20.414  0.00  0.00    +0.000 A 
ATOM      8  C   UNL     1       1.143   8.385  21.785  0.00  0.00    +0.000 A 
ATOM      9  C   UNL     1       0.567   9.553  22.302  0.00  0.00    +0.000 A 
ATOM     10  C   UNL     1       0.265  10.617  21.460  0.00  0.00    +0.000 A 
ATOM     11  C   UNL     1       0.506  10.499  20.096  0.00  0.00    +0.000 A 
ATOM     12  C   UNL     1       1.060   9.323  19.577  0.00  0.00    +0.000 A 
ATOM     13 CL   UNL     1       1.132   9.228  17.842  0.00  0.00    +0.000 Cl
ENDBRANCH   4   7
BRANCH   1  14
ATOM     14  C   UNL     1       4.216   4.278  19.241  0.00  0.00    +0.000 C 
BRANCH  14  18
ATOM     15  C   UNL     1       6.644   4.772  16.641  0.00  0.00    +0.000 A 
ATOM     16  C   UNL     1       7.423   5.289  17.647  0.00  0.00    +0.000 A 
ATOM     17  C   UNL     1       6.630   5.209  18.812  0.00  0.00    +0.000 A 
ATOM     18  C   UNL     1       5.425   4.649  18.444  0.00  0.00    +0.000 A 
ATOM     19  O   UNL     1       5.419   4.378  17.098  0.00  0.00    +0.000 OA
BRANCH  15  21
ATOM     20  O   UNL     1       6.300   3.673  14.688  0.00  0.00    +0.000 OA
ATOM     21  N   UNL     1       6.927   4.579  15.251  0.00  0.00    +0.000 N 
ATOM     22  O   UNL     1       7.768   5.315  14.720  0.00  0.00    +0.000 OA
ENDBRANCH  15  21
ENDBRANCH  14  18
ENDBRANCH   1  14
TORSDOF 4
ENDMDL
