MODEL 1
REMARK VINA RESULT:      -7.3      0.000      0.000
REMARK  Name = 
REMARK  7 active torsions:
REMARK  status: ('A' for Active; 'I' for Inactive)
REMARK    1  A    between atoms: C_2  and  N_3
REMARK    2  A    between atoms: C_4  and  C_22
REMARK    3  A    between atoms: N_5  and  C_6
REMARK    4  A    between atoms: C_6  and  C_7
REMARK    5  A    between atoms: C_7  and  C_8
REMARK    6  A    between atoms: C_8  and  N_9
REMARK    7  A    between atoms: C_13  and  C_15
REMARK                            x       y       z     vdW  Elec       q    Type
REMARK                         _______ _______ _______ _____ _____    ______ ____
ROOT
ATOM      1  C   UNL     1       3.564   3.780  18.275  0.00  0.00    +0.000 C 
ENDROOT
BRANCH   1   2
ATOM      2  C   UNL     1       5.043   3.426  18.175  0.00  0.00    +0.000 C 
BRANCH   2   5
ATOM      3  N   UNL     1       7.338   5.246  17.132  0.00  0.00    +0.000 NA
ATOM      4  C   UNL     1       6.567   4.473  16.432  0.00  0.00    +0.000 C 
ATOM      5  N   UNL     1       5.553   3.615  16.833  0.00  0.00    +0.000 N 
ATOM      6  H   UNL     1       5.055   3.158  16.067  0.00  0.00    +0.000 HD
BRANCH   4   7
ATOM      7  C   UNL     1       6.817   4.514  14.927  0.00  0.00    +0.000 A 
ATOM      8  C   UNL     1       6.103   3.686  14.067  0.00  0.00    +0.000 A 
ATOM      9  C   UNL     1       6.379   3.746  12.706  0.00  0.00    +0.000 A 
ATOM     10  C   UNL     1       7.352   4.627  12.250  0.00  0.00    +0.000 A 
ATOM     11  C   UNL     1       8.012   5.421  13.179  0.00  0.00    +0.000 A 
ATOM     12  N   UNL     1       7.773   5.392  14.511  0.00  0.00    +0.000 NA
ENDBRANCH   4   7
BRANCH   3  14
ATOM     13  N   UNL     1       7.206   5.418  19.613  0.00  0.00    +0.000 NA
ATOM     14  C   UNL     1       7.249   5.335  18.458  0.00  0.00    +0.000 C 
ENDBRANCH   3  14
ENDBRANCH   2   5
ENDBRANCH   1   2
BRANCH   1  15
ATOM     15  C   UNL     1       3.271   5.141  17.628  0.00  0.00    +0.000 C 
BRANCH  15  16
ATOM     16  N   UNL     1       3.895   6.294  18.293  0.00  0.00    +0.000 NA
ATOM     17  C   UNL     1       3.716   7.586  17.589  0.00  0.00    +0.000 C 
ATOM     18  C   UNL     1       2.316   8.236  17.702  0.00  0.00    +0.000 C 
ATOM     19  N   UNL     1       1.824   8.225  19.082  0.00  0.00    +0.000 N 
ATOM     20  C   UNL     1       1.097   9.317  19.568  0.00  0.00    +0.000 C 
ATOM     21  O   UNL     1       0.789  10.248  18.820  0.00  0.00    +0.000 OA
ATOM     22  C   UNL     1       1.936   6.923  19.742  0.00  0.00    +0.000 C 
ATOM     23  C   UNL     1       3.392   6.434  19.680  0.00  0.00    +0.000 C 
BRANCH  20  24
ATOM     24  C   UNL     1       0.696   9.319  20.966  0.00  0.00    +0.000 A 
ATOM     25  C   UNL     1      -0.547   9.142  21.548  0.00  0.00    +0.000 A 
ATOM     26  C   UNL     1      -0.359   9.200  22.951  0.00  0.00    +0.000 A 
ATOM     27  C   UNL     1       0.974   9.466  23.145  0.00  0.00    +0.000 A 
ATOM     28  O   UNL     1       1.610   9.584  21.954  0.00  0.00    +0.000 OA
ENDBRANCH  20  24
ENDBRANCH  15  16
ENDBRANCH   1  15
TORSDOF 7
ENDMDL
MODEL 2
REMARK VINA RESULT:      -6.9      3.575      8.345
REMARK  Name = 
REMARK  7 active torsions:
REMARK  status: ('A' for Active; 'I' for Inactive)
REMARK    1  A    between atoms: C_2  and  N_3
REMARK    2  A    between atoms: C_4  and  C_22
REMARK    3  A    between atoms: N_5  and  C_6
REMARK    4  A    between atoms: C_6  and  C_7
REMARK    5  A    between atoms: C_7  and  C_8
REMARK    6  A    between atoms: C_8  and  N_9
REMARK    7  A    between atoms: C_13  and  C_15
REMARK                            x       y       z     vdW  Elec       q    Type
REMARK                         _______ _______ _______ _____ _____    ______ ____
ROOT
ATOM      1  C   UNL     1       4.816   3.451  19.219  0.00  0.00    +0.000 C 
ENDROOT
BRANCH   1   2
ATOM      2  C   UNL     1       4.062   4.071  20.388  0.00  0.00    +0.000 C 
BRANCH   2   5
ATOM      3  N   UNL     1       1.135   5.120  20.387  0.00  0.00    +0.000 NA
ATOM      4  C   UNL     1       2.205   5.771  20.050  0.00  0.00    +0.000 C 
ATOM      5  N   UNL     1       3.536   5.378  20.058  0.00  0.00    +0.000 N 
ATOM      6  H   UNL     1       4.186   6.071  19.685  0.00  0.00    +0.000 HD
BRANCH   4   7
ATOM      7  C   UNL     1       1.959   7.197  19.567  0.00  0.00    +0.000 A 
ATOM      8  C   UNL     1       1.374   8.140  20.408  0.00  0.00    +0.000 A 
ATOM      9  C   UNL     1       1.153   9.421  19.916  0.00  0.00    +0.000 A 
ATOM     10  C   UNL     1       1.521   9.719  18.610  0.00  0.00    +0.000 A 
ATOM     11  C   UNL     1       2.104   8.718  17.843  0.00  0.00    +0.000 A 
ATOM     12  N   UNL     1       2.336   7.460  18.284  0.00  0.00    +0.000 NA
ENDBRANCH   4   7
BRANCH   3  14
ATOM     13  N   UNL     1       1.194   2.779  21.235  0.00  0.00    +0.000 NA
ATOM     14  C   UNL     1       1.171   3.861  20.824  0.00  0.00    +0.000 C 
ENDBRANCH   3  14
ENDBRANCH   2   5
ENDBRANCH   1   2
BRANCH   1  15
ATOM     15  C   UNL     1       5.762   4.466  18.564  0.00  0.00    +0.000 C 
BRANCH  15  16
ATOM     16  N   UNL     1       5.157   5.288  17.506  0.00  0.00    +0.000 NA
ATOM     17  C   UNL     1       6.089   6.236  16.849  0.00  0.00    +0.000 C 
ATOM     18  C   UNL     1       7.091   5.621  15.844  0.00  0.00    +0.000 C 
ATOM     19  N   UNL     1       6.435   4.684  14.927  0.00  0.00    +0.000 N 
ATOM     20  C   UNL     1       6.835   4.629  13.588  0.00  0.00    +0.000 C 
ATOM     21  O   UNL     1       7.796   5.294  13.193  0.00  0.00    +0.000 OA
ATOM     22  C   UNL     1       5.577   3.704  15.596  0.00  0.00    +0.000 C 
ATOM     23  C   UNL     1       4.540   4.431  16.466  0.00  0.00    +0.000 C 
BRANCH  20  24
ATOM     24  C   UNL     1       6.108   3.755  12.682  0.00  0.00    +0.000 A 
ATOM     25  C   UNL     1       4.796   3.802  12.241  0.00  0.00    +0.000 A 
ATOM     26  C   UNL     1       4.625   2.727  11.335  0.00  0.00    +0.000 A 
ATOM     27  C   UNL     1       5.820   2.050  11.318  0.00  0.00    +0.000 A 
ATOM     28  O   UNL     1       6.706   2.636  12.160  0.00  0.00    +0.000 OA
ENDBRANCH  20  24
ENDBRANCH  15  16
ENDBRANCH   1  15
TORSDOF 7
ENDMDL
MODEL 3
REMARK VINA RESULT:      -6.8      3.462      8.513
REMARK  Name = 
REMARK  7 active torsions:
REMARK  status: ('A' for Active; 'I' for Inactive)
REMARK    1  A    between atoms: C_2  and  N_3
REMARK    2  A    between atoms: C_4  and  C_22
REMARK    3  A    between atoms: N_5  and  C_6
REMARK    4  A    between atoms: C_6  and  C_7
REMARK    5  A    between atoms: C_7  and  C_8
REMARK    6  A    between atoms: C_8  and  N_9
REMARK    7  A    between atoms: C_13  and  C_15
REMARK                            x       y       z     vdW  Elec       q    Type
REMARK                         _______ _______ _______ _____ _____    ______ ____
ROOT
ATOM      1  C   UNL     1       5.233   3.330  18.747  0.00  0.00    +0.000 C 
ENDROOT
BRANCH   1   2
ATOM      2  C   UNL     1       3.980   3.590  19.574  0.00  0.00    +0.000 C 
BRANCH   2   5
ATOM      3  N   UNL     1       1.654   5.083  20.997  0.00  0.00    +0.000 NA
ATOM      4  C   UNL     1       2.424   5.539  20.059  0.00  0.00    +0.000 C 
ATOM      5  N   UNL     1       3.495   4.944  19.407  0.00  0.00    +0.000 N 
ATOM      6  H   UNL     1       3.901   5.504  18.656  0.00  0.00    +0.000 HD
BRANCH   4   7
ATOM      7  C   UNL     1       2.100   6.957  19.599  0.00  0.00    +0.000 A 
ATOM      8  C   UNL     1       2.436   7.381  18.317  0.00  0.00    +0.000 A 
ATOM      9  C   UNL     1       2.137   8.689  17.951  0.00  0.00    +0.000 A 
ATOM     10  C   UNL     1       1.515   9.525  18.869  0.00  0.00    +0.000 A 
ATOM     11  C   UNL     1       1.210   9.016  20.126  0.00  0.00    +0.000 A 
ATOM     12  N   UNL     1       1.484   7.751  20.521  0.00  0.00    +0.000 NA
ENDBRANCH   4   7
BRANCH   3  14
ATOM     13  N   UNL     1       1.888   2.801  21.967  0.00  0.00    +0.000 NA
ATOM     14  C   UNL     1       1.796   3.861  21.509  0.00  0.00    +0.000 C 
ENDBRANCH   3  14
ENDBRANCH   2   5
ENDBRANCH   1   2
BRANCH   1  15
ATOM     15  C   UNL     1       5.813   4.637  18.189  0.00  0.00    +0.000 C 
BRANCH  15  16
ATOM     16  N   UNL     1       5.087   5.200  17.041  0.00  0.00    +0.000 NA
ATOM     17  C   UNL     1       5.797   6.292  16.334  0.00  0.00    +0.000 C 
ATOM     18  C   UNL     1       6.972   5.864  15.423  0.00  0.00    +0.000 C 
ATOM     19  N   UNL     1       6.611   4.727  14.572  0.00  0.00    +0.000 N 
ATOM     20  C   UNL     1       7.086   4.665  13.258  0.00  0.00    +0.000 C 
ATOM     21  O   UNL     1       7.878   5.512  12.837  0.00  0.00    +0.000 OA
ATOM     22  C   UNL     1       5.979   3.622  15.296  0.00  0.00    +0.000 C 
ATOM     23  C   UNL     1       4.751   4.139  16.062  0.00  0.00    +0.000 C 
BRANCH  20  24
ATOM     24  C   UNL     1       6.641   3.571  12.409  0.00  0.00    +0.000 A 
ATOM     25  C   UNL     1       7.365   2.657  11.663  0.00  0.00    +0.000 A 
ATOM     26  C   UNL     1       6.429   1.785  11.056  0.00  0.00    +0.000 A 
ATOM     27  C   UNL     1       5.187   2.249  11.416  0.00  0.00    +0.000 A 
ATOM     28  O   UNL     1       5.304   3.352  12.195  0.00  0.00    +0.000 OA
ENDBRANCH  20  24
ENDBRANCH  15  16
ENDBRANCH   1  15
TORSDOF 7
ENDMDL
MODEL 4
REMARK VINA RESULT:      -6.8      1.699      2.648
REMARK  Name = 
REMARK  7 active torsions:
REMARK  status: ('A' for Active; 'I' for Inactive)
REMARK    1  A    between atoms: C_2  and  N_3
REMARK    2  A    between atoms: C_4  and  C_22
REMARK    3  A    between atoms: N_5  and  C_6
REMARK    4  A    between atoms: C_6  and  C_7
REMARK    5  A    between atoms: C_7  and  C_8
REMARK    6  A    between atoms: C_8  and  N_9
REMARK    7  A    between atoms: C_13  and  C_15
REMARK                            x       y       z     vdW  Elec       q    Type
REMARK                         _______ _______ _______ _____ _____    ______ ____
ROOT
ATOM      1  C   UNL     1       4.131   2.823  18.859  0.00  0.00    +0.000 C 
ENDROOT
BRANCH   1   2
ATOM      2  C   UNL     1       5.131   3.936  18.574  0.00  0.00    +0.000 C 
BRANCH   2   5
ATOM      3  N   UNL     1       7.613   5.222  17.214  0.00  0.00    +0.000 NA
ATOM      4  C   UNL     1       6.642   4.586  16.637  0.00  0.00    +0.000 C 
ATOM      5  N   UNL     1       5.528   3.962  17.182  0.00  0.00    +0.000 N 
ATOM      6  H   UNL     1       4.877   3.579  16.496  0.00  0.00    +0.000 HD
BRANCH   4   7
ATOM      7  C   UNL     1       6.740   4.511  15.116  0.00  0.00    +0.000 A 
ATOM      8  C   UNL     1       5.905   3.666  14.393  0.00  0.00    +0.000 A 
ATOM      9  C   UNL     1       6.046   3.619  13.010  0.00  0.00    +0.000 A 
ATOM     10  C   UNL     1       7.007   4.412  12.399  0.00  0.00    +0.000 A 
ATOM     11  C   UNL     1       7.794   5.231  13.199  0.00  0.00    +0.000 A 
ATOM     12  N   UNL     1       7.689   5.306  14.546  0.00  0.00    +0.000 NA
ENDBRANCH   4   7
BRANCH   3  14
ATOM     13  N   UNL     1       7.714   5.553  19.680  0.00  0.00    +0.000 NA
ATOM     14  C   UNL     1       7.679   5.385  18.535  0.00  0.00    +0.000 C 
ENDBRANCH   3  14
ENDBRANCH   2   5
ENDBRANCH   1   2
BRANCH   1  15
ATOM     15  C   UNL     1       3.011   2.798  17.810  0.00  0.00    +0.000 C 
BRANCH  15  16
ATOM     16  N   UNL     1       1.720   3.332  18.265  0.00  0.00    +0.000 NA
ATOM     17  C   UNL     1       1.614   3.530  19.731  0.00  0.00    +0.000 C 
ATOM     18  C   UNL     1       2.362   4.755  20.309  0.00  0.00    +0.000 C 
ATOM     19  N   UNL     1       2.119   5.963  19.516  0.00  0.00    +0.000 N 
ATOM     20  C   UNL     1       1.982   7.198  20.157  0.00  0.00    +0.000 C 
ATOM     21  O   UNL     1       2.154   7.295  21.375  0.00  0.00    +0.000 OA
ATOM     22  C   UNL     1       2.301   5.773  18.075  0.00  0.00    +0.000 C 
ATOM     23  C   UNL     1       1.416   4.615  17.589  0.00  0.00    +0.000 C 
BRANCH  20  24
ATOM     24  C   UNL     1       1.654   8.366  19.354  0.00  0.00    +0.000 A 
ATOM     25  C   UNL     1       2.121   8.768  18.114  0.00  0.00    +0.000 A 
ATOM     26  C   UNL     1       1.436   9.962  17.782  0.00  0.00    +0.000 A 
ATOM     27  C   UNL     1       0.636  10.254  18.860  0.00  0.00    +0.000 A 
ATOM     28  O   UNL     1       0.794   9.322  19.831  0.00  0.00    +0.000 OA
ENDBRANCH  20  24
ENDBRANCH  15  16
ENDBRANCH   1  15
TORSDOF 7
ENDMDL
MODEL 5
REMARK VINA RESULT:      -6.8      3.443      8.169
REMARK  Name = 
REMARK  7 active torsions:
REMARK  status: ('A' for Active; 'I' for Inactive)
REMARK    1  A    between atoms: C_2  and  N_3
REMARK    2  A    between atoms: C_4  and  C_22
REMARK    3  A    between atoms: N_5  and  C_6
REMARK    4  A    between atoms: C_6  and  C_7
REMARK    5  A    between atoms: C_7  and  C_8
REMARK    6  A    between atoms: C_8  and  N_9
REMARK    7  A    between atoms: C_13  and  C_15
REMARK                            x       y       z     vdW  Elec       q    Type
REMARK                         _______ _______ _______ _____ _____    ______ ____
ROOT
ATOM      1  C   UNL     1       4.854   3.295  19.321  0.00  0.00    +0.000 C 
ENDROOT
BRANCH   1   2
ATOM      2  C   UNL     1       3.840   3.748  20.364  0.00  0.00    +0.000 C 
BRANCH   2   5
ATOM      3  N   UNL     1       1.335   4.684  18.779  0.00  0.00    +0.000 NA
ATOM      4  C   UNL     1       2.229   5.430  19.348  0.00  0.00    +0.000 C 
ATOM      5  N   UNL     1       3.347   5.082  20.094  0.00  0.00    +0.000 N 
ATOM      6  H   UNL     1       3.928   5.870  20.383  0.00  0.00    +0.000 HD
BRANCH   4   7
ATOM      7  C   UNL     1       2.019   6.930  19.166  0.00  0.00    +0.000 A 
ATOM      8  C   UNL     1       2.316   7.546  17.955  0.00  0.00    +0.000 A 
ATOM      9  C   UNL     1       2.126   8.919  17.845  0.00  0.00    +0.000 A 
ATOM     10  C   UNL     1       1.648   9.628  18.939  0.00  0.00    +0.000 A 
ATOM     11  C   UNL     1       1.372   8.930  20.109  0.00  0.00    +0.000 A 
ATOM     12  N   UNL     1       1.544   7.596  20.257  0.00  0.00    +0.000 NA
ENDBRANCH   4   7
BRANCH   3  14
ATOM     13  N   UNL     1       1.436   2.197  18.872  0.00  0.00    +0.000 NA
ATOM     14  C   UNL     1       1.371   3.353  18.834  0.00  0.00    +0.000 C 
ENDBRANCH   3  14
ENDBRANCH   2   5
ENDBRANCH   1   2
BRANCH   1  15
ATOM     15  C   UNL     1       5.736   4.463  18.857  0.00  0.00    +0.000 C 
BRANCH  15  16
ATOM     16  N   UNL     1       5.153   5.303  17.801  0.00  0.00    +0.000 NA
ATOM     17  C   UNL     1       6.089   6.285  17.204  0.00  0.00    +0.000 C 
ATOM     18  C   UNL     1       7.137   5.716  16.218  0.00  0.00    +0.000 C 
ATOM     19  N   UNL     1       6.530   4.794  15.254  0.00  0.00    +0.000 N 
ATOM     20  C   UNL     1       6.978   4.783  13.929  0.00  0.00    +0.000 C 
ATOM     21  O   UNL     1       7.939   5.476  13.586  0.00  0.00    +0.000 OA
ATOM     22  C   UNL     1       5.668   3.781  15.865  0.00  0.00    +0.000 C 
ATOM     23  C   UNL     1       4.588   4.464  16.717  0.00  0.00    +0.000 C 
BRANCH  20  24
ATOM     24  C   UNL     1       6.299   3.922  12.974  0.00  0.00    +0.000 A 
ATOM     25  C   UNL     1       4.963   3.841  12.622  0.00  0.00    +0.000 A 
ATOM     26  C   UNL     1       4.859   2.855  11.611  0.00  0.00    +0.000 A 
ATOM     27  C   UNL     1       6.125   2.349  11.443  0.00  0.00    +0.000 A 
ATOM     28  O   UNL     1       6.992   2.954  12.292  0.00  0.00    +0.000 OA
ENDBRANCH  20  24
ENDBRANCH  15  16
ENDBRANCH   1  15
TORSDOF 7
ENDMDL
MODEL 6
REMARK VINA RESULT:      -6.6      1.159      1.311
REMARK  Name = 
REMARK  7 active torsions:
REMARK  status: ('A' for Active; 'I' for Inactive)
REMARK    1  A    between atoms: C_2  and  N_3
REMARK    2  A    between atoms: C_4  and  C_22
REMARK    3  A    between atoms: N_5  and  C_6
REMARK    4  A    between atoms: C_6  and  C_7
REMARK    5  A    between atoms: C_7  and  C_8
REMARK    6  A    between atoms: C_8  and  N_9
REMARK    7  A    between atoms: C_13  and  C_15
REMARK                            x       y       z     vdW  Elec       q    Type
REMARK                         _______ _______ _______ _____ _____    ______ ____
ROOT
ATOM      1  C   UNL     1       3.272   3.999  17.664  0.00  0.00    +0.000 C 
ENDROOT
BRANCH   1   2
ATOM      2  C   UNL     1       4.743   3.603  17.633  0.00  0.00    +0.000 C 
BRANCH   2   5
ATOM      3  N   UNL     1       7.440   4.863  16.737  0.00  0.00    +0.000 NA
ATOM      4  C   UNL     1       6.518   4.357  15.979  0.00  0.00    +0.000 C 
ATOM      5  N   UNL     1       5.313   3.753  16.311  0.00  0.00    +0.000 N 
ATOM      6  H   UNL     1       4.735   3.488  15.512  0.00  0.00    +0.000 HD
BRANCH   4   7
ATOM      7  C   UNL     1       6.804   4.441  14.482  0.00  0.00    +0.000 A 
ATOM      8  C   UNL     1       6.170   3.581  13.591  0.00  0.00    +0.000 A 
ATOM      9  C   UNL     1       6.478   3.683  12.239  0.00  0.00    +0.000 A 
ATOM     10  C   UNL     1       7.401   4.634  11.823  0.00  0.00    +0.000 A 
ATOM     11  C   UNL     1       7.981   5.455  12.782  0.00  0.00    +0.000 A 
ATOM     12  N   UNL     1       7.709   5.387  14.106  0.00  0.00    +0.000 NA
ENDBRANCH   4   7
BRANCH   3  14
ATOM     13  N   UNL     1       7.275   4.923  19.222  0.00  0.00    +0.000 NA
ATOM     14  C   UNL     1       7.346   4.878  18.066  0.00  0.00    +0.000 C 
ENDBRANCH   3  14
ENDBRANCH   2   5
ENDBRANCH   1   2
BRANCH   1  15
ATOM     15  C   UNL     1       2.838   4.422  19.075  0.00  0.00    +0.000 C 
BRANCH  15  16
ATOM     16  N   UNL     1       3.514   5.616  19.601  0.00  0.00    +0.000 NA
ATOM     17  C   UNL     1       4.079   6.516  18.566  0.00  0.00    +0.000 C 
ATOM     18  C   UNL     1       3.062   7.390  17.795  0.00  0.00    +0.000 C 
ATOM     19  N   UNL     1       2.105   8.034  18.699  0.00  0.00    +0.000 N 
ATOM     20  C   UNL     1       1.673   9.338  18.437  0.00  0.00    +0.000 C 
ATOM     21  O   UNL     1       2.020   9.919  17.405  0.00  0.00    +0.000 OA
ATOM     22  C   UNL     1       1.496   7.119  19.667  0.00  0.00    +0.000 C 
ATOM     23  C   UNL     1       2.597   6.400  20.463  0.00  0.00    +0.000 C 
BRANCH  20  24
ATOM     24  C   UNL     1       0.792   9.984  19.397  0.00  0.00    +0.000 A 
ATOM     25  C   UNL     1      -0.544  10.336  19.300  0.00  0.00    +0.000 A 
ATOM     26  C   UNL     1      -0.913  10.902  20.545  0.00  0.00    +0.000 A 
ATOM     27  C   UNL     1       0.228  10.919  21.309  0.00  0.00    +0.000 A 
ATOM     28  O   UNL     1       1.271  10.408  20.610  0.00  0.00    +0.000 OA
ENDBRANCH  20  24
ENDBRANCH  15  16
ENDBRANCH   1  15
TORSDOF 7
ENDMDL
MODEL 7
REMARK VINA RESULT:      -6.6      3.619      8.651
REMARK  Name = 
REMARK  7 active torsions:
REMARK  status: ('A' for Active; 'I' for Inactive)
REMARK    1  A    between atoms: C_2  and  N_3
REMARK    2  A    between atoms: C_4  and  C_22
REMARK    3  A    between atoms: N_5  and  C_6
REMARK    4  A    between atoms: C_6  and  C_7
REMARK    5  A    between atoms: C_7  and  C_8
REMARK    6  A    between atoms: C_8  and  N_9
REMARK    7  A    between atoms: C_13  and  C_15
REMARK                            x       y       z     vdW  Elec       q    Type
REMARK                         _______ _______ _______ _____ _____    ______ ____
ROOT
ATOM      1  C   UNL     1       5.874   4.889  19.509  0.00  0.00    +0.000 C 
ENDROOT
BRANCH   1   2
ATOM      2  C   UNL     1       4.366   4.764  19.683  0.00  0.00    +0.000 C 
BRANCH   2   5
ATOM      3  N   UNL     1       1.569   5.723  20.644  0.00  0.00    +0.000 NA
ATOM      4  C   UNL     1       2.423   6.383  19.924  0.00  0.00    +0.000 C 
ATOM      5  N   UNL     1       3.693   6.030  19.490  0.00  0.00    +0.000 N 
ATOM      6  H   UNL     1       4.139   6.716  18.879  0.00  0.00    +0.000 HD
BRANCH   4   7
ATOM      7  C   UNL     1       1.954   7.766  19.484  0.00  0.00    +0.000 A 
ATOM      8  C   UNL     1       2.253   8.245  18.213  0.00  0.00    +0.000 A 
ATOM      9  C   UNL     1       1.820   9.520  17.865  0.00  0.00    +0.000 A 
ATOM     10  C   UNL     1       1.106  10.270  18.790  0.00  0.00    +0.000 A 
ATOM     11  C   UNL     1       0.847   9.710  20.035  0.00  0.00    +0.000 A 
ATOM     12  N   UNL     1       1.251   8.474  20.413  0.00  0.00    +0.000 NA
ENDBRANCH   4   7
BRANCH   3  14
ATOM     13  N   UNL     1       2.005   3.422  21.492  0.00  0.00    +0.000 NA
ATOM     14  C   UNL     1       1.817   4.498  21.106  0.00  0.00    +0.000 C 
ENDBRANCH   3  14
ENDBRANCH   2   5
ENDBRANCH   1   2
BRANCH   1  15
ATOM     15  C   UNL     1       6.299   4.553  18.073  0.00  0.00    +0.000 C 
BRANCH  15  16
ATOM     16  N   UNL     1       5.534   5.237  17.020  0.00  0.00    +0.000 NA
ATOM     17  C   UNL     1       6.317   6.207  16.217  0.00  0.00    +0.000 C 
ATOM     18  C   UNL     1       7.281   5.602  15.169  0.00  0.00    +0.000 C 
ATOM     19  N   UNL     1       6.635   4.547  14.383  0.00  0.00    +0.000 N 
ATOM     20  C   UNL     1       6.923   4.422  13.020  0.00  0.00    +0.000 C 
ATOM     21  O   UNL     1       7.782   5.133  12.493  0.00  0.00    +0.000 OA
ATOM     22  C   UNL     1       5.929   3.552  15.193  0.00  0.00    +0.000 C 
ATOM     23  C   UNL     1       4.909   4.255  16.103  0.00  0.00    +0.000 C 
BRANCH  20  24
ATOM     24  C   UNL     1       6.202   3.423  12.246  0.00  0.00    +0.000 A 
ATOM     25  C   UNL     1       4.869   3.357  11.878  0.00  0.00    +0.000 A 
ATOM     26  C   UNL     1       4.714   2.188  11.094  0.00  0.00    +0.000 A 
ATOM     27  C   UNL     1       5.944   1.577  11.076  0.00  0.00    +0.000 A 
ATOM     28  O   UNL     1       6.837   2.291  11.805  0.00  0.00    +0.000 OA
ENDBRANCH  20  24
ENDBRANCH  15  16
ENDBRANCH   1  15
TORSDOF 7
ENDMDL
MODEL 8
REMARK VINA RESULT:      -6.6      1.474      2.239
REMARK  Name = 
REMARK  7 active torsions:
REMARK  status: ('A' for Active; 'I' for Inactive)
REMARK    1  A    between atoms: C_2  and  N_3
REMARK    2  A    between atoms: C_4  and  C_22
REMARK    3  A    between atoms: N_5  and  C_6
REMARK    4  A    between atoms: C_6  and  C_7
REMARK    5  A    between atoms: C_7  and  C_8
REMARK    6  A    between atoms: C_8  and  N_9
REMARK    7  A    between atoms: C_13  and  C_15
REMARK                            x       y       z     vdW  Elec       q    Type
REMARK                         _______ _______ _______ _____ _____    ______ ____
ROOT
ATOM      1  C   UNL     1       4.845   4.283  18.875  0.00  0.00    +0.000 C 
ENDROOT
BRANCH   1   2
ATOM      2  C   UNL     1       6.292   4.399  18.415  0.00  0.00    +0.000 C 
BRANCH   2   5
ATOM      3  N   UNL     1       7.526   6.324  16.308  0.00  0.00    +0.000 NA
ATOM      4  C   UNL     1       6.953   5.182  16.089  0.00  0.00    +0.000 C 
ATOM      5  N   UNL     1       6.414   4.263  16.979  0.00  0.00    +0.000 N 
ATOM      6  H   UNL     1       5.964   3.458  16.539  0.00  0.00    +0.000 HD
BRANCH   4   7
ATOM      7  C   UNL     1       6.856   4.786  14.619  0.00  0.00    +0.000 A 
ATOM      8  C   UNL     1       5.951   3.814  14.204  0.00  0.00    +0.000 A 
ATOM      9  C   UNL     1       5.914   3.474  12.857  0.00  0.00    +0.000 A 
ATOM     10  C   UNL     1       6.773   4.113  11.972  0.00  0.00    +0.000 A 
ATOM     11  C   UNL     1       7.640   5.076  12.472  0.00  0.00    +0.000 A 
ATOM     12  N   UNL     1       7.708   5.435  13.775  0.00  0.00    +0.000 NA
ENDBRANCH   4   7
BRANCH   3  14
ATOM     13  N   UNL     1       7.796   7.243  18.607  0.00  0.00    +0.000 NA
ATOM     14  C   UNL     1       7.687   6.822  17.533  0.00  0.00    +0.000 C 
ENDBRANCH   3  14
ENDBRANCH   2   5
ENDBRANCH   1   2
BRANCH   1  15
ATOM     15  C   UNL     1       4.190   5.665  19.011  0.00  0.00    +0.000 C 
BRANCH  15  16
ATOM     16  N   UNL     1       2.748   5.701  18.728  0.00  0.00    +0.000 NA
ATOM     17  C   UNL     1       1.880   5.474  19.908  0.00  0.00    +0.000 C 
ATOM     18  C   UNL     1       1.750   6.657  20.897  0.00  0.00    +0.000 C 
ATOM     19  N   UNL     1       1.503   7.922  20.199  0.00  0.00    +0.000 N 
ATOM     20  C   UNL     1       0.635   8.865  20.758  0.00  0.00    +0.000 C 
ATOM     21  O   UNL     1       0.145   8.681  21.876  0.00  0.00    +0.000 OA
ATOM     22  C   UNL     1       2.418   8.170  19.083  0.00  0.00    +0.000 C 
ATOM     23  C   UNL     1       2.370   6.989  18.101  0.00  0.00    +0.000 C 
BRANCH  20  24
ATOM     24  C   UNL     1       0.341  10.072  20.003  0.00  0.00    +0.000 A 
ATOM     25  C   UNL     1      -0.093  10.237  18.699  0.00  0.00    +0.000 A 
ATOM     26  C   UNL     1      -0.257  11.628  18.491  0.00  0.00    +0.000 A 
ATOM     27  C   UNL     1       0.139  12.237  19.656  0.00  0.00    +0.000 A 
ATOM     28  O   UNL     1       0.544  11.310  20.559  0.00  0.00    +0.000 OA
ENDBRANCH  20  24
ENDBRANCH  15  16
ENDBRANCH   1  15
TORSDOF 7
ENDMDL
MODEL 9
REMARK VINA RESULT:      -6.6      3.427      6.143
REMARK  Name = 
REMARK  7 active torsions:
REMARK  status: ('A' for Active; 'I' for Inactive)
REMARK    1  A    between atoms: C_2  and  N_3
REMARK    2  A    between atoms: C_4  and  C_22
REMARK    3  A    between atoms: N_5  and  C_6
REMARK    4  A    between atoms: C_6  and  C_7
REMARK    5  A    between atoms: C_7  and  C_8
REMARK    6  A    between atoms: C_8  and  N_9
REMARK    7  A    between atoms: C_13  and  C_15
REMARK                            x       y       z     vdW  Elec       q    Type
REMARK                         _______ _______ _______ _____ _____    ______ ____
ROOT
ATOM      1  C   UNL     1       1.450   9.159  17.952  0.00  0.00    +0.000 C 
ENDROOT
BRANCH   1   2
ATOM      2  C   UNL     1       2.652   8.223  17.952  0.00  0.00    +0.000 C 
BRANCH   2   5
ATOM      3  N   UNL     1       3.958   5.413  17.701  0.00  0.00    +0.000 NA
ATOM      4  C   UNL     1       2.987   5.762  18.486  0.00  0.00    +0.000 C 
ATOM      5  N   UNL     1       2.382   6.997  18.672  0.00  0.00    +0.000 N 
ATOM      6  H   UNL     1       1.589   6.990  19.316  0.00  0.00    +0.000 HD
BRANCH   4   7
ATOM      7  C   UNL     1       2.419   4.633  19.341  0.00  0.00    +0.000 A 
ATOM      8  C   UNL     1       2.409   4.731  20.728  0.00  0.00    +0.000 A 
ATOM      9  C   UNL     1       1.898   3.667  21.465  0.00  0.00    +0.000 A 
ATOM     10  C   UNL     1       1.416   2.549  20.797  0.00  0.00    +0.000 A 
ATOM     11  C   UNL     1       1.460   2.539  19.408  0.00  0.00    +0.000 A 
ATOM     12  N   UNL     1       1.949   3.552  18.655  0.00  0.00    +0.000 NA
ENDBRANCH   4   7
BRANCH   3  14
ATOM     13  N   UNL     1       5.106   6.997  16.160  0.00  0.00    +0.000 NA
ATOM     14  C   UNL     1       4.563   6.274  16.883  0.00  0.00    +0.000 C 
ENDBRANCH   3  14
ENDBRANCH   2   5
ENDBRANCH   1   2
BRANCH   1  15
ATOM     15  C   UNL     1       1.134   9.660  19.367  0.00  0.00    +0.000 C 
BRANCH  15  16
ATOM     16  N   UNL     1       1.050  11.121  19.506  0.00  0.00    +0.000 NA
ATOM     17  C   UNL     1       0.094  11.777  18.582  0.00  0.00    +0.000 C 
ATOM     18  C   UNL     1      -1.406  11.625  18.932  0.00  0.00    +0.000 C 
ATOM     19  N   UNL     1      -1.661  11.885  20.352  0.00  0.00    +0.000 N 
ATOM     20  C   UNL     1      -2.827  12.554  20.736  0.00  0.00    +0.000 C 
ATOM     21  O   UNL     1      -3.686  12.847  19.900  0.00  0.00    +0.000 OA
ATOM     22  C   UNL     1      -0.758  11.170  21.256  0.00  0.00    +0.000 C 
ATOM     23  C   UNL     1       0.700  11.496  20.897  0.00  0.00    +0.000 C 
BRANCH  20  24
ATOM     24  C   UNL     1      -3.013  12.876  22.142  0.00  0.00    +0.000 A 
ATOM     25  C   UNL     1      -2.441  13.866  22.923  0.00  0.00    +0.000 A 
ATOM     26  C   UNL     1      -3.008  13.750  24.216  0.00  0.00    +0.000 A 
ATOM     27  C   UNL     1      -3.847  12.664  24.168  0.00  0.00    +0.000 A 
ATOM     28  O   UNL     1      -3.823  12.104  22.934  0.00  0.00    +0.000 OA
ENDBRANCH  20  24
ENDBRANCH  15  16
ENDBRANCH   1  15
TORSDOF 7
ENDMDL
