MODEL 1
REMARK VINA RESULT:      -7.5      0.000      0.000
REMARK  Name = 
REMARK  12 active torsions:
REMARK  status: ('A' for Active; 'I' for Inactive)
REMARK    1  A    between atoms: C_1  and  C_2
REMARK    2  A    between atoms: C_6  and  O_7
REMARK    3  A    between atoms: O_7  and  C_8
REMARK    4  A    between atoms: C_8  and  C_9
REMARK    5  A    between atoms: C_12  and  S_13
REMARK    6  A    between atoms: S_13  and  C_14
REMARK    7  A    between atoms: C_14  and  C_15
REMARK    8  A    between atoms: N_17  and  C_18
REMARK    9  A    between atoms: C_20  and  C_21
REMARK   10  A    between atoms: C_22  and  C_23
REMARK   11  A    between atoms: C_24  and  C_25
REMARK   12  A    between atoms: N_27  and  C_28
REMARK                            x       y       z     vdW  Elec       q    Type
REMARK                         _______ _______ _______ _____ _____    ______ ____
ROOT
ATOM      1  C   UNL     1       5.833   4.868  16.554  0.00  0.00    +0.000 A 
ATOM      2  N   UNL     1       7.127   4.834  16.294  0.00  0.00    +0.000 NA
ATOM      3  N   UNL     1       7.665   6.074  16.580  0.00  0.00    +0.000 NA
ATOM      4  C   UNL     1       6.704   6.829  17.052  0.00  0.00    +0.000 A 
ATOM      5  N   UNL     1       5.526   6.132  17.022  0.00  0.00    +0.000 N 
ATOM      6  C   UNL     1       4.189   6.568  17.335  0.00  0.00    +0.000 C 
ENDROOT
BRANCH   1   7
ATOM      7  C   UNL     1       4.851   3.741  16.456  0.00  0.00    +0.000 C 
BRANCH   7   8
ATOM      8  O   UNL     1       4.783   3.079  17.722  0.00  0.00    +0.000 OA
BRANCH   8  14
ATOM      9  C   UNL     1       1.895   2.790  21.778  0.00  0.00    +0.000 C 
ATOM     10  C   UNL     1       2.084   3.043  20.310  0.00  0.00    +0.000 A 
ATOM     11  C   UNL     1       1.002   3.385  19.494  0.00  0.00    +0.000 A 
ATOM     12  C   UNL     1       1.200   3.607  18.131  0.00  0.00    +0.000 A 
ATOM     13  C   UNL     1       2.478   3.490  17.577  0.00  0.00    +0.000 A 
ATOM     14  C   UNL     1       3.574   3.152  18.376  0.00  0.00    +0.000 A 
ATOM     15  C   UNL     1       3.366   2.926  19.741  0.00  0.00    +0.000 A 
ENDBRANCH   8  14
ENDBRANCH   7   8
ENDBRANCH   1   7
BRANCH   4  16
ATOM     16  S   UNL     1       6.853   8.487  17.533  0.00  0.00    +0.000 S 
BRANCH  16  17
ATOM     17  C   UNL     1       8.515   8.632  18.281  0.00  0.00    +0.000 C 
BRANCH  17  18
ATOM     18  C   UNL     1       8.893  10.071  18.575  0.00  0.00    +0.000 C 
ATOM     19  O   UNL     1       8.580  10.989  17.815  0.00  0.00    +0.000 OA
ATOM     20  N   UNL     1       9.597  10.248  19.764  0.00  0.00    +0.000 N 
ATOM     21  H   UNL     1      10.105   9.469  20.139  0.00  0.00    +0.000 HD
BRANCH  20  22
ATOM     22  C   UNL     1      10.063  11.508  20.078  0.00  0.00    +0.000 A 
ATOM     23  S   UNL     1      11.434  12.056  19.254  0.00  0.00    +0.000 S 
ATOM     24  C   UNL     1      11.354  13.590  20.025  0.00  0.00    +0.000 A 
ATOM     25  C   UNL     1      12.296  14.694  19.661  0.00  0.00    +0.000 C 
ATOM     26  C   UNL     1      10.370  13.623  21.007  0.00  0.00    +0.000 A 
ATOM     27  C   UNL     1      10.106  14.753  21.941  0.00  0.00    +0.000 C 
ATOM     28  C   UNL     1       9.619  12.392  21.021  0.00  0.00    +0.000 A 
BRANCH  28  29
ATOM     29  C   UNL     1       8.630  12.079  21.977  0.00  0.00    +0.000 C 
ATOM     30  N   UNL     1       7.885  11.783  22.817  0.00  0.00    +0.000 NA
ENDBRANCH  28  29
ENDBRANCH  20  22
ENDBRANCH  17  18
ENDBRANCH  16  17
ENDBRANCH   4  16
TORSDOF 8
ENDMDL
MODEL 2
REMARK VINA RESULT:      -7.5      6.290      8.119
REMARK  Name = 
REMARK  12 active torsions:
REMARK  status: ('A' for Active; 'I' for Inactive)
REMARK    1  A    between atoms: C_1  and  C_2
REMARK    2  A    between atoms: C_6  and  O_7
REMARK    3  A    between atoms: O_7  and  C_8
REMARK    4  A    between atoms: C_8  and  C_9
REMARK    5  A    between atoms: C_12  and  S_13
REMARK    6  A    between atoms: S_13  and  C_14
REMARK    7  A    between atoms: C_14  and  C_15
REMARK    8  A    between atoms: N_17  and  C_18
REMARK    9  A    between atoms: C_20  and  C_21
REMARK   10  A    between atoms: C_22  and  C_23
REMARK   11  A    between atoms: C_24  and  C_25
REMARK   12  A    between atoms: N_27  and  C_28
REMARK                            x       y       z     vdW  Elec       q    Type
REMARK                         _______ _______ _______ _____ _____    ______ ____
ROOT
ATOM      1  C   UNL     1       5.965   4.349  18.102  0.00  0.00    +0.000 A 
ATOM      2  N   UNL     1       6.168   4.853  19.306  0.00  0.00    +0.000 NA
ATOM      3  N   UNL     1       5.208   4.345  20.161  0.00  0.00    +0.000 NA
ATOM      4  C   UNL     1       4.466   3.507  19.480  0.00  0.00    +0.000 A 
ATOM      5  N   UNL     1       4.876   3.500  18.174  0.00  0.00    +0.000 N 
ATOM      6  C   UNL     1       4.308   2.828  17.033  0.00  0.00    +0.000 C 
ENDROOT
BRANCH   1   7
ATOM      7  C   UNL     1       6.791   4.564  16.871  0.00  0.00    +0.000 C 
BRANCH   7   8
ATOM      8  O   UNL     1       5.947   5.071  15.834  0.00  0.00    +0.000 OA
BRANCH   8  14
ATOM      9  C   UNL     1       5.325   2.514  11.597  0.00  0.00    +0.000 C 
ATOM     10  C   UNL     1       6.062   3.521  12.433  0.00  0.00    +0.000 A 
ATOM     11  C   UNL     1       7.183   4.188  11.933  0.00  0.00    +0.000 A 
ATOM     12  C   UNL     1       7.858   5.113  12.731  0.00  0.00    +0.000 A 
ATOM     13  C   UNL     1       7.415   5.376  14.030  0.00  0.00    +0.000 A 
ATOM     14  C   UNL     1       6.295   4.721  14.549  0.00  0.00    +0.000 A 
ATOM     15  C   UNL     1       5.627   3.792  13.743  0.00  0.00    +0.000 A 
ENDBRANCH   8  14
ENDBRANCH   7   8
ENDBRANCH   1   7
BRANCH   4  16
ATOM     16  S   UNL     1       3.104   2.625  20.088  0.00  0.00    +0.000 S 
BRANCH  16  17
ATOM     17  C   UNL     1       2.327   3.719  21.330  0.00  0.00    +0.000 C 
BRANCH  17  18
ATOM     18  C   UNL     1       1.691   4.944  20.704  0.00  0.00    +0.000 C 
ATOM     19  O   UNL     1       0.727   4.853  19.942  0.00  0.00    +0.000 OA
ATOM     20  N   UNL     1       2.279   6.150  21.078  0.00  0.00    +0.000 N 
ATOM     21  H   UNL     1       3.229   6.139  21.399  0.00  0.00    +0.000 HD
BRANCH  20  22
ATOM     22  C   UNL     1       1.830   7.316  20.495  0.00  0.00    +0.000 A 
ATOM     23  S   UNL     1       0.659   8.203  21.333  0.00  0.00    +0.000 S 
ATOM     24  C   UNL     1       0.678   9.452  20.154  0.00  0.00    +0.000 A 
ATOM     25  C   UNL     1      -0.126  10.702  20.331  0.00  0.00    +0.000 C 
ATOM     26  C   UNL     1       1.469   9.118  19.060  0.00  0.00    +0.000 A 
ATOM     27  C   UNL     1       1.619   9.918  17.813  0.00  0.00    +0.000 C 
ATOM     28  C   UNL     1       2.142   7.861  19.280  0.00  0.00    +0.000 A 
BRANCH  28  29
ATOM     29  C   UNL     1       2.925   7.203  18.310  0.00  0.00    +0.000 C 
ATOM     30  N   UNL     1       3.515   6.702  17.444  0.00  0.00    +0.000 NA
ENDBRANCH  28  29
ENDBRANCH  20  22
ENDBRANCH  17  18
ENDBRANCH  16  17
ENDBRANCH   4  16
TORSDOF 8
ENDMDL
MODEL 3
REMARK VINA RESULT:      -7.3      3.211      8.950
REMARK  Name = 
REMARK  12 active torsions:
REMARK  status: ('A' for Active; 'I' for Inactive)
REMARK    1  A    between atoms: C_1  and  C_2
REMARK    2  A    between atoms: C_6  and  O_7
REMARK    3  A    between atoms: O_7  and  C_8
REMARK    4  A    between atoms: C_8  and  C_9
REMARK    5  A    between atoms: C_12  and  S_13
REMARK    6  A    between atoms: S_13  and  C_14
REMARK    7  A    between atoms: C_14  and  C_15
REMARK    8  A    between atoms: N_17  and  C_18
REMARK    9  A    between atoms: C_20  and  C_21
REMARK   10  A    between atoms: C_22  and  C_23
REMARK   11  A    between atoms: C_24  and  C_25
REMARK   12  A    between atoms: N_27  and  C_28
REMARK                            x       y       z     vdW  Elec       q    Type
REMARK                         _______ _______ _______ _____ _____    ______ ____
ROOT
ATOM      1  C   UNL     1       7.417   7.376  17.558  0.00  0.00    +0.000 A 
ATOM      2  N   UNL     1       6.595   7.804  16.618  0.00  0.00    +0.000 NA
ATOM      3  N   UNL     1       5.956   6.711  16.063  0.00  0.00    +0.000 NA
ATOM      4  C   UNL     1       6.363   5.642  16.701  0.00  0.00    +0.000 A 
ATOM      5  N   UNL     1       7.308   5.999  17.625  0.00  0.00    +0.000 N 
ATOM      6  C   UNL     1       8.116   5.172  18.484  0.00  0.00    +0.000 C 
ENDROOT
BRANCH   1   7
ATOM      7  C   UNL     1       8.271   8.202  18.471  0.00  0.00    +0.000 C 
BRANCH   7   8
ATOM      8  O   UNL     1       8.191   9.571  18.062  0.00  0.00    +0.000 OA
BRANCH   8  14
ATOM      9  C   UNL     1      11.965  12.786  17.523  0.00  0.00    +0.000 C 
ATOM     10  C   UNL     1      11.022  11.991  18.380  0.00  0.00    +0.000 A 
ATOM     11  C   UNL     1      11.088  12.060  19.775  0.00  0.00    +0.000 A 
ATOM     12  C   UNL     1      10.208  11.306  20.552  0.00  0.00    +0.000 A 
ATOM     13  C   UNL     1       9.257  10.483  19.941  0.00  0.00    +0.000 A 
ATOM     14  C   UNL     1       9.173  10.403  18.548  0.00  0.00    +0.000 A 
ATOM     15  C   UNL     1      10.063  11.159  17.776  0.00  0.00    +0.000 A 
ENDBRANCH   8  14
ENDBRANCH   7   8
ENDBRANCH   1   7
BRANCH   4  16
ATOM     16  S   UNL     1       5.883   4.010  16.366  0.00  0.00    +0.000 S 
BRANCH  16  17
ATOM     17  C   UNL     1       4.517   3.654  17.528  0.00  0.00    +0.000 C 
BRANCH  17  18
ATOM     18  C   UNL     1       4.106   4.874  18.328  0.00  0.00    +0.000 C 
ATOM     19  O   UNL     1       4.744   5.245  19.314  0.00  0.00    +0.000 OA
ATOM     20  N   UNL     1       2.974   5.525  17.841  0.00  0.00    +0.000 N 
ATOM     21  H   UNL     1       2.327   5.002  17.282  0.00  0.00    +0.000 HD
BRANCH  20  22
ATOM     22  C   UNL     1       2.468   6.594  18.550  0.00  0.00    +0.000 A 
ATOM     23  S   UNL     1       2.546   8.117  17.818  0.00  0.00    +0.000 S 
ATOM     24  C   UNL     1       1.707   8.851  19.126  0.00  0.00    +0.000 A 
ATOM     25  C   UNL     1       1.321  10.296  19.089  0.00  0.00    +0.000 C 
ATOM     26  C   UNL     1       1.499   7.959  20.172  0.00  0.00    +0.000 A 
ATOM     27  C   UNL     1       0.907   8.291  21.498  0.00  0.00    +0.000 C 
ATOM     28  C   UNL     1       1.950   6.636  19.814  0.00  0.00    +0.000 A 
BRANCH  28  29
ATOM     29  C   UNL     1       1.976   5.542  20.703  0.00  0.00    +0.000 C 
ATOM     30  N   UNL     1       1.985   4.584  21.359  0.00  0.00    +0.000 NA
ENDBRANCH  28  29
ENDBRANCH  20  22
ENDBRANCH  17  18
ENDBRANCH  16  17
ENDBRANCH   4  16
TORSDOF 8
ENDMDL
MODEL 4
REMARK VINA RESULT:      -7.1      6.272      8.548
REMARK  Name = 
REMARK  12 active torsions:
REMARK  status: ('A' for Active; 'I' for Inactive)
REMARK    1  A    between atoms: C_1  and  C_2
REMARK    2  A    between atoms: C_6  and  O_7
REMARK    3  A    between atoms: O_7  and  C_8
REMARK    4  A    between atoms: C_8  and  C_9
REMARK    5  A    between atoms: C_12  and  S_13
REMARK    6  A    between atoms: S_13  and  C_14
REMARK    7  A    between atoms: C_14  and  C_15
REMARK    8  A    between atoms: N_17  and  C_18
REMARK    9  A    between atoms: C_20  and  C_21
REMARK   10  A    between atoms: C_22  and  C_23
REMARK   11  A    between atoms: C_24  and  C_25
REMARK   12  A    between atoms: N_27  and  C_28
REMARK                            x       y       z     vdW  Elec       q    Type
REMARK                         _______ _______ _______ _____ _____    ______ ____
ROOT
ATOM      1  C   UNL     1       4.222   5.443  17.007  0.00  0.00    +0.000 A 
ATOM      2  N   UNL     1       4.797   6.604  16.756  0.00  0.00    +0.000 NA
ATOM      3  N   UNL     1       4.117   7.589  17.448  0.00  0.00    +0.000 NA
ATOM      4  C   UNL     1       3.170   7.010  18.144  0.00  0.00    +0.000 A 
ATOM      5  N   UNL     1       3.168   5.668  17.875  0.00  0.00    +0.000 N 
ATOM      6  C   UNL     1       2.257   4.641  18.311  0.00  0.00    +0.000 C 
ENDROOT
BRANCH   1   7
ATOM      7  C   UNL     1       4.649   4.089  16.529  0.00  0.00    +0.000 C 
BRANCH   7   8
ATOM      8  O   UNL     1       6.027   4.150  16.150  0.00  0.00    +0.000 OA
BRANCH   8  14
ATOM      9  C   UNL     1       5.121   2.697  11.465  0.00  0.00    +0.000 C 
ATOM     10  C   UNL     1       5.905   3.490  12.471  0.00  0.00    +0.000 A 
ATOM     11  C   UNL     1       6.975   4.296  12.074  0.00  0.00    +0.000 A 
ATOM     12  C   UNL     1       7.695   5.017  13.028  0.00  0.00    +0.000 A 
ATOM     13  C   UNL     1       7.349   4.938  14.380  0.00  0.00    +0.000 A 
ATOM     14  C   UNL     1       6.281   4.139  14.797  0.00  0.00    +0.000 A 
ATOM     15  C   UNL     1       5.567   3.415  13.835  0.00  0.00    +0.000 A 
ENDBRANCH   8  14
ENDBRANCH   7   8
ENDBRANCH   1   7
BRANCH   4  16
ATOM     16  S   UNL     1       2.016   7.811  19.159  0.00  0.00    +0.000 S 
BRANCH  16  17
ATOM     17  C   UNL     1       1.515   9.311  18.243  0.00  0.00    +0.000 C 
BRANCH  17  18
ATOM     18  C   UNL     1       0.321  10.001  18.873  0.00  0.00    +0.000 C 
ATOM     19  O   UNL     1      -0.808   9.909  18.387  0.00  0.00    +0.000 OA
ATOM     20  N   UNL     1       0.616  10.716  20.031  0.00  0.00    +0.000 N 
ATOM     21  H   UNL     1       1.557  11.031  20.171  0.00  0.00    +0.000 HD
BRANCH  20  22
ATOM     22  C   UNL     1      -0.386  11.450  20.631  0.00  0.00    +0.000 A 
ATOM     23  S   UNL     1      -0.997  12.774  19.774  0.00  0.00    +0.000 S 
ATOM     24  C   UNL     1      -2.169  13.092  20.991  0.00  0.00    +0.000 A 
ATOM     25  C   UNL     1      -3.195  14.167  20.820  0.00  0.00    +0.000 C 
ATOM     26  C   UNL     1      -1.992  12.277  22.103  0.00  0.00    +0.000 A 
ATOM     27  C   UNL     1      -2.756  12.363  23.379  0.00  0.00    +0.000 C 
ATOM     28  C   UNL     1      -0.942  11.316  21.872  0.00  0.00    +0.000 A 
BRANCH  28  29
ATOM     29  C   UNL     1      -0.454  10.427  22.852  0.00  0.00    +0.000 C 
ATOM     30  N   UNL     1       0.034   9.702  23.617  0.00  0.00    +0.000 NA
ENDBRANCH  28  29
ENDBRANCH  20  22
ENDBRANCH  17  18
ENDBRANCH  16  17
ENDBRANCH   4  16
TORSDOF 8
ENDMDL
MODEL 5
REMARK VINA RESULT:      -7.1      8.033     10.114
REMARK  Name = 
REMARK  12 active torsions:
REMARK  status: ('A' for Active; 'I' for Inactive)
REMARK    1  A    between atoms: C_1  and  C_2
REMARK    2  A    between atoms: C_6  and  O_7
REMARK    3  A    between atoms: O_7  and  C_8
REMARK    4  A    between atoms: C_8  and  C_9
REMARK    5  A    between atoms: C_12  and  S_13
REMARK    6  A    between atoms: S_13  and  C_14
REMARK    7  A    between atoms: C_14  and  C_15
REMARK    8  A    between atoms: N_17  and  C_18
REMARK    9  A    between atoms: C_20  and  C_21
REMARK   10  A    between atoms: C_22  and  C_23
REMARK   11  A    between atoms: C_24  and  C_25
REMARK   12  A    between atoms: N_27  and  C_28
REMARK                            x       y       z     vdW  Elec       q    Type
REMARK                         _______ _______ _______ _____ _____    ______ ____
ROOT
ATOM      1  C   UNL     1       1.087   9.378  20.774  0.00  0.00    +0.000 A 
ATOM      2  N   UNL     1       1.131  10.239  21.774  0.00  0.00    +0.000 NA
ATOM      3  N   UNL     1       1.139  11.519  21.251  0.00  0.00    +0.000 NA
ATOM      4  C   UNL     1       1.052  11.420  19.948  0.00  0.00    +0.000 A 
ATOM      5  N   UNL     1       1.054  10.098  19.593  0.00  0.00    +0.000 N 
ATOM      6  C   UNL     1       1.082   9.494  18.286  0.00  0.00    +0.000 C 
ENDROOT
BRANCH   1   7
ATOM      7  C   UNL     1       1.001   7.885  20.857  0.00  0.00    +0.000 C 
BRANCH   7   8
ATOM      8  O   UNL     1       2.203   7.324  20.322  0.00  0.00    +0.000 OA
BRANCH   8  14
ATOM      9  C   UNL     1       2.661   3.595  17.042  0.00  0.00    +0.000 C 
ATOM     10  C   UNL     1       2.344   4.110  18.417  0.00  0.00    +0.000 A 
ATOM     11  C   UNL     1       1.956   3.240  19.439  0.00  0.00    +0.000 A 
ATOM     12  C   UNL     1       1.658   3.742  20.706  0.00  0.00    +0.000 A 
ATOM     13  C   UNL     1       1.749   5.113  20.959  0.00  0.00    +0.000 A 
ATOM     14  C   UNL     1       2.138   6.000  19.952  0.00  0.00    +0.000 A 
ATOM     15  C   UNL     1       2.430   5.489  18.682  0.00  0.00    +0.000 A 
ENDBRANCH   8  14
ENDBRANCH   7   8
ENDBRANCH   1   7
BRANCH   4  16
ATOM     16  S   UNL     1       1.053  12.739  18.824  0.00  0.00    +0.000 S 
BRANCH  16  17
ATOM     17  C   UNL     1      -0.661  12.850  18.198  0.00  0.00    +0.000 C 
BRANCH  17  18
ATOM     18  C   UNL     1      -1.686  12.469  19.248  0.00  0.00    +0.000 C 
ATOM     19  O   UNL     1      -2.056  11.303  19.397  0.00  0.00    +0.000 OA
ATOM     20  N   UNL     1      -2.144  13.537  20.017  0.00  0.00    +0.000 N 
ATOM     21  H   UNL     1      -2.079  14.462  19.635  0.00  0.00    +0.000 HD
BRANCH  20  22
ATOM     22  C   UNL     1      -3.142  13.310  20.941  0.00  0.00    +0.000 A 
ATOM     23  S   UNL     1      -4.738  13.333  20.382  0.00  0.00    +0.000 S 
ATOM     24  C   UNL     1      -5.346  12.904  21.931  0.00  0.00    +0.000 A 
ATOM     25  C   UNL     1      -6.803  12.642  22.149  0.00  0.00    +0.000 C 
ATOM     26  C   UNL     1      -4.343  12.885  22.893  0.00  0.00    +0.000 A 
ATOM     27  C   UNL     1      -4.537  12.665  24.353  0.00  0.00    +0.000 C 
ATOM     28  C   UNL     1      -3.053  13.122  22.292  0.00  0.00    +0.000 A 
BRANCH  28  29
ATOM     29  C   UNL     1      -1.856  13.274  23.022  0.00  0.00    +0.000 C 
ATOM     30  N   UNL     1      -0.852  13.476  23.570  0.00  0.00    +0.000 NA
ENDBRANCH  28  29
ENDBRANCH  20  22
ENDBRANCH  17  18
ENDBRANCH  16  17
ENDBRANCH   4  16
TORSDOF 8
ENDMDL
MODEL 6
REMARK VINA RESULT:      -7.1      6.813      8.682
REMARK  Name = 
REMARK  12 active torsions:
REMARK  status: ('A' for Active; 'I' for Inactive)
REMARK    1  A    between atoms: C_1  and  C_2
REMARK    2  A    between atoms: C_6  and  O_7
REMARK    3  A    between atoms: O_7  and  C_8
REMARK    4  A    between atoms: C_8  and  C_9
REMARK    5  A    between atoms: C_12  and  S_13
REMARK    6  A    between atoms: S_13  and  C_14
REMARK    7  A    between atoms: C_14  and  C_15
REMARK    8  A    between atoms: N_17  and  C_18
REMARK    9  A    between atoms: C_20  and  C_21
REMARK   10  A    between atoms: C_22  and  C_23
REMARK   11  A    between atoms: C_24  and  C_25
REMARK   12  A    between atoms: N_27  and  C_28
REMARK                            x       y       z     vdW  Elec       q    Type
REMARK                         _______ _______ _______ _____ _____    ______ ____
ROOT
ATOM      1  C   UNL     1       2.399   5.876  18.572  0.00  0.00    +0.000 A 
ATOM      2  N   UNL     1       2.489   7.061  17.996  0.00  0.00    +0.000 NA
ATOM      3  N   UNL     1       2.207   8.031  18.940  0.00  0.00    +0.000 NA
ATOM      4  C   UNL     1       1.994   7.428  20.083  0.00  0.00    +0.000 A 
ATOM      5  N   UNL     1       2.067   6.073  19.900  0.00  0.00    +0.000 N 
ATOM      6  C   UNL     1       1.803   5.002  20.827  0.00  0.00    +0.000 C 
ENDROOT
BRANCH   1   7
ATOM      7  C   UNL     1       2.680   4.538  17.959  0.00  0.00    +0.000 C 
BRANCH   7   8
ATOM      8  O   UNL     1       3.952   4.078  18.424  0.00  0.00    +0.000 OA
BRANCH   8  14
ATOM      9  C   UNL     1       5.994   4.009  13.875  0.00  0.00    +0.000 C 
ATOM     10  C   UNL     1       6.086   4.227  15.358  0.00  0.00    +0.000 A 
ATOM     11  C   UNL     1       7.290   4.610  15.954  0.00  0.00    +0.000 A 
ATOM     12  C   UNL     1       7.354   4.798  17.336  0.00  0.00    +0.000 A 
ATOM     13  C   UNL     1       6.218   4.606  18.126  0.00  0.00    +0.000 A 
ATOM     14  C   UNL     1       5.003   4.225  17.548  0.00  0.00    +0.000 A 
ATOM     15  C   UNL     1       4.949   4.034  16.163  0.00  0.00    +0.000 A 
ENDBRANCH   8  14
ENDBRANCH   7   8
ENDBRANCH   1   7
BRANCH   4  16
ATOM     16  S   UNL     1       1.572   8.197  21.577  0.00  0.00    +0.000 S 
BRANCH  16  17
ATOM     17  C   UNL     1      -0.079   8.932  21.301  0.00  0.00    +0.000 C 
BRANCH  17  18
ATOM     18  C   UNL     1      -0.327  10.142  22.179  0.00  0.00    +0.000 C 
ATOM     19  O   UNL     1      -0.011  10.151  23.370  0.00  0.00    +0.000 OA
ATOM     20  N   UNL     1      -0.917  11.219  21.521  0.00  0.00    +0.000 N 
ATOM     21  H   UNL     1      -1.447  11.037  20.689  0.00  0.00    +0.000 HD
BRANCH  20  22
ATOM     22  C   UNL     1      -1.264  12.335  22.252  0.00  0.00    +0.000 A 
ATOM     23  S   UNL     1      -2.735  12.292  23.086  0.00  0.00    +0.000 S 
ATOM     24  C   UNL     1      -2.450  13.837  23.782  0.00  0.00    +0.000 A 
ATOM     25  C   UNL     1      -3.393  14.423  24.785  0.00  0.00    +0.000 C 
ATOM     26  C   UNL     1      -1.307  14.434  23.265  0.00  0.00    +0.000 A 
ATOM     27  C   UNL     1      -0.831  15.814  23.562  0.00  0.00    +0.000 C 
ATOM     28  C   UNL     1      -0.620  13.535  22.370  0.00  0.00    +0.000 A 
BRANCH  28  29
ATOM     29  C   UNL     1       0.509  13.891  21.603  0.00  0.00    +0.000 C 
ATOM     30  N   UNL     1       1.380  14.194  20.897  0.00  0.00    +0.000 NA
ENDBRANCH  28  29
ENDBRANCH  20  22
ENDBRANCH  17  18
ENDBRANCH  16  17
ENDBRANCH   4  16
TORSDOF 8
ENDMDL
MODEL 7
REMARK VINA RESULT:      -7.1      6.422      8.224
REMARK  Name = 
REMARK  12 active torsions:
REMARK  status: ('A' for Active; 'I' for Inactive)
REMARK    1  A    between atoms: C_1  and  C_2
REMARK    2  A    between atoms: C_6  and  O_7
REMARK    3  A    between atoms: O_7  and  C_8
REMARK    4  A    between atoms: C_8  and  C_9
REMARK    5  A    between atoms: C_12  and  S_13
REMARK    6  A    between atoms: S_13  and  C_14
REMARK    7  A    between atoms: C_14  and  C_15
REMARK    8  A    between atoms: N_17  and  C_18
REMARK    9  A    between atoms: C_20  and  C_21
REMARK   10  A    between atoms: C_22  and  C_23
REMARK   11  A    between atoms: C_24  and  C_25
REMARK   12  A    between atoms: N_27  and  C_28
REMARK                            x       y       z     vdW  Elec       q    Type
REMARK                         _______ _______ _______ _____ _____    ______ ____
ROOT
ATOM      1  C   UNL     1       4.502   3.870  17.299  0.00  0.00    +0.000 A 
ATOM      2  N   UNL     1       3.387   3.573  16.657  0.00  0.00    +0.000 NA
ATOM      3  N   UNL     1       2.482   3.056  17.565  0.00  0.00    +0.000 NA
ATOM      4  C   UNL     1       3.040   3.087  18.749  0.00  0.00    +0.000 A 
ATOM      5  N   UNL     1       4.321   3.556  18.634  0.00  0.00    +0.000 N 
ATOM      6  C   UNL     1       5.355   3.670  19.631  0.00  0.00    +0.000 C 
ENDROOT
BRANCH   1   7
ATOM      7  C   UNL     1       5.735   4.512  16.741  0.00  0.00    +0.000 C 
BRANCH   7   8
ATOM      8  O   UNL     1       5.385   5.221  15.548  0.00  0.00    +0.000 OA
BRANCH   8  14
ATOM      9  C   UNL     1       5.374   2.293  11.511  0.00  0.00    +0.000 C 
ATOM     10  C   UNL     1       6.004   3.351  12.370  0.00  0.00    +0.000 A 
ATOM     11  C   UNL     1       7.224   3.932  12.015  0.00  0.00    +0.000 A 
ATOM     12  C   UNL     1       7.796   4.907  12.833  0.00  0.00    +0.000 A 
ATOM     13  C   UNL     1       7.151   5.307  14.008  0.00  0.00    +0.000 A 
ATOM     14  C   UNL     1       5.929   4.739  14.379  0.00  0.00    +0.000 A 
ATOM     15  C   UNL     1       5.365   3.759  13.556  0.00  0.00    +0.000 A 
ENDBRANCH   8  14
ENDBRANCH   7   8
ENDBRANCH   1   7
BRANCH   4  16
ATOM     16  S   UNL     1       2.330   2.523  20.226  0.00  0.00    +0.000 S 
BRANCH  16  17
ATOM     17  C   UNL     1       2.346   3.958  21.358  0.00  0.00    +0.000 C 
BRANCH  17  18
ATOM     18  C   UNL     1       1.629   5.161  20.777  0.00  0.00    +0.000 C 
ATOM     19  O   UNL     1       0.629   5.036  20.068  0.00  0.00    +0.000 OA
ATOM     20  N   UNL     1       2.190   6.387  21.127  0.00  0.00    +0.000 N 
ATOM     21  H   UNL     1       3.155   6.412  21.395  0.00  0.00    +0.000 HD
BRANCH  20  22
ATOM     22  C   UNL     1       1.663   7.538  20.578  0.00  0.00    +0.000 A 
ATOM     23  S   UNL     1       0.429   8.314  21.436  0.00  0.00    +0.000 S 
ATOM     24  C   UNL     1       0.368   9.599  20.297  0.00  0.00    +0.000 A 
ATOM     25  C   UNL     1      -0.521  10.783  20.508  0.00  0.00    +0.000 C 
ATOM     26  C   UNL     1       1.187   9.356  19.199  0.00  0.00    +0.000 A 
ATOM     27  C   UNL     1       1.287  10.205  17.979  0.00  0.00    +0.000 C 
ATOM     28  C   UNL     1       1.944   8.142  19.384  0.00  0.00    +0.000 A 
BRANCH  28  29
ATOM     29  C   UNL     1       2.776   7.571  18.399  0.00  0.00    +0.000 C 
ATOM     30  N   UNL     1       3.456   7.185  17.541  0.00  0.00    +0.000 NA
ENDBRANCH  28  29
ENDBRANCH  20  22
ENDBRANCH  17  18
ENDBRANCH  16  17
ENDBRANCH   4  16
TORSDOF 8
ENDMDL
MODEL 8
REMARK VINA RESULT:      -7.0      6.694      8.468
REMARK  Name = 
REMARK  12 active torsions:
REMARK  status: ('A' for Active; 'I' for Inactive)
REMARK    1  A    between atoms: C_1  and  C_2
REMARK    2  A    between atoms: C_6  and  O_7
REMARK    3  A    between atoms: O_7  and  C_8
REMARK    4  A    between atoms: C_8  and  C_9
REMARK    5  A    between atoms: C_12  and  S_13
REMARK    6  A    between atoms: S_13  and  C_14
REMARK    7  A    between atoms: C_14  and  C_15
REMARK    8  A    between atoms: N_17  and  C_18
REMARK    9  A    between atoms: C_20  and  C_21
REMARK   10  A    between atoms: C_22  and  C_23
REMARK   11  A    between atoms: C_24  and  C_25
REMARK   12  A    between atoms: N_27  and  C_28
REMARK                            x       y       z     vdW  Elec       q    Type
REMARK                         _______ _______ _______ _____ _____    ______ ____
ROOT
ATOM      1  C   UNL     1       2.067   4.979  18.940  0.00  0.00    +0.000 A 
ATOM      2  N   UNL     1       1.550   4.521  20.066  0.00  0.00    +0.000 NA
ATOM      3  N   UNL     1       1.348   5.588  20.922  0.00  0.00    +0.000 NA
ATOM      4  C   UNL     1       1.702   6.681  20.291  0.00  0.00    +0.000 A 
ATOM      5  N   UNL     1       2.195   6.351  19.057  0.00  0.00    +0.000 N 
ATOM      6  C   UNL     1       2.799   7.188  18.052  0.00  0.00    +0.000 C 
ENDROOT
BRANCH   1   7
ATOM      7  C   UNL     1       2.395   4.201  17.703  0.00  0.00    +0.000 C 
BRANCH   7   8
ATOM      8  O   UNL     1       3.586   3.445  17.937  0.00  0.00    +0.000 OA
BRANCH   8  14
ATOM      9  C   UNL     1       7.856   5.776  19.036  0.00  0.00    +0.000 C 
ATOM     10  C   UNL     1       6.884   5.203  18.045  0.00  0.00    +0.000 A 
ATOM     11  C   UNL     1       7.138   5.264  16.672  0.00  0.00    +0.000 A 
ATOM     12  C   UNL     1       6.217   4.733  15.769  0.00  0.00    +0.000 A 
ATOM     13  C   UNL     1       5.040   4.137  16.231  0.00  0.00    +0.000 A 
ATOM     14  C   UNL     1       4.769   4.064  17.601  0.00  0.00    +0.000 A 
ATOM     15  C   UNL     1       5.696   4.603  18.500  0.00  0.00    +0.000 A 
ENDBRANCH   8  14
ENDBRANCH   7   8
ENDBRANCH   1   7
BRANCH   4  16
ATOM     16  S   UNL     1       1.669   8.288  20.939  0.00  0.00    +0.000 S 
BRANCH  16  17
ATOM     17  C   UNL     1      -0.041   8.541  21.532  0.00  0.00    +0.000 C 
BRANCH  17  18
ATOM     18  C   UNL     1      -0.200   9.839  22.300  0.00  0.00    +0.000 C 
ATOM     19  O   UNL     1       0.257   9.977  23.436  0.00  0.00    +0.000 OA
ATOM     20  N   UNL     1      -0.882  10.836  21.606  0.00  0.00    +0.000 N 
ATOM     21  H   UNL     1      -1.506  10.565  20.870  0.00  0.00    +0.000 HD
BRANCH  20  22
ATOM     22  C   UNL     1      -1.155  12.025  22.251  0.00  0.00    +0.000 A 
ATOM     23  S   UNL     1      -2.608  12.126  23.112  0.00  0.00    +0.000 S 
ATOM     24  C   UNL     1      -2.230  13.705  23.675  0.00  0.00    +0.000 A 
ATOM     25  C   UNL     1      -3.119  14.418  24.643  0.00  0.00    +0.000 C 
ATOM     26  C   UNL     1      -1.069  14.198  23.089  0.00  0.00    +0.000 A 
ATOM     27  C   UNL     1      -0.517  15.570  23.265  0.00  0.00    +0.000 C 
ATOM     28  C   UNL     1      -0.449  13.195  22.258  0.00  0.00    +0.000 A 
BRANCH  28  29
ATOM     29  C   UNL     1       0.680  13.429  21.445  0.00  0.00    +0.000 C 
ATOM     30  N   UNL     1       1.600  13.714  20.798  0.00  0.00    +0.000 NA
ENDBRANCH  28  29
ENDBRANCH  20  22
ENDBRANCH  17  18
ENDBRANCH  16  17
ENDBRANCH   4  16
TORSDOF 8
ENDMDL
MODEL 9
REMARK VINA RESULT:      -6.9      5.802      8.492
REMARK  Name = 
REMARK  12 active torsions:
REMARK  status: ('A' for Active; 'I' for Inactive)
REMARK    1  A    between atoms: C_1  and  C_2
REMARK    2  A    between atoms: C_6  and  O_7
REMARK    3  A    between atoms: O_7  and  C_8
REMARK    4  A    between atoms: C_8  and  C_9
REMARK    5  A    between atoms: C_12  and  S_13
REMARK    6  A    between atoms: S_13  and  C_14
REMARK    7  A    between atoms: C_14  and  C_15
REMARK    8  A    between atoms: N_17  and  C_18
REMARK    9  A    between atoms: C_20  and  C_21
REMARK   10  A    between atoms: C_22  and  C_23
REMARK   11  A    between atoms: C_24  and  C_25
REMARK   12  A    between atoms: N_27  and  C_28
REMARK                            x       y       z     vdW  Elec       q    Type
REMARK                         _______ _______ _______ _____ _____    ______ ____
ROOT
ATOM      1  C   UNL     1       4.944   4.466  17.072  0.00  0.00    +0.000 A 
ATOM      2  N   UNL     1       3.799   3.809  17.034  0.00  0.00    +0.000 NA
ATOM      3  N   UNL     1       2.835   4.570  17.669  0.00  0.00    +0.000 NA
ATOM      4  C   UNL     1       3.393   5.695  18.042  0.00  0.00    +0.000 A 
ATOM      5  N   UNL     1       4.725   5.666  17.724  0.00  0.00    +0.000 N 
ATOM      6  C   UNL     1       5.765   6.616  18.025  0.00  0.00    +0.000 C 
ENDROOT
BRANCH   1   7
ATOM      7  C   UNL     1       6.249   4.063  16.459  0.00  0.00    +0.000 C 
BRANCH   7   8
ATOM      8  O   UNL     1       6.672   5.091  15.558  0.00  0.00    +0.000 OA
BRANCH   8  14
ATOM      9  C   UNL     1       5.364   2.384  11.578  0.00  0.00    +0.000 C 
ATOM     10  C   UNL     1       6.187   3.458  12.229  0.00  0.00    +0.000 A 
ATOM     11  C   UNL     1       7.132   4.183  11.497  0.00  0.00    +0.000 A 
ATOM     12  C   UNL     1       7.892   5.171  12.125  0.00  0.00    +0.000 A 
ATOM     13  C   UNL     1       7.710   5.441  13.484  0.00  0.00    +0.000 A 
ATOM     14  C   UNL     1       6.769   4.729  14.233  0.00  0.00    +0.000 A 
ATOM     15  C   UNL     1       6.015   3.737  13.597  0.00  0.00    +0.000 A 
ENDBRANCH   8  14
ENDBRANCH   7   8
ENDBRANCH   1   7
BRANCH   4  16
ATOM     16  S   UNL     1       2.617   6.981  18.905  0.00  0.00    +0.000 S 
BRANCH  16  17
ATOM     17  C   UNL     1       2.487   8.362  17.715  0.00  0.00    +0.000 C 
BRANCH  17  18
ATOM     18  C   UNL     1       1.715   9.539  18.277  0.00  0.00    +0.000 C 
ATOM     19  O   UNL     1       2.013  10.701  17.995  0.00  0.00    +0.000 OA
ATOM     20  N   UNL     1       0.655   9.186  19.109  0.00  0.00    +0.000 N 
ATOM     21  H   UNL     1       0.680   8.291  19.561  0.00  0.00    +0.000 HD
BRANCH  20  22
ATOM     22  C   UNL     1      -0.056  10.186  19.740  0.00  0.00    +0.000 A 
ATOM     23  S   UNL     1       0.434  10.621  21.299  0.00  0.00    +0.000 S 
ATOM     24  C   UNL     1      -0.737  11.876  21.378  0.00  0.00    +0.000 A 
ATOM     25  C   UNL     1      -0.804  12.805  22.549  0.00  0.00    +0.000 C 
ATOM     26  C   UNL     1      -1.585  11.862  20.275  0.00  0.00    +0.000 A 
ATOM     27  C   UNL     1      -2.776  12.734  20.078  0.00  0.00    +0.000 C 
ATOM     28  C   UNL     1      -1.166  10.864  19.321  0.00  0.00    +0.000 A 
BRANCH  28  29
ATOM     29  C   UNL     1      -1.888  10.532  18.156  0.00  0.00    +0.000 C 
ATOM     30  N   UNL     1      -2.436  10.331  17.152  0.00  0.00    +0.000 NA
ENDBRANCH  28  29
ENDBRANCH  20  22
ENDBRANCH  17  18
ENDBRANCH  16  17
ENDBRANCH   4  16
TORSDOF 8
ENDMDL
