MODEL 1
REMARK VINA RESULT:      -7.7      0.000      0.000
REMARK  Name = 
REMARK  4 active torsions:
REMARK  status: ('A' for Active; 'I' for Inactive)
REMARK    1  A    between atoms: C_1  and  N_2
REMARK    2  A    between atoms: N_5  and  C_6
REMARK    3  A    between atoms: C_6  and  C_7
REMARK    4  A    between atoms: C_7  and  C_9
REMARK                            x       y       z     vdW  Elec       q    Type
REMARK                         _______ _______ _______ _____ _____    ______ ____
ROOT
ATOM      1  C   UNL     1       7.802   5.824  18.775  0.00  0.00    +0.000 C 
ATOM      2  N   UNL     1       6.728   5.063  18.129  0.00  0.00    +0.000 N 
ATOM      3  C   UNL     1       5.671   4.391  18.673  0.00  0.00    +0.000 A 
ATOM      4  N   UNL     1       5.437   4.299  19.934  0.00  0.00    +0.000 NA
ATOM      5  N   UNL     1       4.886   3.800  17.728  0.00  0.00    +0.000 N 
ATOM      6  C   UNL     1       5.486   4.106  16.556  0.00  0.00    +0.000 A 
ATOM      7  C   UNL     1       5.126   3.738  15.258  0.00  0.00    +0.000 A 
ATOM      8  C   UNL     1       5.949   4.168  14.202  0.00  0.00    +0.000 A 
ATOM      9  C   UNL     1       7.103   4.943  14.459  0.00  0.00    +0.000 A 
ATOM     10  C   UNL     1       7.441   5.301  15.775  0.00  0.00    +0.000 A 
ATOM     11  C   UNL     1       6.603   4.863  16.803  0.00  0.00    +0.000 A 
ATOM     12  H   UNL     1       6.031   4.736  20.650  0.00  0.00    +0.000 HD
ENDROOT
BRANCH   5  13
ATOM     13  C   UNL     1       3.697   2.954  17.932  0.00  0.00    +0.000 C 
BRANCH  13  14
ATOM     14  C   UNL     1       2.392   3.733  17.917  0.00  0.00    +0.000 C 
ATOM     15  O   UNL     1       1.458   3.270  17.278  0.00  0.00    +0.000 OA
BRANCH  14  16
ATOM     16  C   UNL     1       2.178   4.984  18.705  0.00  0.00    +0.000 A 
ATOM     17  C   UNL     1       1.835   4.922  20.075  0.00  0.00    +0.000 A 
ATOM     18  C   UNL     1       1.653   6.095  20.817  0.00  0.00    +0.000 A 
ATOM     19  C   UNL     1       1.809   7.345  20.211  0.00  0.00    +0.000 A 
ATOM     20 CL   UNL     1       1.574   8.801  21.170  0.00  0.00    +0.000 Cl
ATOM     21  C   UNL     1       2.152   7.420  18.854  0.00  0.00    +0.000 A 
ATOM     22 CL   UNL     1       2.364   8.966  18.045  0.00  0.00    +0.000 Cl
ATOM     23  C   UNL     1       2.335   6.249  18.117  0.00  0.00    +0.000 A 
ENDBRANCH  14  16
ENDBRANCH  13  14
ENDBRANCH   5  13
TORSDOF 3
ENDMDL
MODEL 2
REMARK VINA RESULT:      -7.3      5.138      8.310
REMARK  Name = 
REMARK  4 active torsions:
REMARK  status: ('A' for Active; 'I' for Inactive)
REMARK    1  A    between atoms: C_1  and  N_2
REMARK    2  A    between atoms: N_5  and  C_6
REMARK    3  A    between atoms: C_6  and  C_7
REMARK    4  A    between atoms: C_7  and  C_9
REMARK                            x       y       z     vdW  Elec       q    Type
REMARK                         _______ _______ _______ _____ _____    ______ ____
ROOT
ATOM      1  C   UNL     1      -0.762  13.896  20.555  0.00  0.00    +0.000 C 
ATOM      2  N   UNL     1      -0.475  12.490  20.253  0.00  0.00    +0.000 N 
ATOM      3  C   UNL     1      -0.148  11.889  19.071  0.00  0.00    +0.000 A 
ATOM      4  N   UNL     1      -0.045  12.503  17.946  0.00  0.00    +0.000 NA
ATOM      5  N   UNL     1       0.041  10.546  19.204  0.00  0.00    +0.000 N 
ATOM      6  C   UNL     1      -0.191  10.303  20.513  0.00  0.00    +0.000 A 
ATOM      7  C   UNL     1      -0.164   9.089  21.203  0.00  0.00    +0.000 A 
ATOM      8  C   UNL     1      -0.478   9.107  22.574  0.00  0.00    +0.000 A 
ATOM      9  C   UNL     1      -0.812  10.319  23.220  0.00  0.00    +0.000 A 
ATOM     10  C   UNL     1      -0.828  11.527  22.501  0.00  0.00    +0.000 A 
ATOM     11  C   UNL     1      -0.510  11.479  21.143  0.00  0.00    +0.000 A 
ATOM     12  H   UNL     1      -0.194  13.514  17.841  0.00  0.00    +0.000 HD
ENDROOT
BRANCH   5  13
ATOM     13  C   UNL     1       0.351   9.562  18.151  0.00  0.00    +0.000 C 
BRANCH  13  14
ATOM     14  C   UNL     1       1.841   9.343  17.949  0.00  0.00    +0.000 C 
ATOM     15  O   UNL     1       2.517  10.304  17.607  0.00  0.00    +0.000 OA
BRANCH  14  16
ATOM     16  C   UNL     1       2.521   8.043  18.224  0.00  0.00    +0.000 A 
ATOM     17  C   UNL     1       3.594   7.606  17.414  0.00  0.00    +0.000 A 
ATOM     18  C   UNL     1       4.244   6.396  17.684  0.00  0.00    +0.000 A 
ATOM     19  C   UNL     1       3.838   5.602  18.760  0.00  0.00    +0.000 A 
ATOM     20 CL   UNL     1       4.674   4.087  19.074  0.00  0.00    +0.000 Cl
ATOM     21  C   UNL     1       2.778   6.025  19.573  0.00  0.00    +0.000 A 
ATOM     22 CL   UNL     1       2.231   5.067  20.942  0.00  0.00    +0.000 Cl
ATOM     23  C   UNL     1       2.133   7.234  19.303  0.00  0.00    +0.000 A 
ENDBRANCH  14  16
ENDBRANCH  13  14
ENDBRANCH   5  13
TORSDOF 3
ENDMDL
MODEL 3
REMARK VINA RESULT:      -7.3      2.723      5.398
REMARK  Name = 
REMARK  4 active torsions:
REMARK  status: ('A' for Active; 'I' for Inactive)
REMARK    1  A    between atoms: C_1  and  N_2
REMARK    2  A    between atoms: N_5  and  C_6
REMARK    3  A    between atoms: C_6  and  C_7
REMARK    4  A    between atoms: C_7  and  C_9
REMARK                            x       y       z     vdW  Elec       q    Type
REMARK                         _______ _______ _______ _____ _____    ______ ____
ROOT
ATOM      1  C   UNL     1       2.780   2.645  21.223  0.00  0.00    +0.000 C 
ATOM      2  N   UNL     1       2.947   3.378  19.964  0.00  0.00    +0.000 N 
ATOM      3  C   UNL     1       3.402   2.953  18.749  0.00  0.00    +0.000 A 
ATOM      4  N   UNL     1       3.800   1.756  18.497  0.00  0.00    +0.000 NA
ATOM      5  N   UNL     1       3.412   3.949  17.818  0.00  0.00    +0.000 N 
ATOM      6  C   UNL     1       2.959   5.034  18.484  0.00  0.00    +0.000 A 
ATOM      7  C   UNL     1       2.788   6.342  18.027  0.00  0.00    +0.000 A 
ATOM      8  C   UNL     1       2.324   7.303  18.944  0.00  0.00    +0.000 A 
ATOM      9  C   UNL     1       2.050   6.944  20.284  0.00  0.00    +0.000 A 
ATOM     10  C   UNL     1       2.228   5.619  20.717  0.00  0.00    +0.000 A 
ATOM     11  C   UNL     1       2.686   4.687  19.783  0.00  0.00    +0.000 A 
ATOM     12  H   UNL     1       3.801   1.004  19.198  0.00  0.00    +0.000 HD
ENDROOT
BRANCH   5  13
ATOM     13  C   UNL     1       3.881   3.885  16.422  0.00  0.00    +0.000 C 
BRANCH  13  14
ATOM     14  C   UNL     1       5.392   3.979  16.289  0.00  0.00    +0.000 C 
ATOM     15  O   UNL     1       5.954   3.158  15.576  0.00  0.00    +0.000 OA
BRANCH  14  16
ATOM     16  C   UNL     1       6.203   5.065  16.916  0.00  0.00    +0.000 A 
ATOM     17  C   UNL     1       6.255   6.352  16.335  0.00  0.00    +0.000 A 
ATOM     18  C   UNL     1       7.000   7.374  16.934  0.00  0.00    +0.000 A 
ATOM     19  C   UNL     1       7.703   7.134  18.119  0.00  0.00    +0.000 A 
ATOM     20 CL   UNL     1       8.629   8.439  18.848  0.00  0.00    +0.000 Cl
ATOM     21  C   UNL     1       7.657   5.863  18.707  0.00  0.00    +0.000 A 
ATOM     22 CL   UNL     1       8.518   5.509  20.198  0.00  0.00    +0.000 Cl
ATOM     23  C   UNL     1       6.910   4.846  18.108  0.00  0.00    +0.000 A 
ENDBRANCH  14  16
ENDBRANCH  13  14
ENDBRANCH   5  13
TORSDOF 3
ENDMDL
MODEL 4
REMARK VINA RESULT:      -7.2      2.688      4.888
REMARK  Name = 
REMARK  4 active torsions:
REMARK  status: ('A' for Active; 'I' for Inactive)
REMARK    1  A    between atoms: C_1  and  N_2
REMARK    2  A    between atoms: N_5  and  C_6
REMARK    3  A    between atoms: C_6  and  C_7
REMARK    4  A    between atoms: C_7  and  C_9
REMARK                            x       y       z     vdW  Elec       q    Type
REMARK                         _______ _______ _______ _____ _____    ______ ____
ROOT
ATOM      1  C   UNL     1       4.834   3.848  16.256  0.00  0.00    +0.000 C 
ATOM      2  N   UNL     1       3.976   4.452  17.281  0.00  0.00    +0.000 N 
ATOM      3  C   UNL     1       3.995   5.705  17.823  0.00  0.00    +0.000 A 
ATOM      4  N   UNL     1       4.840   6.622  17.507  0.00  0.00    +0.000 NA
ATOM      5  N   UNL     1       3.023   5.882  18.762  0.00  0.00    +0.000 N 
ATOM      6  C   UNL     1       2.388   4.691  18.814  0.00  0.00    +0.000 A 
ATOM      7  C   UNL     1       1.323   4.294  19.626  0.00  0.00    +0.000 A 
ATOM      8  C   UNL     1       0.862   2.971  19.503  0.00  0.00    +0.000 A 
ATOM      9  C   UNL     1       1.468   2.080  18.588  0.00  0.00    +0.000 A 
ATOM     10  C   UNL     1       2.537   2.507  17.781  0.00  0.00    +0.000 A 
ATOM     11  C   UNL     1       2.971   3.826  17.923  0.00  0.00    +0.000 A 
ATOM     12  H   UNL     1       5.579   6.490  16.805  0.00  0.00    +0.000 HD
ENDROOT
BRANCH   5  13
ATOM     13  C   UNL     1       2.767   7.072  19.593  0.00  0.00    +0.000 C 
BRANCH  13  14
ATOM     14  C   UNL     1       2.005   8.165  18.862  0.00  0.00    +0.000 C 
ATOM     15  O   UNL     1       2.101   8.210  17.643  0.00  0.00    +0.000 OA
BRANCH  14  16
ATOM     16  C   UNL     1       1.091   9.125  19.550  0.00  0.00    +0.000 A 
ATOM     17  C   UNL     1       0.442  10.149  18.822  0.00  0.00    +0.000 A 
ATOM     18  C   UNL     1      -0.429  11.036  19.465  0.00  0.00    +0.000 A 
ATOM     19  C   UNL     1      -0.668  10.921  20.837  0.00  0.00    +0.000 A 
ATOM     20 CL   UNL     1      -1.769  12.051  21.615  0.00  0.00    +0.000 Cl
ATOM     21  C   UNL     1      -0.033   9.909  21.569  0.00  0.00    +0.000 A 
ATOM     22 CL   UNL     1      -0.303   9.718  23.296  0.00  0.00    +0.000 Cl
ATOM     23  C   UNL     1       0.833   9.023  20.925  0.00  0.00    +0.000 A 
ENDBRANCH  14  16
ENDBRANCH  13  14
ENDBRANCH   5  13
TORSDOF 3
ENDMDL
MODEL 5
REMARK VINA RESULT:      -7.0      2.921      4.864
REMARK  Name = 
REMARK  4 active torsions:
REMARK  status: ('A' for Active; 'I' for Inactive)
REMARK    1  A    between atoms: C_1  and  N_2
REMARK    2  A    between atoms: N_5  and  C_6
REMARK    3  A    between atoms: C_6  and  C_7
REMARK    4  A    between atoms: C_7  and  C_9
REMARK                            x       y       z     vdW  Elec       q    Type
REMARK                         _______ _______ _______ _____ _____    ______ ____
ROOT
ATOM      1  C   UNL     1       4.719   3.893  16.329  0.00  0.00    +0.000 C 
ATOM      2  N   UNL     1       3.864   4.518  17.344  0.00  0.00    +0.000 N 
ATOM      3  C   UNL     1       3.858   5.793  17.831  0.00  0.00    +0.000 A 
ATOM      4  N   UNL     1       4.672   6.718  17.461  0.00  0.00    +0.000 NA
ATOM      5  N   UNL     1       2.899   5.984  18.781  0.00  0.00    +0.000 N 
ATOM      6  C   UNL     1       2.298   4.780  18.896  0.00  0.00    +0.000 A 
ATOM      7  C   UNL     1       1.258   4.391  19.743  0.00  0.00    +0.000 A 
ATOM      8  C   UNL     1       0.831   3.052  19.686  0.00  0.00    +0.000 A 
ATOM      9  C   UNL     1       1.445   2.139  18.798  0.00  0.00    +0.000 A 
ATOM     10  C   UNL     1       2.488   2.559  17.954  0.00  0.00    +0.000 A 
ATOM     11  C   UNL     1       2.888   3.894  18.031  0.00  0.00    +0.000 A 
ATOM     12  H   UNL     1       5.402   6.575  16.751  0.00  0.00    +0.000 HD
ENDROOT
BRANCH   5  13
ATOM     13  C   UNL     1       2.625   7.203  19.565  0.00  0.00    +0.000 C 
BRANCH  13  14
ATOM     14  C   UNL     1       1.922   8.288  18.767  0.00  0.00    +0.000 C 
ATOM     15  O   UNL     1       2.104   8.315  17.557  0.00  0.00    +0.000 OA
BRANCH  14  16
ATOM     16  C   UNL     1       0.967   9.262  19.375  0.00  0.00    +0.000 A 
ATOM     17  C   UNL     1       0.762   9.290  20.773  0.00  0.00    +0.000 A 
ATOM     18  C   UNL     1      -0.119  10.216  21.345  0.00  0.00    +0.000 A 
ATOM     19  C   UNL     1      -0.808  11.126  20.538  0.00  0.00    +0.000 A 
ATOM     20 CL   UNL     1      -1.907  12.278  21.285  0.00  0.00    +0.000 Cl
ATOM     21  C   UNL     1      -0.611  11.110  19.150  0.00  0.00    +0.000 A 
ATOM     22 CL   UNL     1      -1.448  12.236  18.091  0.00  0.00    +0.000 Cl
ATOM     23  C   UNL     1       0.271  10.187  18.583  0.00  0.00    +0.000 A 
ENDBRANCH  14  16
ENDBRANCH  13  14
ENDBRANCH   5  13
TORSDOF 3
ENDMDL
MODEL 6
REMARK VINA RESULT:      -6.8      2.588      4.382
REMARK  Name = 
REMARK  4 active torsions:
REMARK  status: ('A' for Active; 'I' for Inactive)
REMARK    1  A    between atoms: C_1  and  N_2
REMARK    2  A    between atoms: N_5  and  C_6
REMARK    3  A    between atoms: C_6  and  C_7
REMARK    4  A    between atoms: C_7  and  C_9
REMARK                            x       y       z     vdW  Elec       q    Type
REMARK                         _______ _______ _______ _____ _____    ______ ____
ROOT
ATOM      1  C   UNL     1       6.440   4.365  17.245  0.00  0.00    +0.000 C 
ATOM      2  N   UNL     1       5.080   4.869  17.462  0.00  0.00    +0.000 N 
ATOM      3  C   UNL     1       4.615   6.150  17.541  0.00  0.00    +0.000 A 
ATOM      4  N   UNL     1       5.352   7.200  17.445  0.00  0.00    +0.000 NA
ATOM      5  N   UNL     1       3.270   6.205  17.757  0.00  0.00    +0.000 N 
ATOM      6  C   UNL     1       2.890   4.911  17.828  0.00  0.00    +0.000 A 
ATOM      7  C   UNL     1       1.622   4.375  18.060  0.00  0.00    +0.000 A 
ATOM      8  C   UNL     1       1.500   2.975  18.117  0.00  0.00    +0.000 A 
ATOM      9  C   UNL     1       2.634   2.147  17.946  0.00  0.00    +0.000 A 
ATOM     10  C   UNL     1       3.899   2.713  17.710  0.00  0.00    +0.000 A 
ATOM     11  C   UNL     1       3.987   4.105  17.656  0.00  0.00    +0.000 A 
ATOM     12  H   UNL     1       6.368   7.163  17.290  0.00  0.00    +0.000 HD
ENDROOT
BRANCH   5  13
ATOM     13  C   UNL     1       2.427   7.399  17.949  0.00  0.00    +0.000 C 
BRANCH  13  14
ATOM     14  C   UNL     1       2.067   7.656  19.402  0.00  0.00    +0.000 C 
ATOM     15  O   UNL     1       2.549   6.916  20.249  0.00  0.00    +0.000 OA
BRANCH  14  16
ATOM     16  C   UNL     1       1.226   8.808  19.845  0.00  0.00    +0.000 A 
ATOM     17  C   UNL     1       0.860   9.824  18.934  0.00  0.00    +0.000 A 
ATOM     18  C   UNL     1       0.056  10.893  19.345  0.00  0.00    +0.000 A 
ATOM     19  C   UNL     1      -0.397  10.969  20.666  0.00  0.00    +0.000 A 
ATOM     20 CL   UNL     1      -1.407  12.324  21.152  0.00  0.00    +0.000 Cl
ATOM     21  C   UNL     1      -0.044   9.966  21.578  0.00  0.00    +0.000 A 
ATOM     22 CL   UNL     1      -0.590  10.011  23.249  0.00  0.00    +0.000 Cl
ATOM     23  C   UNL     1       0.757   8.899  21.165  0.00  0.00    +0.000 A 
ENDBRANCH  14  16
ENDBRANCH  13  14
ENDBRANCH   5  13
TORSDOF 3
ENDMDL
MODEL 7
REMARK VINA RESULT:      -6.8      5.334      8.163
REMARK  Name = 
REMARK  4 active torsions:
REMARK  status: ('A' for Active; 'I' for Inactive)
REMARK    1  A    between atoms: C_1  and  N_2
REMARK    2  A    between atoms: N_5  and  C_6
REMARK    3  A    between atoms: C_6  and  C_7
REMARK    4  A    between atoms: C_7  and  C_9
REMARK                            x       y       z     vdW  Elec       q    Type
REMARK                         _______ _______ _______ _____ _____    ______ ____
ROOT
ATOM      1  C   UNL     1      -1.682  13.210  20.957  0.00  0.00    +0.000 C 
ATOM      2  N   UNL     1      -1.114  12.102  20.180  0.00  0.00    +0.000 N 
ATOM      3  C   UNL     1       0.090  11.469  20.296  0.00  0.00    +0.000 A 
ATOM      4  N   UNL     1       0.993  11.773  21.160  0.00  0.00    +0.000 NA
ATOM      5  N   UNL     1       0.249  10.478  19.373  0.00  0.00    +0.000 N 
ATOM      6  C   UNL     1      -0.892  10.508  18.651  0.00  0.00    +0.000 A 
ATOM      7  C   UNL     1      -1.264   9.725  17.556  0.00  0.00    +0.000 A 
ATOM      8  C   UNL     1      -2.511   9.982  16.959  0.00  0.00    +0.000 A 
ATOM      9  C   UNL     1      -3.350  11.004  17.457  0.00  0.00    +0.000 A 
ATOM     10  C   UNL     1      -2.953  11.775  18.563  0.00  0.00    +0.000 A 
ATOM     11  C   UNL     1      -1.711  11.495  19.137  0.00  0.00    +0.000 A 
ATOM     12  H   UNL     1       0.881  12.525  21.851  0.00  0.00    +0.000 HD
ENDROOT
BRANCH   5  13
ATOM     13  C   UNL     1       1.426   9.618  19.156  0.00  0.00    +0.000 C 
BRANCH  13  14
ATOM     14  C   UNL     1       1.515   8.458  20.134  0.00  0.00    +0.000 C 
ATOM     15  O   UNL     1       1.098   8.637  21.270  0.00  0.00    +0.000 OA
BRANCH  14  16
ATOM     16  C   UNL     1       2.007   7.101  19.751  0.00  0.00    +0.000 A 
ATOM     17  C   UNL     1       2.663   6.895  18.516  0.00  0.00    +0.000 A 
ATOM     18  C   UNL     1       3.142   5.627  18.167  0.00  0.00    +0.000 A 
ATOM     19  C   UNL     1       2.976   4.546  19.036  0.00  0.00    +0.000 A 
ATOM     20 CL   UNL     1       3.589   2.965  18.569  0.00  0.00    +0.000 Cl
ATOM     21  C   UNL     1       2.330   4.737  20.265  0.00  0.00    +0.000 A 
ATOM     22 CL   UNL     1       2.099   3.412  21.397  0.00  0.00    +0.000 Cl
ATOM     23  C   UNL     1       1.856   6.004  20.613  0.00  0.00    +0.000 A 
ENDBRANCH  14  16
ENDBRANCH  13  14
ENDBRANCH   5  13
TORSDOF 3
ENDMDL
MODEL 8
REMARK VINA RESULT:      -6.7      2.930      4.690
REMARK  Name = 
REMARK  4 active torsions:
REMARK  status: ('A' for Active; 'I' for Inactive)
REMARK    1  A    between atoms: C_1  and  N_2
REMARK    2  A    between atoms: N_5  and  C_6
REMARK    3  A    between atoms: C_6  and  C_7
REMARK    4  A    between atoms: C_7  and  C_9
REMARK                            x       y       z     vdW  Elec       q    Type
REMARK                         _______ _______ _______ _____ _____    ______ ____
ROOT
ATOM      1  C   UNL     1       6.153   4.745  18.845  0.00  0.00    +0.000 C 
ATOM      2  N   UNL     1       4.740   5.129  18.753  0.00  0.00    +0.000 N 
ATOM      3  C   UNL     1       4.140   6.128  18.042  0.00  0.00    +0.000 A 
ATOM      4  N   UNL     1       4.766   6.964  17.291  0.00  0.00    +0.000 NA
ATOM      5  N   UNL     1       2.790   6.162  18.227  0.00  0.00    +0.000 N 
ATOM      6  C   UNL     1       2.546   5.156  19.095  0.00  0.00    +0.000 A 
ATOM      7  C   UNL     1       1.333   4.749  19.655  0.00  0.00    +0.000 A 
ATOM      8  C   UNL     1       1.358   3.679  20.568  0.00  0.00    +0.000 A 
ATOM      9  C   UNL     1       2.577   3.048  20.903  0.00  0.00    +0.000 A 
ATOM     10  C   UNL     1       3.784   3.476  20.322  0.00  0.00    +0.000 A 
ATOM     11  C   UNL     1       3.727   4.538  19.417  0.00  0.00    +0.000 A 
ATOM     12  H   UNL     1       5.785   6.947  17.156  0.00  0.00    +0.000 HD
ENDROOT
BRANCH   5  13
ATOM     13  C   UNL     1       1.820   7.123  17.671  0.00  0.00    +0.000 C 
BRANCH  13  14
ATOM     14  C   UNL     1       1.955   8.521  18.252  0.00  0.00    +0.000 C 
ATOM     15  O   UNL     1       2.646   9.327  17.643  0.00  0.00    +0.000 OA
BRANCH  14  16
ATOM     16  C   UNL     1       1.227   8.972  19.475  0.00  0.00    +0.000 A 
ATOM     17  C   UNL     1       1.468   8.358  20.724  0.00  0.00    +0.000 A 
ATOM     18  C   UNL     1       0.799   8.795  21.874  0.00  0.00    +0.000 A 
ATOM     19  C   UNL     1      -0.119   9.847  21.799  0.00  0.00    +0.000 A 
ATOM     20 CL   UNL     1      -0.943  10.373  23.261  0.00  0.00    +0.000 Cl
ATOM     21  C   UNL     1      -0.365  10.466  20.567  0.00  0.00    +0.000 A 
ATOM     22 CL   UNL     1      -1.506  11.795  20.419  0.00  0.00    +0.000 Cl
ATOM     23  C   UNL     1       0.306  10.030  19.422  0.00  0.00    +0.000 A 
ENDBRANCH  14  16
ENDBRANCH  13  14
ENDBRANCH   5  13
TORSDOF 3
ENDMDL
MODEL 9
REMARK VINA RESULT:      -6.7      3.731      6.174
REMARK  Name = 
REMARK  4 active torsions:
REMARK  status: ('A' for Active; 'I' for Inactive)
REMARK    1  A    between atoms: C_1  and  N_2
REMARK    2  A    between atoms: N_5  and  C_6
REMARK    3  A    between atoms: C_6  and  C_7
REMARK    4  A    between atoms: C_7  and  C_9
REMARK                            x       y       z     vdW  Elec       q    Type
REMARK                         _______ _______ _______ _____ _____    ______ ____
ROOT
ATOM      1  C   UNL     1       2.316   3.058  19.886  0.00  0.00    +0.000 C 
ATOM      2  N   UNL     1       3.349   3.929  19.315  0.00  0.00    +0.000 N 
ATOM      3  C   UNL     1       4.694   3.734  19.180  0.00  0.00    +0.000 A 
ATOM      4  N   UNL     1       5.320   2.681  19.573  0.00  0.00    +0.000 NA
ATOM      5  N   UNL     1       5.319   4.795  18.595  0.00  0.00    +0.000 N 
ATOM      6  C   UNL     1       4.328   5.685  18.372  0.00  0.00    +0.000 A 
ATOM      7  C   UNL     1       4.400   6.964  17.815  0.00  0.00    +0.000 A 
ATOM      8  C   UNL     1       3.209   7.707  17.722  0.00  0.00    +0.000 A 
ATOM      9  C   UNL     1       1.987   7.168  18.185  0.00  0.00    +0.000 A 
ATOM     10  C   UNL     1       1.943   5.877  18.739  0.00  0.00    +0.000 A 
ATOM     11  C   UNL     1       3.140   5.162  18.815  0.00  0.00    +0.000 A 
ATOM     12  H   UNL     1       4.854   1.883  20.021  0.00  0.00    +0.000 HD
ENDROOT
BRANCH   5  13
ATOM     13  C   UNL     1       6.759   4.971  18.333  0.00  0.00    +0.000 C 
BRANCH  13  14
ATOM     14  C   UNL     1       7.054   5.579  16.972  0.00  0.00    +0.000 C 
ATOM     15  O   UNL     1       7.665   6.639  16.941  0.00  0.00    +0.000 OA
BRANCH  14  16
ATOM     16  C   UNL     1       6.707   4.909  15.683  0.00  0.00    +0.000 A 
ATOM     17  C   UNL     1       5.727   3.891  15.642  0.00  0.00    +0.000 A 
ATOM     18  C   UNL     1       5.389   3.277  14.431  0.00  0.00    +0.000 A 
ATOM     19  C   UNL     1       6.017   3.663  13.244  0.00  0.00    +0.000 A 
ATOM     20 CL   UNL     1       5.570   2.873  11.738  0.00  0.00    +0.000 Cl
ATOM     21  C   UNL     1       6.988   4.673  13.270  0.00  0.00    +0.000 A 
ATOM     22 CL   UNL     1       7.805   5.200  11.805  0.00  0.00    +0.000 Cl
ATOM     23  C   UNL     1       7.322   5.287  14.480  0.00  0.00    +0.000 A 
ENDBRANCH  14  16
ENDBRANCH  13  14
ENDBRANCH   5  13
TORSDOF 3
ENDMDL
