MODEL 1
REMARK VINA RESULT:      -9.8      0.000      0.000
REMARK  Name = 
REMARK  1 active torsions:
REMARK  status: ('A' for Active; 'I' for Inactive)
REMARK    1  A    between atoms: C_15  and  C_16
REMARK                            x       y       z     vdW  Elec       q    Type
REMARK                         _______ _______ _______ _____ _____    ______ ____
ROOT
ATOM      1  O   UNL     1       1.566   2.392  21.170  0.00  0.00    +0.000 OA
ATOM      2  C   UNL     1       2.490   3.024  20.709  0.00  0.00    +0.000 C 
ATOM      3  O   UNL     1       3.721   2.577  20.371  0.00  0.00    +0.000 OA
ATOM      4  C   UNL     1       4.445   3.557  19.774  0.00  0.00    +0.000 C 
ATOM      5  O   UNL     1       5.654   3.618  19.742  0.00  0.00    +0.000 OA
ATOM      6  C   UNL     1       3.512   4.614  19.445  0.00  0.00    +0.000 A 
ATOM      7  C   UNL     1       2.468   4.413  20.298  0.00  0.00    +0.000 A 
ATOM      8  C   UNL     1       1.627   5.447  20.668  0.00  0.00    +0.000 A 
ATOM      9  C   UNL     1       1.810   6.689  20.036  0.00  0.00    +0.000 A 
ATOM     10  C   UNL     1       1.193   7.859  20.518  0.00  0.00    +0.000 A 
ATOM     11  C   UNL     1       1.360   9.026  19.806  0.00  0.00    +0.000 A 
ATOM     12  C   UNL     1       1.968   9.029  18.578  0.00  0.00    +0.000 A 
ATOM     13  C   UNL     1       2.531   7.902  18.056  0.00  0.00    +0.000 A 
ATOM     14  C   UNL     1       2.642   6.758  18.872  0.00  0.00    +0.000 A 
ATOM     15  C   UNL     1       3.595   5.729  18.607  0.00  0.00    +0.000 A 
ATOM     16  O   UNL     1       2.008  10.255  17.996  0.00  0.00    +0.000 OA
ATOM     17  C   UNL     1       1.516  11.059  19.072  0.00  0.00    +0.000 C 
ATOM     18  O   UNL     1       1.004  10.282  20.184  0.00  0.00    +0.000 OA
ENDROOT
BRANCH  15  19
ATOM     19  C   UNL     1       4.566   5.851  17.485  0.00  0.00    +0.000 A 
ATOM     20  C   UNL     1       5.847   6.400  17.724  0.00  0.00    +0.000 A 
ATOM     21  C   UNL     1       6.869   6.347  16.766  0.00  0.00    +0.000 A 
ATOM     22  C   UNL     1       6.635   5.621  15.630  0.00  0.00    +0.000 A 
ATOM     23  C   UNL     1       5.409   5.061  15.378  0.00  0.00    +0.000 A 
ATOM     24  C   UNL     1       4.337   5.242  16.232  0.00  0.00    +0.000 A 
ATOM     25  O   UNL     1       5.444   4.234  14.295  0.00  0.00    +0.000 OA
ATOM     26  C   UNL     1       6.874   4.169  14.088  0.00  0.00    +0.000 C 
ATOM     27  O   UNL     1       7.563   5.275  14.698  0.00  0.00    +0.000 OA
ENDBRANCH  15  19
TORSDOF 1
ENDMDL
MODEL 2
REMARK VINA RESULT:      -8.6      1.153      1.650
REMARK  Name = 
REMARK  1 active torsions:
REMARK  status: ('A' for Active; 'I' for Inactive)
REMARK    1  A    between atoms: C_15  and  C_16
REMARK                            x       y       z     vdW  Elec       q    Type
REMARK                         _______ _______ _______ _____ _____    ______ ____
ROOT
ATOM      1  O   UNL     1       1.157   2.435  22.335  0.00  0.00    +0.000 OA
ATOM      2  C   UNL     1       2.128   2.782  21.701  0.00  0.00    +0.000 C 
ATOM      3  O   UNL     1       3.262   2.085  21.462  0.00  0.00    +0.000 OA
ATOM      4  C   UNL     1       4.075   2.759  20.609  0.00  0.00    +0.000 C 
ATOM      5  O   UNL     1       5.276   2.629  20.532  0.00  0.00    +0.000 OA
ATOM      6  C   UNL     1       3.276   3.821  20.035  0.00  0.00    +0.000 A 
ATOM      7  C   UNL     1       2.270   4.005  20.938  0.00  0.00    +0.000 A 
ATOM      8  C   UNL     1       1.604   5.213  21.041  0.00  0.00    +0.000 A 
ATOM      9  C   UNL     1       1.914   6.208  20.098  0.00  0.00    +0.000 A 
ATOM     10  C   UNL     1       1.495   7.541  20.269  0.00  0.00    +0.000 A 
ATOM     11  C   UNL     1       1.775   8.447  19.270  0.00  0.00    +0.000 A 
ATOM     12  C   UNL     1       2.298   8.042  18.070  0.00  0.00    +0.000 A 
ATOM     13  C   UNL     1       2.668   6.747  17.851  0.00  0.00    +0.000 A 
ATOM     14  C   UNL     1       2.672   5.849  18.937  0.00  0.00    +0.000 A 
ATOM     15  C   UNL     1       3.457   4.658  18.931  0.00  0.00    +0.000 A 
ATOM     16  O   UNL     1       2.469   9.056  17.183  0.00  0.00    +0.000 OA
ATOM     17  C   UNL     1       2.160  10.174  18.019  0.00  0.00    +0.000 C 
ATOM     18  O   UNL     1       1.618   9.796  19.310  0.00  0.00    +0.000 OA
ENDROOT
BRANCH  15  19
ATOM     19  C   UNL     1       4.363   4.340  17.792  0.00  0.00    +0.000 A 
ATOM     20  C   UNL     1       3.878   3.578  16.704  0.00  0.00    +0.000 A 
ATOM     21  C   UNL     1       4.610   3.428  15.518  0.00  0.00    +0.000 A 
ATOM     22  C   UNL     1       5.760   4.158  15.386  0.00  0.00    +0.000 A 
ATOM     23  C   UNL     1       6.245   4.922  16.416  0.00  0.00    +0.000 A 
ATOM     24  C   UNL     1       5.628   4.953  17.652  0.00  0.00    +0.000 A 
ATOM     25  O   UNL     1       7.286   5.706  16.018  0.00  0.00    +0.000 OA
ATOM     26  C   UNL     1       7.201   5.511  14.587  0.00  0.00    +0.000 C 
ATOM     27  O   UNL     1       6.481   4.313  14.243  0.00  0.00    +0.000 OA
ENDBRANCH  15  19
TORSDOF 1
ENDMDL
MODEL 3
REMARK VINA RESULT:      -8.6      1.457      6.422
REMARK  Name = 
REMARK  1 active torsions:
REMARK  status: ('A' for Active; 'I' for Inactive)
REMARK    1  A    between atoms: C_15  and  C_16
REMARK                            x       y       z     vdW  Elec       q    Type
REMARK                         _______ _______ _______ _____ _____    ______ ____
ROOT
ATOM      1  O   UNL     1       5.756   4.212  14.288  0.00  0.00    +0.000 OA
ATOM      2  C   UNL     1       5.569   4.967  15.217  0.00  0.00    +0.000 C 
ATOM      3  O   UNL     1       5.933   6.265  15.324  0.00  0.00    +0.000 OA
ATOM      4  C   UNL     1       5.443   6.814  16.464  0.00  0.00    +0.000 C 
ATOM      5  O   UNL     1       5.912   7.768  17.043  0.00  0.00    +0.000 OA
ATOM      6  C   UNL     1       4.456   5.886  16.974  0.00  0.00    +0.000 A 
ATOM      7  C   UNL     1       4.802   4.691  16.414  0.00  0.00    +0.000 A 
ATOM      8  C   UNL     1       4.458   3.490  17.006  0.00  0.00    +0.000 A 
ATOM      9  C   UNL     1       3.632   3.538  18.142  0.00  0.00    +0.000 A 
ATOM     10  C   UNL     1       3.440   2.411  18.963  0.00  0.00    +0.000 A 
ATOM     11  C   UNL     1       2.561   2.513  20.018  0.00  0.00    +0.000 A 
ATOM     12  C   UNL     1       1.766   3.618  20.176  0.00  0.00    +0.000 A 
ATOM     13  C   UNL     1       1.888   4.709  19.366  0.00  0.00    +0.000 A 
ATOM     14  C   UNL     1       2.968   4.766  18.463  0.00  0.00    +0.000 A 
ATOM     15  C   UNL     1       3.448   6.002  17.934  0.00  0.00    +0.000 A 
ATOM     16  O   UNL     1       0.927   3.534  21.240  0.00  0.00    +0.000 OA
ATOM     17  C   UNL     1       1.403   2.327  21.841  0.00  0.00    +0.000 C 
ATOM     18  O   UNL     1       2.366   1.616  21.020  0.00  0.00    +0.000 OA
ENDROOT
BRANCH  15  19
ATOM     19  C   UNL     1       2.863   7.301  18.367  0.00  0.00    +0.000 A 
ATOM     20  C   UNL     1       2.520   8.272  17.398  0.00  0.00    +0.000 A 
ATOM     21  C   UNL     1       1.778   9.416  17.724  0.00  0.00    +0.000 A 
ATOM     22  C   UNL     1       1.272   9.505  18.992  0.00  0.00    +0.000 A 
ATOM     23  C   UNL     1       1.572   8.569  19.948  0.00  0.00    +0.000 A 
ATOM     24  C   UNL     1       2.436   7.521  19.696  0.00  0.00    +0.000 A 
ATOM     25  O   UNL     1       0.824   8.741  21.075  0.00  0.00    +0.000 OA
ATOM     26  C   UNL     1      -0.124   9.718  20.589  0.00  0.00    +0.000 C 
ATOM     27  O   UNL     1       0.361  10.416  19.427  0.00  0.00    +0.000 OA
ENDBRANCH  15  19
TORSDOF 1
ENDMDL
MODEL 4
REMARK VINA RESULT:      -8.5      1.358      5.955
REMARK  Name = 
REMARK  1 active torsions:
REMARK  status: ('A' for Active; 'I' for Inactive)
REMARK    1  A    between atoms: C_15  and  C_16
REMARK                            x       y       z     vdW  Elec       q    Type
REMARK                         _______ _______ _______ _____ _____    ______ ____
ROOT
ATOM      1  O   UNL     1       3.246   1.930  22.012  0.00  0.00    +0.000 OA
ATOM      2  C   UNL     1       2.715   2.794  21.351  0.00  0.00    +0.000 C 
ATOM      3  O   UNL     1       1.588   3.487  21.632  0.00  0.00    +0.000 OA
ATOM      4  C   UNL     1       1.371   4.457  20.709  0.00  0.00    +0.000 C 
ATOM      5  O   UNL     1       0.296   4.942  20.436  0.00  0.00    +0.000 OA
ATOM      6  C   UNL     1       2.599   4.583  19.951  0.00  0.00    +0.000 A 
ATOM      7  C   UNL     1       3.224   3.384  20.129  0.00  0.00    +0.000 A 
ATOM      8  C   UNL     1       4.136   2.901  19.209  0.00  0.00    +0.000 A 
ATOM      9  C   UNL     1       4.492   3.745  18.143  0.00  0.00    +0.000 A 
ATOM     10  C   UNL     1       5.198   3.263  17.025  0.00  0.00    +0.000 A 
ATOM     11  C   UNL     1       5.575   4.163  16.053  0.00  0.00    +0.000 A 
ATOM     12  C   UNL     1       5.418   5.511  16.234  0.00  0.00    +0.000 A 
ATOM     13  C   UNL     1       4.784   6.018  17.331  0.00  0.00    +0.000 A 
ATOM     14  C   UNL     1       4.127   5.129  18.205  0.00  0.00    +0.000 A 
ATOM     15  C   UNL     1       3.080   5.558  19.074  0.00  0.00    +0.000 A 
ATOM     16  O   UNL     1       5.883   6.255  15.197  0.00  0.00    +0.000 OA
ATOM     17  C   UNL     1       6.191   5.218  14.263  0.00  0.00    +0.000 C 
ATOM     18  O   UNL     1       6.100   3.886  14.830  0.00  0.00    +0.000 OA
ENDROOT
BRANCH  15  19
ATOM     19  C   UNL     1       2.588   6.963  19.049  0.00  0.00    +0.000 A 
ATOM     20  C   UNL     1       2.375   7.609  17.809  0.00  0.00    +0.000 A 
ATOM     21  C   UNL     1       1.720   8.844  17.717  0.00  0.00    +0.000 A 
ATOM     22  C   UNL     1       1.163   9.353  18.859  0.00  0.00    +0.000 A 
ATOM     23  C   UNL     1       1.335   8.740  20.073  0.00  0.00    +0.000 A 
ATOM     24  C   UNL     1       2.118   7.610  20.214  0.00  0.00    +0.000 A 
ATOM     25  O   UNL     1       0.552   9.300  21.038  0.00  0.00    +0.000 OA
ATOM     26  C   UNL     1      -0.286  10.141  20.211  0.00  0.00    +0.000 C 
ATOM     27  O   UNL     1       0.313  10.412  18.930  0.00  0.00    +0.000 OA
ENDBRANCH  15  19
TORSDOF 1
ENDMDL
MODEL 5
REMARK VINA RESULT:      -8.3      2.973      7.031
REMARK  Name = 
REMARK  1 active torsions:
REMARK  status: ('A' for Active; 'I' for Inactive)
REMARK    1  A    between atoms: C_15  and  C_16
REMARK                            x       y       z     vdW  Elec       q    Type
REMARK                         _______ _______ _______ _____ _____    ______ ____
ROOT
ATOM      1  O   UNL     1       8.451   7.615  18.557  0.00  0.00    +0.000 OA
ATOM      2  C   UNL     1       7.726   6.645  18.590  0.00  0.00    +0.000 C 
ATOM      3  O   UNL     1       7.144   6.075  19.669  0.00  0.00    +0.000 OA
ATOM      4  C   UNL     1       6.303   5.077  19.296  0.00  0.00    +0.000 C 
ATOM      5  O   UNL     1       5.976   4.137  19.986  0.00  0.00    +0.000 OA
ATOM      6  C   UNL     1       6.113   5.215  17.867  0.00  0.00    +0.000 A 
ATOM      7  C   UNL     1       7.207   5.914  17.452  0.00  0.00    +0.000 A 
ATOM      8  C   UNL     1       7.671   5.825  16.152  0.00  0.00    +0.000 A 
ATOM      9  C   UNL     1       6.903   5.084  15.238  0.00  0.00    +0.000 A 
ATOM     10  C   UNL     1       7.409   4.716  13.978  0.00  0.00    +0.000 A 
ATOM     11  C   UNL     1       6.575   4.051  13.107  0.00  0.00    +0.000 A 
ATOM     12  C   UNL     1       5.242   3.893  13.381  0.00  0.00    +0.000 A 
ATOM     13  C   UNL     1       4.705   4.286  14.572  0.00  0.00    +0.000 A 
ATOM     14  C   UNL     1       5.571   4.701  15.603  0.00  0.00    +0.000 A 
ATOM     15  C   UNL     1       5.181   4.677  16.976  0.00  0.00    +0.000 A 
ATOM     16  O   UNL     1       4.557   3.257  12.396  0.00  0.00    +0.000 OA
ATOM     17  C   UNL     1       5.641   2.872  11.546  0.00  0.00    +0.000 C 
ATOM     18  O   UNL     1       6.910   3.460  11.930  0.00  0.00    +0.000 OA
ENDROOT
BRANCH  15  19
ATOM     19  C   UNL     1       3.852   4.146  17.387  0.00  0.00    +0.000 A 
ATOM     20  C   UNL     1       3.559   2.775  17.206  0.00  0.00    +0.000 A 
ATOM     21  C   UNL     1       2.418   2.179  17.761  0.00  0.00    +0.000 A 
ATOM     22  C   UNL     1       1.656   2.937  18.608  0.00  0.00    +0.000 A 
ATOM     23  C   UNL     1       1.926   4.265  18.819  0.00  0.00    +0.000 A 
ATOM     24  C   UNL     1       2.947   4.915  18.152  0.00  0.00    +0.000 A 
ATOM     25  O   UNL     1       1.169   4.780  19.828  0.00  0.00    +0.000 OA
ATOM     26  C   UNL     1       0.607   3.557  20.357  0.00  0.00    +0.000 C 
ATOM     27  O   UNL     1       0.651   2.481  19.402  0.00  0.00    +0.000 OA
ENDBRANCH  15  19
TORSDOF 1
ENDMDL
MODEL 6
REMARK VINA RESULT:      -8.2      1.803      6.522
REMARK  Name = 
REMARK  1 active torsions:
REMARK  status: ('A' for Active; 'I' for Inactive)
REMARK    1  A    between atoms: C_15  and  C_16
REMARK                            x       y       z     vdW  Elec       q    Type
REMARK                         _______ _______ _______ _____ _____    ______ ____
ROOT
ATOM      1  O   UNL     1       7.045   5.042  14.413  0.00  0.00    +0.000 OA
ATOM      2  C   UNL     1       6.613   5.556  15.421  0.00  0.00    +0.000 C 
ATOM      3  O   UNL     1       6.956   6.746  15.964  0.00  0.00    +0.000 OA
ATOM      4  C   UNL     1       6.168   7.038  17.030  0.00  0.00    +0.000 C 
ATOM      5  O   UNL     1       6.468   7.769  17.947  0.00  0.00    +0.000 OA
ATOM      6  C   UNL     1       5.057   6.111  16.984  0.00  0.00    +0.000 A 
ATOM      7  C   UNL     1       5.526   5.066  16.244  0.00  0.00    +0.000 A 
ATOM      8  C   UNL     1       5.002   3.793  16.378  0.00  0.00    +0.000 A 
ATOM      9  C   UNL     1       3.884   3.637  17.214  0.00  0.00    +0.000 A 
ATOM     10  C   UNL     1       3.440   2.365  17.622  0.00  0.00    +0.000 A 
ATOM     11  C   UNL     1       2.295   2.284  18.383  0.00  0.00    +0.000 A 
ATOM     12  C   UNL     1       1.511   3.385  18.605  0.00  0.00    +0.000 A 
ATOM     13  C   UNL     1       1.884   4.627  18.179  0.00  0.00    +0.000 A 
ATOM     14  C   UNL     1       3.180   4.804  17.655  0.00  0.00    +0.000 A 
ATOM     15  C   UNL     1       3.817   6.081  17.626  0.00  0.00    +0.000 A 
ATOM     16  O   UNL     1       0.398   3.120  19.336  0.00  0.00    +0.000 OA
ATOM     17  C   UNL     1       0.656   1.762  19.702  0.00  0.00    +0.000 C 
ATOM     18  O   UNL     1       1.800   1.189  19.018  0.00  0.00    +0.000 OA
ENDROOT
BRANCH  15  19
ATOM     19  C   UNL     1       3.158   7.281  18.212  0.00  0.00    +0.000 A 
ATOM     20  C   UNL     1       2.724   8.325  17.363  0.00  0.00    +0.000 A 
ATOM     21  C   UNL     1       1.916   9.372  17.827  0.00  0.00    +0.000 A 
ATOM     22  C   UNL     1       1.440   9.286  19.107  0.00  0.00    +0.000 A 
ATOM     23  C   UNL     1       1.828   8.275  19.948  0.00  0.00    +0.000 A 
ATOM     24  C   UNL     1       2.753   7.324  19.565  0.00  0.00    +0.000 A 
ATOM     25  O   UNL     1       1.101   8.271  21.101  0.00  0.00    +0.000 OA
ATOM     26  C   UNL     1       0.075   9.227  20.744  0.00  0.00    +0.000 C 
ATOM     27  O   UNL     1       0.482  10.079  19.658  0.00  0.00    +0.000 OA
ENDBRANCH  15  19
TORSDOF 1
ENDMDL
MODEL 7
REMARK VINA RESULT:      -7.8      4.035      7.762
REMARK  Name = 
REMARK  1 active torsions:
REMARK  status: ('A' for Active; 'I' for Inactive)
REMARK    1  A    between atoms: C_15  and  C_16
REMARK                            x       y       z     vdW  Elec       q    Type
REMARK                         _______ _______ _______ _____ _____    ______ ____
ROOT
ATOM      1  O   UNL     1      -3.132  13.544  22.998  0.00  0.00    +0.000 OA
ATOM      2  C   UNL     1      -2.182  13.175  22.343  0.00  0.00    +0.000 C 
ATOM      3  O   UNL     1      -0.878  13.161  22.700  0.00  0.00    +0.000 OA
ATOM      4  C   UNL     1      -0.120  12.565  21.745  0.00  0.00    +0.000 C 
ATOM      5  O   UNL     1       1.061  12.760  21.560  0.00  0.00    +0.000 OA
ATOM      6  C   UNL     1      -1.040  11.893  20.852  0.00  0.00    +0.000 A 
ATOM      7  C   UNL     1      -2.222  12.547  21.038  0.00  0.00    +0.000 A 
ATOM      8  C   UNL     1      -3.197  12.572  20.058  0.00  0.00    +0.000 A 
ATOM      9  C   UNL     1      -2.980  11.794  18.908  0.00  0.00    +0.000 A 
ATOM     10  C   UNL     1      -3.770  11.949  17.753  0.00  0.00    +0.000 A 
ATOM     11  C   UNL     1      -3.546  11.104  16.689  0.00  0.00    +0.000 A 
ATOM     12  C   UNL     1      -2.697  10.034  16.799  0.00  0.00    +0.000 A 
ATOM     13  C   UNL     1      -1.953   9.822  17.923  0.00  0.00    +0.000 A 
ATOM     14  C   UNL     1      -1.930  10.819  18.919  0.00  0.00    +0.000 A 
ATOM     15  C   UNL     1      -0.868  10.917  19.867  0.00  0.00    +0.000 A 
ATOM     16  O   UNL     1      -2.628   9.279  15.672  0.00  0.00    +0.000 OA
ATOM     17  C   UNL     1      -3.393  10.092  14.779  0.00  0.00    +0.000 C 
ATOM     18  O   UNL     1      -4.067  11.195  15.437  0.00  0.00    +0.000 OA
ENDROOT
BRANCH  15  19
ATOM     19  C   UNL     1       0.304  10.001  19.805  0.00  0.00    +0.000 A 
ATOM     20  C   UNL     1       0.460   8.996  20.787  0.00  0.00    +0.000 A 
ATOM     21  C   UNL     1       1.417   7.979  20.664  0.00  0.00    +0.000 A 
ATOM     22  C   UNL     1       2.114   7.904  19.489  0.00  0.00    +0.000 A 
ATOM     23  C   UNL     1       1.970   8.852  18.510  0.00  0.00    +0.000 A 
ATOM     24  C   UNL     1       1.156   9.955  18.679  0.00  0.00    +0.000 A 
ATOM     25  O   UNL     1       2.607   8.492  17.360  0.00  0.00    +0.000 OA
ATOM     26  C   UNL     1       2.927   7.119  17.682  0.00  0.00    +0.000 C 
ATOM     27  O   UNL     1       2.915   6.876  19.101  0.00  0.00    +0.000 OA
ENDBRANCH  15  19
TORSDOF 1
ENDMDL
MODEL 8
REMARK VINA RESULT:      -7.6      7.606      9.889
REMARK  Name = 
REMARK  1 active torsions:
REMARK  status: ('A' for Active; 'I' for Inactive)
REMARK    1  A    between atoms: C_15  and  C_16
REMARK                            x       y       z     vdW  Elec       q    Type
REMARK                         _______ _______ _______ _____ _____    ______ ____
ROOT
ATOM      1  O   UNL     1      -4.103  10.647  14.658  0.00  0.00    +0.000 OA
ATOM      2  C   UNL     1      -3.479  10.574  15.693  0.00  0.00    +0.000 C 
ATOM      3  O   UNL     1      -2.190  10.203  15.866  0.00  0.00    +0.000 OA
ATOM      4  C   UNL     1      -1.809  10.361  17.159  0.00  0.00    +0.000 C 
ATOM      5  O   UNL     1      -0.915   9.756  17.708  0.00  0.00    +0.000 OA
ATOM      6  C   UNL     1      -2.835  11.162  17.793  0.00  0.00    +0.000 A 
ATOM      7  C   UNL     1      -3.934  10.977  17.007  0.00  0.00    +0.000 A 
ATOM      8  C   UNL     1      -5.214  11.135  17.507  0.00  0.00    +0.000 A 
ATOM      9  C   UNL     1      -5.343  11.615  18.821  0.00  0.00    +0.000 A 
ATOM     10  C   UNL     1      -6.571  11.563  19.508  0.00  0.00    +0.000 A 
ATOM     11  C   UNL     1      -6.639  12.117  20.767  0.00  0.00    +0.000 A 
ATOM     12  C   UNL     1      -5.598  12.844  21.281  0.00  0.00    +0.000 A 
ATOM     13  C   UNL     1      -4.410  12.959  20.620  0.00  0.00    +0.000 A 
ATOM     14  C   UNL     1      -4.194  12.172  19.471  0.00  0.00    +0.000 A 
ATOM     15  C   UNL     1      -2.883  11.866  18.999  0.00  0.00    +0.000 A 
ATOM     16  O   UNL     1      -5.850  13.355  22.514  0.00  0.00    +0.000 OA
ATOM     17  C   UNL     1      -7.101  12.722  22.796  0.00  0.00    +0.000 C 
ATOM     18  O   UNL     1      -7.662  12.020  21.657  0.00  0.00    +0.000 OA
ENDROOT
BRANCH  15  19
ATOM     19  C   UNL     1      -1.674  12.316  19.743  0.00  0.00    +0.000 A 
ATOM     20  C   UNL     1      -1.167  11.524  20.799  0.00  0.00    +0.000 A 
ATOM     21  C   UNL     1       0.076  11.784  21.392  0.00  0.00    +0.000 A 
ATOM     22  C   UNL     1       0.859  12.752  20.825  0.00  0.00    +0.000 A 
ATOM     23  C   UNL     1       0.403  13.524  19.787  0.00  0.00    +0.000 A 
ATOM     24  C   UNL     1      -0.882  13.397  19.296  0.00  0.00    +0.000 A 
ATOM     25  O   UNL     1       1.395  14.292  19.254  0.00  0.00    +0.000 OA
ATOM     26  C   UNL     1       2.537  13.706  19.921  0.00  0.00    +0.000 C 
ATOM     27  O   UNL     1       2.164  12.996  21.116  0.00  0.00    +0.000 OA
ENDBRANCH  15  19
TORSDOF 1
ENDMDL
MODEL 9
REMARK VINA RESULT:      -7.6      1.253      5.594
REMARK  Name = 
REMARK  1 active torsions:
REMARK  status: ('A' for Active; 'I' for Inactive)
REMARK    1  A    between atoms: C_15  and  C_16
REMARK                            x       y       z     vdW  Elec       q    Type
REMARK                         _______ _______ _______ _____ _____    ______ ____
ROOT
ATOM      1  O   UNL     1       3.709   1.715  21.945  0.00  0.00    +0.000 OA
ATOM      2  C   UNL     1       3.040   2.512  21.325  0.00  0.00    +0.000 C 
ATOM      3  O   UNL     1       1.828   3.015  21.650  0.00  0.00    +0.000 OA
ATOM      4  C   UNL     1       1.449   3.975  20.769  0.00  0.00    +0.000 C 
ATOM      5  O   UNL     1       0.307   4.301  20.530  0.00  0.00    +0.000 OA
ATOM      6  C   UNL     1       2.628   4.314  20.000  0.00  0.00    +0.000 A 
ATOM      7  C   UNL     1       3.431   3.218  20.121  0.00  0.00    +0.000 A 
ATOM      8  C   UNL     1       4.387   2.913  19.171  0.00  0.00    +0.000 A 
ATOM      9  C   UNL     1       4.590   3.840  18.135  0.00  0.00    +0.000 A 
ATOM     10  C   UNL     1       5.340   3.513  16.989  0.00  0.00    +0.000 A 
ATOM     11  C   UNL     1       5.557   4.495  16.047  0.00  0.00    +0.000 A 
ATOM     12  C   UNL     1       5.202   5.796  16.284  0.00  0.00    +0.000 A 
ATOM     13  C   UNL     1       4.520   6.160  17.408  0.00  0.00    +0.000 A 
ATOM     14  C   UNL     1       4.022   5.150  18.256  0.00  0.00    +0.000 A 
ATOM     15  C   UNL     1       2.939   5.383  19.155  0.00  0.00    +0.000 A 
ATOM     16  O   UNL     1       5.529   6.640  15.271  0.00  0.00    +0.000 OA
ATOM     17  C   UNL     1       5.972   5.697  14.292  0.00  0.00    +0.000 C 
ATOM     18  O   UNL     1       6.094   4.346  14.808  0.00  0.00    +0.000 OA
ENDROOT
BRANCH  15  19
ATOM     19  C   UNL     1       2.241   6.697  19.193  0.00  0.00    +0.000 A 
ATOM     20  C   UNL     1       1.825   7.233  20.433  0.00  0.00    +0.000 A 
ATOM     21  C   UNL     1       1.357   8.549  20.554  0.00  0.00    +0.000 A 
ATOM     22  C   UNL     1       1.442   9.356  19.452  0.00  0.00    +0.000 A 
ATOM     23  C   UNL     1       1.860   8.870  18.240  0.00  0.00    +0.000 A 
ATOM     24  C   UNL     1       2.167   7.535  18.058  0.00  0.00    +0.000 A 
ATOM     25  O   UNL     1       2.048   9.869  17.332  0.00  0.00    +0.000 OA
ATOM     26  C   UNL     1       1.941  11.015  18.209  0.00  0.00    +0.000 C 
ATOM     27  O   UNL     1       1.246  10.702  19.430  0.00  0.00    +0.000 OA
ENDBRANCH  15  19
TORSDOF 1
ENDMDL
