MODEL 1
REMARK VINA RESULT:      -7.2      0.000      0.000
REMARK  Name = 
REMARK  13 active torsions:
REMARK  status: ('A' for Active; 'I' for Inactive)
REMARK    1  A    between atoms: C_1  and  C_2
REMARK    2  A    between atoms: C_2  and  O_3
REMARK    3  A    between atoms: O_3  and  C_4
REMARK    4  A    between atoms: C_4  and  C_6
REMARK    5  A    between atoms: C_9  and  N_10
REMARK    6  A    between atoms: C_11  and  C_13
REMARK    7  A    between atoms: C_13  and  O_14
REMARK    8  A    between atoms: O_14  and  C_15
REMARK    9  A    between atoms: C_20  and  C_21
REMARK   10  A    between atoms: C_21  and  N_22
REMARK   11  A    between atoms: N_22  and  C_23
REMARK   12  A    between atoms: C_23  and  C_24
REMARK   13  A    between atoms: C_24  and  C_25
REMARK                            x       y       z     vdW  Elec       q    Type
REMARK                         _______ _______ _______ _____ _____    ______ ____
ROOT
ATOM      1  O   UNL     1       6.742   6.767  18.630  0.00  0.00    +0.000 OA
ENDROOT
BRANCH   1   2
ATOM      2  C   UNL     1       6.101   5.880  17.810  0.00  0.00    +0.000 A 
ATOM      3  C   UNL     1       6.942   4.879  17.299  0.00  0.00    +0.000 A 
ATOM      4  C   UNL     1       6.512   4.021  16.286  0.00  0.00    +0.000 A 
ATOM      5  C   UNL     1       5.231   4.155  15.771  0.00  0.00    +0.000 A 
ATOM      6  C   UNL     1       4.381   5.134  16.285  0.00  0.00    +0.000 A 
ATOM      7  C   UNL     1       4.798   6.020  17.304  0.00  0.00    +0.000 A 
BRANCH   7   8
ATOM      8  C   UNL     1       3.823   7.104  17.707  0.00  0.00    +0.000 C 
BRANCH   8   9
ATOM      9  N   UNL     1       2.537   6.617  18.214  0.00  0.00    +0.000 NA
ATOM     10  H   UNL     1       2.368   5.677  17.862  0.00  0.00    +0.000 HD
BRANCH   9  11
ATOM     11  C   UNL     1       2.456   6.552  19.676  0.00  0.00    +0.000 C 
BRANCH  11  12
ATOM     12  C   UNL     1       1.844   5.244  20.186  0.00  0.00    +0.000 C 
BRANCH  12  13
ATOM     13  C   UNL     1       2.417   4.061  19.462  0.00  0.00    +0.000 A 
ATOM     14  C   UNL     1       3.681   3.570  19.801  0.00  0.00    +0.000 A 
ATOM     15  C   UNL     1       4.218   2.478  19.120  0.00  0.00    +0.000 A 
ATOM     16  C   UNL     1       3.493   1.876  18.092  0.00  0.00    +0.000 A 
ATOM     17  C   UNL     1       2.237   2.370  17.739  0.00  0.00    +0.000 A 
ATOM     18  C   UNL     1       1.701   3.460  18.422  0.00  0.00    +0.000 A 
ENDBRANCH  12  13
ENDBRANCH  11  12
ENDBRANCH   9  11
ENDBRANCH   8   9
ENDBRANCH   7   8
ENDBRANCH   1   2
BRANCH   1  19
ATOM     19  C   UNL     1       8.102   7.068  18.333  0.00  0.00    +0.000 C 
BRANCH  19  21
ATOM     20  N   UNL     1       9.116   9.148  19.103  0.00  0.00    +0.000 N 
ATOM     21  C   UNL     1       8.274   8.576  18.166  0.00  0.00    +0.000 C 
ATOM     22  O   UNL     1       7.682   9.155  17.259  0.00  0.00    +0.000 OA
ATOM     23  H   UNL     1       9.514   8.508  19.783  0.00  0.00    +0.000 HD
BRANCH  20  27
ATOM     24  C   UNL     1       9.963  13.267  19.533  0.00  0.00    +0.000 A 
ATOM     25  C   UNL     1      10.108  12.652  18.287  0.00  0.00    +0.000 A 
ATOM     26  C   UNL     1       9.856  11.289  18.137  0.00  0.00    +0.000 A 
ATOM     27  C   UNL     1       9.446  10.517  19.224  0.00  0.00    +0.000 A 
ATOM     28  C   UNL     1       9.340  11.120  20.480  0.00  0.00    +0.000 A 
ATOM     29  C   UNL     1       9.590  12.492  20.636  0.00  0.00    +0.000 A 
BRANCH  24  30
ATOM     30  C   UNL     1      10.263  14.720  19.601  0.00  0.00    +0.000 C 
ATOM     31  O   UNL     1      11.070  15.200  20.378  0.00  0.00    +0.000 OA
BRANCH  30  32
ATOM     32  O   UNL     1       9.463  15.414  18.753  0.00  0.00    +0.000 OA
BRANCH  32  34
ATOM     33  C   UNL     1      10.838  16.086  16.918  0.00  0.00    +0.000 C 
ATOM     34  C   UNL     1      10.090  16.555  18.151  0.00  0.00    +0.000 C 
ENDBRANCH  32  34
ENDBRANCH  30  32
ENDBRANCH  24  30
ENDBRANCH  20  27
ENDBRANCH  19  21
ENDBRANCH   1  19
TORSDOF 12
ENDMDL
MODEL 2
REMARK VINA RESULT:      -7.1      3.306      8.463
REMARK  Name = 
REMARK  13 active torsions:
REMARK  status: ('A' for Active; 'I' for Inactive)
REMARK    1  A    between atoms: C_1  and  C_2
REMARK    2  A    between atoms: C_2  and  O_3
REMARK    3  A    between atoms: O_3  and  C_4
REMARK    4  A    between atoms: C_4  and  C_6
REMARK    5  A    between atoms: C_9  and  N_10
REMARK    6  A    between atoms: C_11  and  C_13
REMARK    7  A    between atoms: C_13  and  O_14
REMARK    8  A    between atoms: O_14  and  C_15
REMARK    9  A    between atoms: C_20  and  C_21
REMARK   10  A    between atoms: C_21  and  N_22
REMARK   11  A    between atoms: N_22  and  C_23
REMARK   12  A    between atoms: C_23  and  C_24
REMARK   13  A    between atoms: C_24  and  C_25
REMARK                            x       y       z     vdW  Elec       q    Type
REMARK                         _______ _______ _______ _____ _____    ______ ____
ROOT
ATOM      1  O   UNL     1       5.647   3.855  17.942  0.00  0.00    +0.000 OA
ENDROOT
BRANCH   1   2
ATOM      2  C   UNL     1       6.012   4.375  16.730  0.00  0.00    +0.000 A 
ATOM      3  C   UNL     1       5.690   3.546  15.644  0.00  0.00    +0.000 A 
ATOM      4  C   UNL     1       6.174   3.813  14.363  0.00  0.00    +0.000 A 
ATOM      5  C   UNL     1       6.989   4.917  14.154  0.00  0.00    +0.000 A 
ATOM      6  C   UNL     1       7.299   5.757  15.223  0.00  0.00    +0.000 A 
ATOM      7  C   UNL     1       6.827   5.500  16.530  0.00  0.00    +0.000 A 
BRANCH   7   8
ATOM      8  C   UNL     1       7.315   6.424  17.624  0.00  0.00    +0.000 C 
BRANCH   8   9
ATOM      9  N   UNL     1       7.737   7.751  17.166  0.00  0.00    +0.000 NA
ATOM     10  H   UNL     1       6.935   8.250  16.787  0.00  0.00    +0.000 HD
BRANCH   9  11
ATOM     11  C   UNL     1       8.308   8.594  18.221  0.00  0.00    +0.000 C 
BRANCH  11  12
ATOM     12  C   UNL     1       8.342  10.080  17.850  0.00  0.00    +0.000 C 
BRANCH  12  13
ATOM     13  C   UNL     1       9.471  10.784  18.544  0.00  0.00    +0.000 A 
ATOM     14  C   UNL     1      10.554  11.276  17.810  0.00  0.00    +0.000 A 
ATOM     15  C   UNL     1      11.608  11.921  18.457  0.00  0.00    +0.000 A 
ATOM     16  C   UNL     1      11.586  12.069  19.844  0.00  0.00    +0.000 A 
ATOM     17  C   UNL     1      10.515  11.567  20.583  0.00  0.00    +0.000 A 
ATOM     18  C   UNL     1       9.461  10.926  19.935  0.00  0.00    +0.000 A 
ENDBRANCH  12  13
ENDBRANCH  11  12
ENDBRANCH   9  11
ENDBRANCH   8   9
ENDBRANCH   7   8
ENDBRANCH   1   2
BRANCH   1  19
ATOM     19  C   UNL     1       4.267   3.918  18.291  0.00  0.00    +0.000 C 
BRANCH  19  21
ATOM     20  N   UNL     1       2.846   5.897  18.397  0.00  0.00    +0.000 N 
ATOM     21  C   UNL     1       3.957   5.268  18.933  0.00  0.00    +0.000 C 
ATOM     22  O   UNL     1       4.676   5.689  19.835  0.00  0.00    +0.000 OA
ATOM     23  H   UNL     1       2.376   5.395  17.650  0.00  0.00    +0.000 HD
BRANCH  20  27
ATOM     24  C   UNL     1       1.171   9.608  19.533  0.00  0.00    +0.000 A 
ATOM     25  C   UNL     1       1.675   9.437  18.241  0.00  0.00    +0.000 A 
ATOM     26  C   UNL     1       2.252   8.226  17.862  0.00  0.00    +0.000 A 
ATOM     27  C   UNL     1       2.330   7.161  18.759  0.00  0.00    +0.000 A 
ATOM     28  C   UNL     1       1.865   7.343  20.065  0.00  0.00    +0.000 A 
ATOM     29  C   UNL     1       1.282   8.559  20.452  0.00  0.00    +0.000 A 
BRANCH  24  30
ATOM     30  C   UNL     1       0.584  10.934  19.852  0.00  0.00    +0.000 C 
ATOM     31  O   UNL     1       1.231  11.968  19.856  0.00  0.00    +0.000 OA
BRANCH  30  32
ATOM     32  O   UNL     1      -0.718  10.807  20.209  0.00  0.00    +0.000 OA
BRANCH  32  34
ATOM     33  C   UNL     1      -2.277  12.614  20.337  0.00  0.00    +0.000 C 
ATOM     34  C   UNL     1      -1.626  11.594  19.423  0.00  0.00    +0.000 C 
ENDBRANCH  32  34
ENDBRANCH  30  32
ENDBRANCH  24  30
ENDBRANCH  20  27
ENDBRANCH  19  21
ENDBRANCH   1  19
TORSDOF 12
ENDMDL
MODEL 3
REMARK VINA RESULT:      -7.0      1.235      1.876
REMARK  Name = 
REMARK  13 active torsions:
REMARK  status: ('A' for Active; 'I' for Inactive)
REMARK    1  A    between atoms: C_1  and  C_2
REMARK    2  A    between atoms: C_2  and  O_3
REMARK    3  A    between atoms: O_3  and  C_4
REMARK    4  A    between atoms: C_4  and  C_6
REMARK    5  A    between atoms: C_9  and  N_10
REMARK    6  A    between atoms: C_11  and  C_13
REMARK    7  A    between atoms: C_13  and  O_14
REMARK    8  A    between atoms: O_14  and  C_15
REMARK    9  A    between atoms: C_20  and  C_21
REMARK   10  A    between atoms: C_21  and  N_22
REMARK   11  A    between atoms: N_22  and  C_23
REMARK   12  A    between atoms: C_23  and  C_24
REMARK   13  A    between atoms: C_24  and  C_25
REMARK                            x       y       z     vdW  Elec       q    Type
REMARK                         _______ _______ _______ _____ _____    ______ ____
ROOT
ATOM      1  O   UNL     1       6.622   6.346  18.285  0.00  0.00    +0.000 OA
ENDROOT
BRANCH   1   2
ATOM      2  C   UNL     1       6.282   5.661  17.151  0.00  0.00    +0.000 A 
ATOM      3  C   UNL     1       7.181   4.634  16.825  0.00  0.00    +0.000 A 
ATOM      4  C   UNL     1       7.112   3.975  15.597  0.00  0.00    +0.000 A 
ATOM      5  C   UNL     1       6.138   4.338  14.678  0.00  0.00    +0.000 A 
ATOM      6  C   UNL     1       5.227   5.345  15.000  0.00  0.00    +0.000 A 
ATOM      7  C   UNL     1       5.285   6.031  16.234  0.00  0.00    +0.000 A 
BRANCH   7   8
ATOM      8  C   UNL     1       4.309   7.171  16.426  0.00  0.00    +0.000 C 
BRANCH   8   9
ATOM      9  N   UNL     1       4.008   7.495  17.823  0.00  0.00    +0.000 NA
ATOM     10  H   UNL     1       4.113   8.496  17.970  0.00  0.00    +0.000 HD
BRANCH   9  11
ATOM     11  C   UNL     1       2.648   7.139  18.239  0.00  0.00    +0.000 C 
BRANCH  11  12
ATOM     12  C   UNL     1       2.612   6.302  19.523  0.00  0.00    +0.000 C 
BRANCH  12  13
ATOM     13  C   UNL     1       2.099   4.919  19.251  0.00  0.00    +0.000 A 
ATOM     14  C   UNL     1       1.286   4.271  20.185  0.00  0.00    +0.000 A 
ATOM     15  C   UNL     1       0.819   2.980  19.937  0.00  0.00    +0.000 A 
ATOM     16  C   UNL     1       1.170   2.330  18.754  0.00  0.00    +0.000 A 
ATOM     17  C   UNL     1       1.993   2.966  17.825  0.00  0.00    +0.000 A 
ATOM     18  C   UNL     1       2.457   4.256  18.073  0.00  0.00    +0.000 A 
ENDBRANCH  12  13
ENDBRANCH  11  12
ENDBRANCH   9  11
ENDBRANCH   8   9
ENDBRANCH   7   8
ENDBRANCH   1   2
BRANCH   1  19
ATOM     19  C   UNL     1       7.991   6.705  18.448  0.00  0.00    +0.000 C 
BRANCH  19  21
ATOM     20  N   UNL     1       8.916   8.842  19.173  0.00  0.00    +0.000 N 
ATOM     21  C   UNL     1       8.166   8.201  18.201  0.00  0.00    +0.000 C 
ATOM     22  O   UNL     1       7.657   8.715  17.210  0.00  0.00    +0.000 OA
ATOM     23  H   UNL     1       9.255   8.250  19.926  0.00  0.00    +0.000 HD
BRANCH  20  27
ATOM     24  C   UNL     1       9.938  12.942  19.242  0.00  0.00    +0.000 A 
ATOM     25  C   UNL     1       9.989  12.192  20.420  0.00  0.00    +0.000 A 
ATOM     26  C   UNL     1       9.631  10.844  20.415  0.00  0.00    +0.000 A 
ATOM     27  C   UNL     1       9.224  10.219  19.236  0.00  0.00    +0.000 A 
ATOM     28  C   UNL     1       9.132  10.977  18.066  0.00  0.00    +0.000 A 
ATOM     29  C   UNL     1       9.494  12.333  18.064  0.00  0.00    +0.000 A 
BRANCH  24  30
ATOM     30  C   UNL     1      10.328  14.371  19.343  0.00  0.00    +0.000 C 
ATOM     31  O   UNL     1      10.024  15.207  18.509  0.00  0.00    +0.000 OA
BRANCH  30  32
ATOM     32  O   UNL     1      11.120  14.577  20.425  0.00  0.00    +0.000 OA
BRANCH  32  34
ATOM     33  C   UNL     1      10.880  16.484  21.844  0.00  0.00    +0.000 C 
ATOM     34  C   UNL     1      11.546  15.936  20.597  0.00  0.00    +0.000 C 
ENDBRANCH  32  34
ENDBRANCH  30  32
ENDBRANCH  24  30
ENDBRANCH  20  27
ENDBRANCH  19  21
ENDBRANCH   1  19
TORSDOF 12
ENDMDL
MODEL 4
REMARK VINA RESULT:      -6.9      4.820      7.572
REMARK  Name = 
REMARK  13 active torsions:
REMARK  status: ('A' for Active; 'I' for Inactive)
REMARK    1  A    between atoms: C_1  and  C_2
REMARK    2  A    between atoms: C_2  and  O_3
REMARK    3  A    between atoms: O_3  and  C_4
REMARK    4  A    between atoms: C_4  and  C_6
REMARK    5  A    between atoms: C_9  and  N_10
REMARK    6  A    between atoms: C_11  and  C_13
REMARK    7  A    between atoms: C_13  and  O_14
REMARK    8  A    between atoms: O_14  and  C_15
REMARK    9  A    between atoms: C_20  and  C_21
REMARK   10  A    between atoms: C_21  and  N_22
REMARK   11  A    between atoms: N_22  and  C_23
REMARK   12  A    between atoms: C_23  and  C_24
REMARK   13  A    between atoms: C_24  and  C_25
REMARK                            x       y       z     vdW  Elec       q    Type
REMARK                         _______ _______ _______ _____ _____    ______ ____
ROOT
ATOM      1  O   UNL     1       3.446   5.722  19.120  0.00  0.00    +0.000 OA
ENDROOT
BRANCH   1   2
ATOM      2  C   UNL     1       2.754   4.616  19.532  0.00  0.00    +0.000 A 
ATOM      3  C   UNL     1       2.392   4.652  20.888  0.00  0.00    +0.000 A 
ATOM      4  C   UNL     1       1.873   3.526  21.527  0.00  0.00    +0.000 A 
ATOM      5  C   UNL     1       1.710   2.347  20.815  0.00  0.00    +0.000 A 
ATOM      6  C   UNL     1       2.049   2.306  19.463  0.00  0.00    +0.000 A 
ATOM      7  C   UNL     1       2.585   3.431  18.797  0.00  0.00    +0.000 A 
BRANCH   7   8
ATOM      8  C   UNL     1       3.009   3.234  17.358  0.00  0.00    +0.000 C 
BRANCH   8   9
ATOM      9  N   UNL     1       4.459   3.199  17.143  0.00  0.00    +0.000 NA
ATOM     10  H   UNL     1       4.730   2.274  16.818  0.00  0.00    +0.000 HD
BRANCH   9  11
ATOM     11  C   UNL     1       4.939   4.164  16.150  0.00  0.00    +0.000 C 
BRANCH  11  12
ATOM     12  C   UNL     1       6.467   4.206  16.044  0.00  0.00    +0.000 C 
BRANCH  12  13
ATOM     13  C   UNL     1       7.045   5.230  16.975  0.00  0.00    +0.000 A 
ATOM     14  C   UNL     1       7.551   4.847  18.221  0.00  0.00    +0.000 A 
ATOM     15  C   UNL     1       8.078   5.801  19.091  0.00  0.00    +0.000 A 
ATOM     16  C   UNL     1       8.095   7.145  18.719  0.00  0.00    +0.000 A 
ATOM     17  C   UNL     1       7.579   7.536  17.484  0.00  0.00    +0.000 A 
ATOM     18  C   UNL     1       7.055   6.581  16.615  0.00  0.00    +0.000 A 
ENDBRANCH  12  13
ENDBRANCH  11  12
ENDBRANCH   9  11
ENDBRANCH   8   9
ENDBRANCH   7   8
ENDBRANCH   1   2
BRANCH   1  19
ATOM     19  C   UNL     1       2.828   6.555  18.144  0.00  0.00    +0.000 C 
BRANCH  19  21
ATOM     20  N   UNL     1       1.852   8.780  17.932  0.00  0.00    +0.000 N 
ATOM     21  C   UNL     1       2.233   7.789  18.820  0.00  0.00    +0.000 C 
ATOM     22  O   UNL     1       2.136   7.822  20.043  0.00  0.00    +0.000 OA
ATOM     23  H   UNL     1       2.012   8.575  16.950  0.00  0.00    +0.000 HD
BRANCH  20  27
ATOM     24  C   UNL     1       0.100  12.533  18.776  0.00  0.00    +0.000 A 
ATOM     25  C   UNL     1       1.483  12.433  18.603  0.00  0.00    +0.000 A 
ATOM     26  C   UNL     1       2.075  11.197  18.349  0.00  0.00    +0.000 A 
ATOM     27  C   UNL     1       1.301  10.041  18.253  0.00  0.00    +0.000 A 
ATOM     28  C   UNL     1      -0.078  10.131  18.467  0.00  0.00    +0.000 A 
ATOM     29  C   UNL     1      -0.680  11.373  18.722  0.00  0.00    +0.000 A 
BRANCH  24  30
ATOM     30  C   UNL     1      -0.442  13.887  19.053  0.00  0.00    +0.000 C 
ATOM     31  O   UNL     1       0.049  14.909  18.604  0.00  0.00    +0.000 OA
BRANCH  30  32
ATOM     32  O   UNL     1      -1.481  13.818  19.923  0.00  0.00    +0.000 OA
BRANCH  32  34
ATOM     33  C   UNL     1      -0.386  13.889  22.045  0.00  0.00    +0.000 C 
ATOM     34  C   UNL     1      -1.320  14.621  21.101  0.00  0.00    +0.000 C 
ENDBRANCH  32  34
ENDBRANCH  30  32
ENDBRANCH  24  30
ENDBRANCH  20  27
ENDBRANCH  19  21
ENDBRANCH   1  19
TORSDOF 12
ENDMDL
MODEL 5
REMARK VINA RESULT:      -6.9      4.879      8.342
REMARK  Name = 
REMARK  13 active torsions:
REMARK  status: ('A' for Active; 'I' for Inactive)
REMARK    1  A    between atoms: C_1  and  C_2
REMARK    2  A    between atoms: C_2  and  O_3
REMARK    3  A    between atoms: O_3  and  C_4
REMARK    4  A    between atoms: C_4  and  C_6
REMARK    5  A    between atoms: C_9  and  N_10
REMARK    6  A    between atoms: C_11  and  C_13
REMARK    7  A    between atoms: C_13  and  O_14
REMARK    8  A    between atoms: O_14  and  C_15
REMARK    9  A    between atoms: C_20  and  C_21
REMARK   10  A    between atoms: C_21  and  N_22
REMARK   11  A    between atoms: N_22  and  C_23
REMARK   12  A    between atoms: C_23  and  C_24
REMARK   13  A    between atoms: C_24  and  C_25
REMARK                            x       y       z     vdW  Elec       q    Type
REMARK                         _______ _______ _______ _____ _____    ______ ____
ROOT
ATOM      1  O   UNL     1       1.946   6.054  18.213  0.00  0.00    +0.000 OA
ENDROOT
BRANCH   1   2
ATOM      2  C   UNL     1       2.111   4.944  18.996  0.00  0.00    +0.000 A 
ATOM      3  C   UNL     1       1.771   5.152  20.342  0.00  0.00    +0.000 A 
ATOM      4  C   UNL     1       2.075   4.203  21.318  0.00  0.00    +0.000 A 
ATOM      5  C   UNL     1       2.727   3.032  20.958  0.00  0.00    +0.000 A 
ATOM      6  C   UNL     1       3.052   2.808  19.620  0.00  0.00    +0.000 A 
ATOM      7  C   UNL     1       2.762   3.759  18.616  0.00  0.00    +0.000 A 
BRANCH   7   8
ATOM      8  C   UNL     1       3.255   3.449  17.220  0.00  0.00    +0.000 C 
BRANCH   8   9
ATOM      9  N   UNL     1       4.352   4.301  16.751  0.00  0.00    +0.000 NA
ATOM     10  H   UNL     1       4.768   4.785  17.544  0.00  0.00    +0.000 HD
BRANCH   9  11
ATOM     11  C   UNL     1       5.430   3.571  16.078  0.00  0.00    +0.000 C 
BRANCH  11  12
ATOM     12  C   UNL     1       6.559   4.484  15.589  0.00  0.00    +0.000 C 
BRANCH  12  13
ATOM     13  C   UNL     1       7.108   5.313  16.712  0.00  0.00    +0.000 A 
ATOM     14  C   UNL     1       7.599   4.700  17.868  0.00  0.00    +0.000 A 
ATOM     15  C   UNL     1       8.099   5.472  18.917  0.00  0.00    +0.000 A 
ATOM     16  C   UNL     1       8.103   6.863  18.814  0.00  0.00    +0.000 A 
ATOM     17  C   UNL     1       7.601   7.482  17.669  0.00  0.00    +0.000 A 
ATOM     18  C   UNL     1       7.104   6.708  16.621  0.00  0.00    +0.000 A 
ENDBRANCH  12  13
ENDBRANCH  11  12
ENDBRANCH   9  11
ENDBRANCH   8   9
ENDBRANCH   7   8
ENDBRANCH   1   2
BRANCH   1  19
ATOM     19  C   UNL     1       2.886   7.112  18.370  0.00  0.00    +0.000 C 
BRANCH  19  21
ATOM     20  N   UNL     1       1.362   8.686  19.443  0.00  0.00    +0.000 N 
ATOM     21  C   UNL     1       2.161   8.456  18.336  0.00  0.00    +0.000 C 
ATOM     22  O   UNL     1       2.324   9.207  17.379  0.00  0.00    +0.000 OA
ATOM     23  H   UNL     1       1.350   7.944  20.136  0.00  0.00    +0.000 HD
BRANCH  20  27
ATOM     24  C   UNL     1      -1.092  12.017  20.308  0.00  0.00    +0.000 A 
ATOM     25  C   UNL     1      -1.326  11.259  19.157  0.00  0.00    +0.000 A 
ATOM     26  C   UNL     1      -0.508  10.173  18.848  0.00  0.00    +0.000 A 
ATOM     27  C   UNL     1       0.551   9.817  19.683  0.00  0.00    +0.000 A 
ATOM     28  C   UNL     1       0.812  10.598  20.813  0.00  0.00    +0.000 A 
ATOM     29  C   UNL     1      -0.008  11.691  21.130  0.00  0.00    +0.000 A 
BRANCH  24  30
ATOM     30  C   UNL     1      -2.006  13.161  20.552  0.00  0.00    +0.000 C 
ATOM     31  O   UNL     1      -1.676  14.325  20.400  0.00  0.00    +0.000 OA
BRANCH  30  32
ATOM     32  O   UNL     1      -3.197  12.728  21.036  0.00  0.00    +0.000 OA
BRANCH  32  34
ATOM     33  C   UNL     1      -3.084  12.312  23.387  0.00  0.00    +0.000 C 
ATOM     34  C   UNL     1      -3.551  13.277  22.314  0.00  0.00    +0.000 C 
ENDBRANCH  32  34
ENDBRANCH  30  32
ENDBRANCH  24  30
ENDBRANCH  20  27
ENDBRANCH  19  21
ENDBRANCH   1  19
TORSDOF 12
ENDMDL
MODEL 6
REMARK VINA RESULT:      -6.8      4.909      8.329
REMARK  Name = 
REMARK  13 active torsions:
REMARK  status: ('A' for Active; 'I' for Inactive)
REMARK    1  A    between atoms: C_1  and  C_2
REMARK    2  A    between atoms: C_2  and  O_3
REMARK    3  A    between atoms: O_3  and  C_4
REMARK    4  A    between atoms: C_4  and  C_6
REMARK    5  A    between atoms: C_9  and  N_10
REMARK    6  A    between atoms: C_11  and  C_13
REMARK    7  A    between atoms: C_13  and  O_14
REMARK    8  A    between atoms: O_14  and  C_15
REMARK    9  A    between atoms: C_20  and  C_21
REMARK   10  A    between atoms: C_21  and  N_22
REMARK   11  A    between atoms: N_22  and  C_23
REMARK   12  A    between atoms: C_23  and  C_24
REMARK   13  A    between atoms: C_24  and  C_25
REMARK                            x       y       z     vdW  Elec       q    Type
REMARK                         _______ _______ _______ _____ _____    ______ ____
ROOT
ATOM      1  O   UNL     1       2.287   5.720  18.513  0.00  0.00    +0.000 OA
ENDROOT
BRANCH   1   2
ATOM      2  C   UNL     1       2.297   4.554  19.229  0.00  0.00    +0.000 A 
ATOM      3  C   UNL     1       1.365   4.533  20.279  0.00  0.00    +0.000 A 
ATOM      4  C   UNL     1       1.381   3.520  21.239  0.00  0.00    +0.000 A 
ATOM      5  C   UNL     1       2.334   2.514  21.159  0.00  0.00    +0.000 A 
ATOM      6  C   UNL     1       3.251   2.516  20.108  0.00  0.00    +0.000 A 
ATOM      7  C   UNL     1       3.259   3.537  19.130  0.00  0.00    +0.000 A 
BRANCH   7   8
ATOM      8  C   UNL     1       4.366   3.486  18.101  0.00  0.00    +0.000 C 
BRANCH   8   9
ATOM      9  N   UNL     1       3.953   3.823  16.736  0.00  0.00    +0.000 NA
ATOM     10  H   UNL     1       3.083   4.350  16.765  0.00  0.00    +0.000 HD
BRANCH   9  11
ATOM     11  C   UNL     1       4.925   4.638  16.001  0.00  0.00    +0.000 C 
BRANCH  11  12
ATOM     12  C   UNL     1       6.378   4.289  16.338  0.00  0.00    +0.000 C 
BRANCH  12  13
ATOM     13  C   UNL     1       7.022   5.377  17.145  0.00  0.00    +0.000 A 
ATOM     14  C   UNL     1       7.606   5.088  18.382  0.00  0.00    +0.000 A 
ATOM     15  C   UNL     1       8.195   6.103  19.137  0.00  0.00    +0.000 A 
ATOM     16  C   UNL     1       8.195   7.413  18.659  0.00  0.00    +0.000 A 
ATOM     17  C   UNL     1       7.601   7.711  17.433  0.00  0.00    +0.000 A 
ATOM     18  C   UNL     1       7.015   6.695  16.679  0.00  0.00    +0.000 A 
ENDBRANCH  12  13
ENDBRANCH  11  12
ENDBRANCH   9  11
ENDBRANCH   8   9
ENDBRANCH   7   8
ENDBRANCH   1   2
BRANCH   1  19
ATOM     19  C   UNL     1       2.981   6.834  19.065  0.00  0.00    +0.000 C 
BRANCH  19  21
ATOM     20  N   UNL     1       1.669   8.102  20.684  0.00  0.00    +0.000 N 
ATOM     21  C   UNL     1       1.999   7.968  19.346  0.00  0.00    +0.000 C 
ATOM     22  O   UNL     1       1.584   8.654  18.415  0.00  0.00    +0.000 OA
ATOM     23  H   UNL     1       2.111   7.438  21.312  0.00  0.00    +0.000 HD
BRANCH  20  27
ATOM     24  C   UNL     1      -0.937  11.006  22.308  0.00  0.00    +0.000 A 
ATOM     25  C   UNL     1      -0.413  10.003  23.128  0.00  0.00    +0.000 A 
ATOM     26  C   UNL     1       0.428   9.025  22.599  0.00  0.00    +0.000 A 
ATOM     27  C   UNL     1       0.769   9.033  21.247  0.00  0.00    +0.000 A 
ATOM     28  C   UNL     1       0.213  10.010  20.416  0.00  0.00    +0.000 A 
ATOM     29  C   UNL     1      -0.632  10.998  20.943  0.00  0.00    +0.000 A 
BRANCH  24  30
ATOM     30  C   UNL     1      -1.831  11.999  22.955  0.00  0.00    +0.000 C 
ATOM     31  O   UNL     1      -3.045  11.978  22.844  0.00  0.00    +0.000 OA
BRANCH  30  32
ATOM     32  O   UNL     1      -1.107  12.951  23.595  0.00  0.00    +0.000 OA
BRANCH  32  34
ATOM     33  C   UNL     1      -1.540  15.289  23.824  0.00  0.00    +0.000 C 
ATOM     34  C   UNL     1      -1.028  14.203  22.898  0.00  0.00    +0.000 C 
ENDBRANCH  32  34
ENDBRANCH  30  32
ENDBRANCH  24  30
ENDBRANCH  20  27
ENDBRANCH  19  21
ENDBRANCH   1  19
TORSDOF 12
ENDMDL
MODEL 7
REMARK VINA RESULT:      -6.8      0.765      1.431
REMARK  Name = 
REMARK  13 active torsions:
REMARK  status: ('A' for Active; 'I' for Inactive)
REMARK    1  A    between atoms: C_1  and  C_2
REMARK    2  A    between atoms: C_2  and  O_3
REMARK    3  A    between atoms: O_3  and  C_4
REMARK    4  A    between atoms: C_4  and  C_6
REMARK    5  A    between atoms: C_9  and  N_10
REMARK    6  A    between atoms: C_11  and  C_13
REMARK    7  A    between atoms: C_13  and  O_14
REMARK    8  A    between atoms: O_14  and  C_15
REMARK    9  A    between atoms: C_20  and  C_21
REMARK   10  A    between atoms: C_21  and  N_22
REMARK   11  A    between atoms: N_22  and  C_23
REMARK   12  A    between atoms: C_23  and  C_24
REMARK   13  A    between atoms: C_24  and  C_25
REMARK                            x       y       z     vdW  Elec       q    Type
REMARK                         _______ _______ _______ _____ _____    ______ ____
ROOT
ATOM      1  O   UNL     1       6.785   6.291  18.725  0.00  0.00    +0.000 OA
ENDROOT
BRANCH   1   2
ATOM      2  C   UNL     1       6.250   5.645  17.645  0.00  0.00    +0.000 A 
ATOM      3  C   UNL     1       7.062   4.612  17.150  0.00  0.00    +0.000 A 
ATOM      4  C   UNL     1       6.779   3.990  15.933  0.00  0.00    +0.000 A 
ATOM      5  C   UNL     1       5.676   4.396  15.196  0.00  0.00    +0.000 A 
ATOM      6  C   UNL     1       4.852   5.408  15.688  0.00  0.00    +0.000 A 
ATOM      7  C   UNL     1       5.125   6.058  16.913  0.00  0.00    +0.000 A 
BRANCH   7   8
ATOM      8  C   UNL     1       4.219   7.209  17.292  0.00  0.00    +0.000 C 
BRANCH   8   9
ATOM      9  N   UNL     1       2.997   6.821  18.002  0.00  0.00    +0.000 NA
ATOM     10  H   UNL     1       2.601   5.991  17.568  0.00  0.00    +0.000 HD
BRANCH   9  11
ATOM     11  C   UNL     1       3.203   6.509  19.420  0.00  0.00    +0.000 C 
BRANCH  11  12
ATOM     12  C   UNL     1       2.148   5.552  19.984  0.00  0.00    +0.000 C 
BRANCH  12  13
ATOM     13  C   UNL     1       2.342   4.162  19.456  0.00  0.00    +0.000 A 
ATOM     14  C   UNL     1       1.243   3.323  19.253  0.00  0.00    +0.000 A 
ATOM     15  C   UNL     1       1.426   2.026  18.773  0.00  0.00    +0.000 A 
ATOM     16  C   UNL     1       2.712   1.561  18.500  0.00  0.00    +0.000 A 
ATOM     17  C   UNL     1       3.814   2.388  18.714  0.00  0.00    +0.000 A 
ATOM     18  C   UNL     1       3.630   3.685  19.191  0.00  0.00    +0.000 A 
ENDBRANCH  12  13
ENDBRANCH  11  12
ENDBRANCH   9  11
ENDBRANCH   8   9
ENDBRANCH   7   8
ENDBRANCH   1   2
BRANCH   1  19
ATOM     19  C   UNL     1       8.153   6.679  18.644  0.00  0.00    +0.000 C 
BRANCH  19  21
ATOM     20  N   UNL     1       9.035   8.883  19.206  0.00  0.00    +0.000 N 
ATOM     21  C   UNL     1       8.250   8.168  18.318  0.00  0.00    +0.000 C 
ATOM     22  O   UNL     1       7.655   8.613  17.340  0.00  0.00    +0.000 OA
ATOM     23  H   UNL     1       9.447   8.342  19.961  0.00  0.00    +0.000 HD
BRANCH  20  27
ATOM     24  C   UNL     1       9.937  13.010  19.081  0.00  0.00    +0.000 A 
ATOM     25  C   UNL     1       9.482  12.433  20.269  0.00  0.00    +0.000 A 
ATOM     26  C   UNL     1       9.157  11.077  20.316  0.00  0.00    +0.000 A 
ATOM     27  C   UNL     1       9.289  10.272  19.185  0.00  0.00    +0.000 A 
ATOM     28  C   UNL     1       9.704  10.856  17.985  0.00  0.00    +0.000 A 
ATOM     29  C   UNL     1      10.034  12.219  17.931  0.00  0.00    +0.000 A 
BRANCH  24  30
ATOM     30  C   UNL     1      10.249  14.462  19.120  0.00  0.00    +0.000 C 
ATOM     31  O   UNL     1      10.696  15.023  20.106  0.00  0.00    +0.000 OA
BRANCH  30  32
ATOM     32  O   UNL     1       9.890  15.060  17.957  0.00  0.00    +0.000 OA
BRANCH  32  34
ATOM     33  C   UNL     1       7.665  15.925  18.063  0.00  0.00    +0.000 C 
ATOM     34  C   UNL     1       9.140  16.272  18.122  0.00  0.00    +0.000 C 
ENDBRANCH  32  34
ENDBRANCH  30  32
ENDBRANCH  24  30
ENDBRANCH  20  27
ENDBRANCH  19  21
ENDBRANCH   1  19
TORSDOF 12
ENDMDL
MODEL 8
REMARK VINA RESULT:      -6.8      5.082      8.593
REMARK  Name = 
REMARK  13 active torsions:
REMARK  status: ('A' for Active; 'I' for Inactive)
REMARK    1  A    between atoms: C_1  and  C_2
REMARK    2  A    between atoms: C_2  and  O_3
REMARK    3  A    between atoms: O_3  and  C_4
REMARK    4  A    between atoms: C_4  and  C_6
REMARK    5  A    between atoms: C_9  and  N_10
REMARK    6  A    between atoms: C_11  and  C_13
REMARK    7  A    between atoms: C_13  and  O_14
REMARK    8  A    between atoms: O_14  and  C_15
REMARK    9  A    between atoms: C_20  and  C_21
REMARK   10  A    between atoms: C_21  and  N_22
REMARK   11  A    between atoms: N_22  and  C_23
REMARK   12  A    between atoms: C_23  and  C_24
REMARK   13  A    between atoms: C_24  and  C_25
REMARK                            x       y       z     vdW  Elec       q    Type
REMARK                         _______ _______ _______ _____ _____    ______ ____
ROOT
ATOM      1  O   UNL     1       2.147   5.982  18.492  0.00  0.00    +0.000 OA
ENDROOT
BRANCH   1   2
ATOM      2  C   UNL     1       2.297   4.783  19.133  0.00  0.00    +0.000 A 
ATOM      3  C   UNL     1       1.906   4.813  20.481  0.00  0.00    +0.000 A 
ATOM      4  C   UNL     1       2.186   3.750  21.339  0.00  0.00    +0.000 A 
ATOM      5  C   UNL     1       2.864   2.639  20.856  0.00  0.00    +0.000 A 
ATOM      6  C   UNL     1       3.240   2.591  19.514  0.00  0.00    +0.000 A 
ATOM      7  C   UNL     1       2.975   3.660  18.629  0.00  0.00    +0.000 A 
BRANCH   7   8
ATOM      8  C   UNL     1       3.522   3.535  17.225  0.00  0.00    +0.000 C 
BRANCH   8   9
ATOM      9  N   UNL     1       4.969   3.732  17.108  0.00  0.00    +0.000 NA
ATOM     10  H   UNL     1       5.451   3.081  17.723  0.00  0.00    +0.000 HD
BRANCH   9  11
ATOM     11  C   UNL     1       5.495   3.518  15.756  0.00  0.00    +0.000 C 
BRANCH  11  12
ATOM     12  C   UNL     1       6.886   4.125  15.549  0.00  0.00    +0.000 C 
BRANCH  12  13
ATOM     13  C   UNL     1       7.234   5.070  16.661  0.00  0.00    +0.000 A 
ATOM     14  C   UNL     1       7.698   4.579  17.885  0.00  0.00    +0.000 A 
ATOM     15  C   UNL     1       8.010   5.458  18.923  0.00  0.00    +0.000 A 
ATOM     16  C   UNL     1       7.854   6.832  18.741  0.00  0.00    +0.000 A 
ATOM     17  C   UNL     1       7.378   7.326  17.526  0.00  0.00    +0.000 A 
ATOM     18  C   UNL     1       7.068   6.447  16.490  0.00  0.00    +0.000 A 
ENDBRANCH  12  13
ENDBRANCH  11  12
ENDBRANCH   9  11
ENDBRANCH   8   9
ENDBRANCH   7   8
ENDBRANCH   1   2
BRANCH   1  19
ATOM     19  C   UNL     1       2.915   7.081  18.972  0.00  0.00    +0.000 C 
BRANCH  19  21
ATOM     20  N   UNL     1       1.793   8.414  20.679  0.00  0.00    +0.000 N 
ATOM     21  C   UNL     1       1.991   8.246  19.319  0.00  0.00    +0.000 C 
ATOM     22  O   UNL     1       1.506   8.923  18.417  0.00  0.00    +0.000 OA
ATOM     23  H   UNL     1       2.277   7.751  21.277  0.00  0.00    +0.000 HD
BRANCH  20  27
ATOM     24  C   UNL     1      -0.780  11.196  22.551  0.00  0.00    +0.000 A 
ATOM     25  C   UNL     1      -0.095  11.554  21.387  0.00  0.00    +0.000 A 
ATOM     26  C   UNL     1       0.775  10.654  20.773  0.00  0.00    +0.000 A 
ATOM     27  C   UNL     1       0.972   9.379  21.303  0.00  0.00    +0.000 A 
ATOM     28  C   UNL     1       0.321   9.033  22.491  0.00  0.00    +0.000 A 
ATOM     29  C   UNL     1      -0.557   9.934  23.112  0.00  0.00    +0.000 A 
BRANCH  24  30
ATOM     30  C   UNL     1      -1.677  12.221  23.141  0.00  0.00    +0.000 C 
ATOM     31  O   UNL     1      -1.345  13.382  23.313  0.00  0.00    +0.000 OA
BRANCH  30  32
ATOM     32  O   UNL     1      -2.853  11.665  23.524  0.00  0.00    +0.000 OA
BRANCH  32  34
ATOM     33  C   UNL     1      -4.726  12.336  24.848  0.00  0.00    +0.000 C 
ATOM     34  C   UNL     1      -3.956  12.582  23.565  0.00  0.00    +0.000 C 
ENDBRANCH  32  34
ENDBRANCH  30  32
ENDBRANCH  24  30
ENDBRANCH  20  27
ENDBRANCH  19  21
ENDBRANCH   1  19
TORSDOF 12
ENDMDL
MODEL 9
REMARK VINA RESULT:      -6.8      5.905      8.183
REMARK  Name = 
REMARK  13 active torsions:
REMARK  status: ('A' for Active; 'I' for Inactive)
REMARK    1  A    between atoms: C_1  and  C_2
REMARK    2  A    between atoms: C_2  and  O_3
REMARK    3  A    between atoms: O_3  and  C_4
REMARK    4  A    between atoms: C_4  and  C_6
REMARK    5  A    between atoms: C_9  and  N_10
REMARK    6  A    between atoms: C_11  and  C_13
REMARK    7  A    between atoms: C_13  and  O_14
REMARK    8  A    between atoms: O_14  and  C_15
REMARK    9  A    between atoms: C_20  and  C_21
REMARK   10  A    between atoms: C_21  and  N_22
REMARK   11  A    between atoms: N_22  and  C_23
REMARK   12  A    between atoms: C_23  and  C_24
REMARK   13  A    between atoms: C_24  and  C_25
REMARK                            x       y       z     vdW  Elec       q    Type
REMARK                         _______ _______ _______ _____ _____    ______ ____
ROOT
ATOM      1  O   UNL     1       2.137   8.112  17.527  0.00  0.00    +0.000 OA
ENDROOT
BRANCH   1   2
ATOM      2  C   UNL     1       3.171   7.350  17.997  0.00  0.00    +0.000 A 
ATOM      3  C   UNL     1       4.184   7.132  17.050  0.00  0.00    +0.000 A 
ATOM      4  C   UNL     1       5.204   6.209  17.282  0.00  0.00    +0.000 A 
ATOM      5  C   UNL     1       5.223   5.491  18.469  0.00  0.00    +0.000 A 
ATOM      6  C   UNL     1       4.231   5.714  19.425  0.00  0.00    +0.000 A 
ATOM      7  C   UNL     1       3.184   6.637  19.207  0.00  0.00    +0.000 A 
BRANCH   7   8
ATOM      8  C   UNL     1       2.112   6.716  20.272  0.00  0.00    +0.000 C 
BRANCH   8   9
ATOM      9  N   UNL     1       1.889   5.471  21.014  0.00  0.00    +0.000 NA
ATOM     10  H   UNL     1       1.761   5.683  22.001  0.00  0.00    +0.000 HD
BRANCH   9  11
ATOM     11  C   UNL     1       0.708   4.720  20.578  0.00  0.00    +0.000 C 
BRANCH  11  12
ATOM     12  C   UNL     1       0.980   3.223  20.400  0.00  0.00    +0.000 C 
BRANCH  12  13
ATOM     13  C   UNL     1       1.946   2.979  19.278  0.00  0.00    +0.000 A 
ATOM     14  C   UNL     1       1.721   3.541  18.018  0.00  0.00    +0.000 A 
ATOM     15  C   UNL     1       2.613   3.305  16.972  0.00  0.00    +0.000 A 
ATOM     16  C   UNL     1       3.732   2.499  17.183  0.00  0.00    +0.000 A 
ATOM     17  C   UNL     1       3.954   1.924  18.433  0.00  0.00    +0.000 A 
ATOM     18  C   UNL     1       3.063   2.163  19.478  0.00  0.00    +0.000 A 
ENDBRANCH  12  13
ENDBRANCH  11  12
ENDBRANCH   9  11
ENDBRANCH   8   9
ENDBRANCH   7   8
ENDBRANCH   1   2
BRANCH   1  19
ATOM     19  C   UNL     1       2.203   9.517  17.755  0.00  0.00    +0.000 C 
BRANCH  19  21
ATOM     20  N   UNL     1       1.193  10.641  19.669  0.00  0.00    +0.000 N 
ATOM     21  C   UNL     1       0.942   9.983  18.477  0.00  0.00    +0.000 C 
ATOM     22  O   UNL     1      -0.159   9.756  17.981  0.00  0.00    +0.000 OA
ATOM     23  H   UNL     1       2.173  10.733  19.920  0.00  0.00    +0.000 HD
BRANCH  20  27
ATOM     24  C   UNL     1      -1.733  12.050  22.374  0.00  0.00    +0.000 A 
ATOM     25  C   UNL     1      -1.526  12.716  21.163  0.00  0.00    +0.000 A 
ATOM     26  C   UNL     1      -0.547  12.275  20.273  0.00  0.00    +0.000 A 
ATOM     27  C   UNL     1       0.237  11.160  20.569  0.00  0.00    +0.000 A 
ATOM     28  C   UNL     1       0.060  10.517  21.798  0.00  0.00    +0.000 A 
ATOM     29  C   UNL     1      -0.925  10.954  22.697  0.00  0.00    +0.000 A 
BRANCH  24  30
ATOM     30  C   UNL     1      -2.789  12.594  23.264  0.00  0.00    +0.000 C 
ATOM     31  O   UNL     1      -3.889  12.082  23.387  0.00  0.00    +0.000 OA
BRANCH  30  32
ATOM     32  O   UNL     1      -2.384  13.757  23.832  0.00  0.00    +0.000 OA
BRANCH  32  34
ATOM     33  C   UNL     1      -2.510  15.272  25.676  0.00  0.00    +0.000 C 
ATOM     34  C   UNL     1      -3.274  14.266  24.837  0.00  0.00    +0.000 C 
ENDBRANCH  32  34
ENDBRANCH  30  32
ENDBRANCH  24  30
ENDBRANCH  20  27
ENDBRANCH  19  21
ENDBRANCH   1  19
TORSDOF 12
ENDMDL
