MODEL 1
REMARK VINA RESULT:      -8.1      0.000      0.000
REMARK  Name = 
REMARK  10 active torsions:
REMARK  status: ('A' for Active; 'I' for Inactive)
REMARK    1  A    between atoms: C_1  and  O_2
REMARK    2  A    between atoms: O_2  and  C_3
REMARK    3  A    between atoms: C_3  and  C_4
REMARK    4  A    between atoms: C_4  and  N_5
REMARK    5  A    between atoms: C_6  and  C_8
REMARK    6  A    between atoms: C_8  and  N_9
REMARK    7  A    between atoms: C_11  and  C_12
REMARK    8  A    between atoms: C_14  and  C_15
REMARK    9  A    between atoms: N_16  and  C_17
REMARK   10  A    between atoms: C_20  and  C_21
REMARK                            x       y       z     vdW  Elec       q    Type
REMARK                         _______ _______ _______ _____ _____    ______ ____
ROOT
ATOM      1  N   UNL     1       6.081   4.911  16.376  0.00  0.00    +0.000 N 
ATOM      2  N   UNL     1       5.358   3.764  16.714  0.00  0.00    +0.000 NA
ATOM      3  C   UNL     1       4.253   3.835  17.399  0.00  0.00    +0.000 A 
ATOM      4  C   UNL     1       3.535   2.556  17.720  0.00  0.00    +0.000 C 
ATOM      5  C   UNL     1       3.753   5.125  17.807  0.00  0.00    +0.000 A 
ATOM      6  C   UNL     1       2.634   5.541  18.506  0.00  0.00    +0.000 A 
ATOM      7  C   UNL     1       1.482   4.760  19.032  0.00  0.00    +0.000 C 
ATOM      8  N   UNL     1       2.743   6.934  18.594  0.00  0.00    +0.000 N 
ATOM      9  N   UNL     1       3.793   7.394  17.851  0.00  0.00    +0.000 NA
ATOM     10  C   UNL     1       4.447   6.292  17.460  0.00  0.00    +0.000 A 
ATOM     11  C   UNL     1       5.714   6.226  16.726  0.00  0.00    +0.000 A 
ATOM     12  O   UNL     1       6.407   7.205  16.450  0.00  0.00    +0.000 OA
ENDROOT
BRANCH   8  13
ATOM     13  C   UNL     1       1.947   7.858  19.344  0.00  0.00    +0.000 A 
ATOM     14  C   UNL     1       1.713   7.679  20.713  0.00  0.00    +0.000 A 
ATOM     15  C   UNL     1       0.968   8.610  21.445  0.00  0.00    +0.000 A 
ATOM     16  C   UNL     1       0.452   9.749  20.829  0.00  0.00    +0.000 A 
ATOM     17  C   UNL     1      -0.297  10.770  21.635  0.00  0.00    +0.000 C 
ATOM     18  C   UNL     1       0.674   9.932  19.460  0.00  0.00    +0.000 A 
ATOM     19  C   UNL     1       1.426   9.002  18.723  0.00  0.00    +0.000 A 
ENDBRANCH   8  13
BRANCH   1  20
ATOM     20  C   UNL     1       7.279   4.674  15.569  0.00  0.00    +0.000 C 
BRANCH  20  22
ATOM     21  N   UNL     1       6.216   3.511  13.681  0.00  0.00    +0.000 N 
ATOM     22  C   UNL     1       6.980   4.588  14.072  0.00  0.00    +0.000 C 
ATOM     23  O   UNL     1       7.467   5.377  13.261  0.00  0.00    +0.000 OA
ATOM     24  H   UNL     1       6.086   2.745  14.335  0.00  0.00    +0.000 HD
BRANCH  21  25
ATOM     25  C   UNL     1       5.910   3.258  12.281  0.00  0.00    +0.000 C 
BRANCH  25  26
ATOM     26  C   UNL     1       4.446   3.518  11.914  0.00  0.00    +0.000 C 
BRANCH  26  28
ATOM     27  C   UNL     1       3.162   3.930   9.977  0.00  0.00    +0.000 C 
ATOM     28  O   UNL     1       4.230   3.178  10.540  0.00  0.00    +0.000 OA
ENDBRANCH  26  28
ENDBRANCH  25  26
ENDBRANCH  21  25
ENDBRANCH  20  22
ENDBRANCH   1  20
TORSDOF 6
ENDMDL
MODEL 2
REMARK VINA RESULT:      -7.7      1.196      1.319
REMARK  Name = 
REMARK  10 active torsions:
REMARK  status: ('A' for Active; 'I' for Inactive)
REMARK    1  A    between atoms: C_1  and  O_2
REMARK    2  A    between atoms: O_2  and  C_3
REMARK    3  A    between atoms: C_3  and  C_4
REMARK    4  A    between atoms: C_4  and  N_5
REMARK    5  A    between atoms: C_6  and  C_8
REMARK    6  A    between atoms: C_8  and  N_9
REMARK    7  A    between atoms: C_11  and  C_12
REMARK    8  A    between atoms: C_14  and  C_15
REMARK    9  A    between atoms: N_16  and  C_17
REMARK   10  A    between atoms: C_20  and  C_21
REMARK                            x       y       z     vdW  Elec       q    Type
REMARK                         _______ _______ _______ _____ _____    ______ ____
ROOT
ATOM      1  N   UNL     1       6.031   4.959  17.161  0.00  0.00    +0.000 N 
ATOM      2  N   UNL     1       5.519   3.907  17.924  0.00  0.00    +0.000 NA
ATOM      3  C   UNL     1       4.469   4.062  18.677  0.00  0.00    +0.000 A 
ATOM      4  C   UNL     1       3.980   2.881  19.464  0.00  0.00    +0.000 C 
ATOM      5  C   UNL     1       3.807   5.343  18.717  0.00  0.00    +0.000 A 
ATOM      6  C   UNL     1       2.691   5.824  19.376  0.00  0.00    +0.000 A 
ATOM      7  C   UNL     1       1.713   5.124  20.252  0.00  0.00    +0.000 C 
ATOM      8  N   UNL     1       2.591   7.173  19.010  0.00  0.00    +0.000 N 
ATOM      9  N   UNL     1       3.501   7.489  18.043  0.00  0.00    +0.000 NA
ATOM     10  C   UNL     1       4.287   6.409  17.942  0.00  0.00    +0.000 A 
ATOM     11  C   UNL     1       5.493   6.262  17.122  0.00  0.00    +0.000 A 
ATOM     12  O   UNL     1       6.006   7.174  16.473  0.00  0.00    +0.000 OA
ENDROOT
BRANCH   8  13
ATOM     13  C   UNL     1       1.719   8.187  19.521  0.00  0.00    +0.000 A 
ATOM     14  C   UNL     1       1.381   8.245  20.879  0.00  0.00    +0.000 A 
ATOM     15  C   UNL     1       0.561   9.264  21.374  0.00  0.00    +0.000 A 
ATOM     16  C   UNL     1       0.071  10.258  20.528  0.00  0.00    +0.000 A 
ATOM     17  C   UNL     1      -0.761  11.378  21.079  0.00  0.00    +0.000 C 
ATOM     18  C   UNL     1       0.397  10.202  19.169  0.00  0.00    +0.000 A 
ATOM     19  C   UNL     1       1.225   9.183  18.668  0.00  0.00    +0.000 A 
ENDBRANCH   8  13
BRANCH   1  20
ATOM     20  C   UNL     1       7.191   4.620  16.334  0.00  0.00    +0.000 C 
BRANCH  20  22
ATOM     21  N   UNL     1       5.837   3.943  14.395  0.00  0.00    +0.000 N 
ATOM     22  C   UNL     1       6.897   4.705  14.836  0.00  0.00    +0.000 C 
ATOM     23  O   UNL     1       7.616   5.339  14.063  0.00  0.00    +0.000 OA
ATOM     24  H   UNL     1       5.466   3.227  15.011  0.00  0.00    +0.000 HD
BRANCH  21  25
ATOM     25  C   UNL     1       5.484   3.867  12.986  0.00  0.00    +0.000 C 
BRANCH  25  26
ATOM     26  C   UNL     1       6.375   2.919  12.178  0.00  0.00    +0.000 C 
BRANCH  26  28
ATOM     27  C   UNL     1       6.347   0.902  10.953  0.00  0.00    +0.000 C 
ATOM     28  O   UNL     1       5.561   1.947  11.513  0.00  0.00    +0.000 OA
ENDBRANCH  26  28
ENDBRANCH  25  26
ENDBRANCH  21  25
ENDBRANCH  20  22
ENDBRANCH   1  20
TORSDOF 6
ENDMDL
MODEL 3
REMARK VINA RESULT:      -6.8      6.055     10.388
REMARK  Name = 
REMARK  10 active torsions:
REMARK  status: ('A' for Active; 'I' for Inactive)
REMARK    1  A    between atoms: C_1  and  O_2
REMARK    2  A    between atoms: O_2  and  C_3
REMARK    3  A    between atoms: C_3  and  C_4
REMARK    4  A    between atoms: C_4  and  N_5
REMARK    5  A    between atoms: C_6  and  C_8
REMARK    6  A    between atoms: C_8  and  N_9
REMARK    7  A    between atoms: C_11  and  C_12
REMARK    8  A    between atoms: C_14  and  C_15
REMARK    9  A    between atoms: N_16  and  C_17
REMARK   10  A    between atoms: C_20  and  C_21
REMARK                            x       y       z     vdW  Elec       q    Type
REMARK                         _______ _______ _______ _____ _____    ______ ____
ROOT
ATOM      1  N   UNL     1      -0.576  11.698  22.078  0.00  0.00    +0.000 N 
ATOM      2  N   UNL     1      -0.464  12.237  20.793  0.00  0.00    +0.000 NA
ATOM      3  C   UNL     1       0.083  11.566  19.820  0.00  0.00    +0.000 A 
ATOM      4  C   UNL     1       0.162  12.215  18.469  0.00  0.00    +0.000 C 
ATOM      5  C   UNL     1       0.572  10.231  20.066  0.00  0.00    +0.000 A 
ATOM      6  C   UNL     1       1.169   9.270  19.272  0.00  0.00    +0.000 A 
ATOM      7  C   UNL     1       1.455   9.268  17.812  0.00  0.00    +0.000 C 
ATOM      8  N   UNL     1       1.431   8.189  20.124  0.00  0.00    +0.000 N 
ATOM      9  N   UNL     1       0.882   8.391  21.357  0.00  0.00    +0.000 NA
ATOM     10  C   UNL     1       0.450   9.659  21.339  0.00  0.00    +0.000 A 
ATOM     11  C   UNL     1      -0.124  10.417  22.455  0.00  0.00    +0.000 A 
ATOM     12  O   UNL     1      -0.198  10.000  23.611  0.00  0.00    +0.000 OA
ENDROOT
BRANCH   8  13
ATOM     13  C   UNL     1       2.178   6.995  19.867  0.00  0.00    +0.000 A 
ATOM     14  C   UNL     1       3.222   6.972  18.934  0.00  0.00    +0.000 A 
ATOM     15  C   UNL     1       3.972   5.810  18.721  0.00  0.00    +0.000 A 
ATOM     16  C   UNL     1       3.707   4.649  19.447  0.00  0.00    +0.000 A 
ATOM     17  C   UNL     1       4.554   3.426  19.252  0.00  0.00    +0.000 C 
ATOM     18  C   UNL     1       2.661   4.662  20.375  0.00  0.00    +0.000 A 
ATOM     19  C   UNL     1       1.908   5.828  20.595  0.00  0.00    +0.000 A 
ENDBRANCH   8  13
BRANCH   1  20
ATOM     20  C   UNL     1      -1.250  12.555  23.054  0.00  0.00    +0.000 C 
BRANCH  20  22
ATOM     21  N   UNL     1      -3.384  13.131  21.976  0.00  0.00    +0.000 N 
ATOM     22  C   UNL     1      -2.773  12.437  22.997  0.00  0.00    +0.000 C 
ATOM     23  O   UNL     1      -3.415  11.836  23.860  0.00  0.00    +0.000 OA
ATOM     24  H   UNL     1      -2.846  13.832  21.477  0.00  0.00    +0.000 HD
BRANCH  21  25
ATOM     25  C   UNL     1      -4.832  13.170  21.839  0.00  0.00    +0.000 C 
BRANCH  25  26
ATOM     26  C   UNL     1      -5.350  12.470  20.579  0.00  0.00    +0.000 C 
BRANCH  26  28
ATOM     27  C   UNL     1      -4.631  11.607  18.503  0.00  0.00    +0.000 C 
ATOM     28  O   UNL     1      -4.344  12.513  19.560  0.00  0.00    +0.000 OA
ENDBRANCH  26  28
ENDBRANCH  25  26
ENDBRANCH  21  25
ENDBRANCH  20  22
ENDBRANCH   1  20
TORSDOF 6
ENDMDL
MODEL 4
REMARK VINA RESULT:      -6.8      2.643      4.796
REMARK  Name = 
REMARK  10 active torsions:
REMARK  status: ('A' for Active; 'I' for Inactive)
REMARK    1  A    between atoms: C_1  and  O_2
REMARK    2  A    between atoms: O_2  and  C_3
REMARK    3  A    between atoms: C_3  and  C_4
REMARK    4  A    between atoms: C_4  and  N_5
REMARK    5  A    between atoms: C_6  and  C_8
REMARK    6  A    between atoms: C_8  and  N_9
REMARK    7  A    between atoms: C_11  and  C_12
REMARK    8  A    between atoms: C_14  and  C_15
REMARK    9  A    between atoms: N_16  and  C_17
REMARK   10  A    between atoms: C_20  and  C_21
REMARK                            x       y       z     vdW  Elec       q    Type
REMARK                         _______ _______ _______ _____ _____    ______ ____
ROOT
ATOM      1  N   UNL     1       2.974   5.139  19.362  0.00  0.00    +0.000 N 
ATOM      2  N   UNL     1       3.309   5.933  18.261  0.00  0.00    +0.000 NA
ATOM      3  C   UNL     1       2.913   7.169  18.169  0.00  0.00    +0.000 A 
ATOM      4  C   UNL     1       3.318   7.954  16.955  0.00  0.00    +0.000 C 
ATOM      5  C   UNL     1       2.124   7.743  19.232  0.00  0.00    +0.000 A 
ATOM      6  C   UNL     1       1.576   8.994  19.449  0.00  0.00    +0.000 A 
ATOM      7  C   UNL     1       1.685  10.245  18.652  0.00  0.00    +0.000 C 
ATOM      8  N   UNL     1       0.894   8.898  20.669  0.00  0.00    +0.000 N 
ATOM      9  N   UNL     1       1.131   7.696  21.273  0.00  0.00    +0.000 NA
ATOM     10  C   UNL     1       1.794   6.976  20.358  0.00  0.00    +0.000 A 
ATOM     11  C   UNL     1       2.196   5.569  20.457  0.00  0.00    +0.000 A 
ATOM     12  O   UNL     1       1.882   4.822  21.383  0.00  0.00    +0.000 OA
ENDROOT
BRANCH   8  13
ATOM     13  C   UNL     1       0.018   9.843  21.293  0.00  0.00    +0.000 A 
ATOM     14  C   UNL     1      -0.603  10.861  20.558  0.00  0.00    +0.000 A 
ATOM     15  C   UNL     1      -1.488  11.754  21.171  0.00  0.00    +0.000 A 
ATOM     16  C   UNL     1      -1.785  11.643  22.528  0.00  0.00    +0.000 A 
ATOM     17  C   UNL     1      -2.779  12.570  23.164  0.00  0.00    +0.000 C 
ATOM     18  C   UNL     1      -1.162  10.634  23.271  0.00  0.00    +0.000 A 
ATOM     19  C   UNL     1      -0.276   9.731  22.659  0.00  0.00    +0.000 A 
ENDBRANCH   8  13
BRANCH   1  20
ATOM     20  C   UNL     1       3.526   3.784  19.342  0.00  0.00    +0.000 C 
BRANCH  20  22
ATOM     21  N   UNL     1       5.781   4.328  18.526  0.00  0.00    +0.000 N 
ATOM     22  C   UNL     1       4.629   3.607  18.299  0.00  0.00    +0.000 C 
ATOM     23  O   UNL     1       4.463   2.937  17.278  0.00  0.00    +0.000 OA
ATOM     24  H   UNL     1       5.758   5.074  19.213  0.00  0.00    +0.000 HD
BRANCH  21  25
ATOM     25  C   UNL     1       6.888   4.315  17.582  0.00  0.00    +0.000 C 
BRANCH  25  26
ATOM     26  C   UNL     1       7.352   5.713  17.159  0.00  0.00    +0.000 C 
BRANCH  26  28
ATOM     27  C   UNL     1       6.938   4.589  15.126  0.00  0.00    +0.000 C 
ATOM     28  O   UNL     1       7.416   5.784  15.731  0.00  0.00    +0.000 OA
ENDBRANCH  26  28
ENDBRANCH  25  26
ENDBRANCH  21  25
ENDBRANCH  20  22
ENDBRANCH   1  20
TORSDOF 6
ENDMDL
MODEL 5
REMARK VINA RESULT:      -6.7      6.076     11.196
REMARK  Name = 
REMARK  10 active torsions:
REMARK  status: ('A' for Active; 'I' for Inactive)
REMARK    1  A    between atoms: C_1  and  O_2
REMARK    2  A    between atoms: O_2  and  C_3
REMARK    3  A    between atoms: C_3  and  C_4
REMARK    4  A    between atoms: C_4  and  N_5
REMARK    5  A    between atoms: C_6  and  C_8
REMARK    6  A    between atoms: C_8  and  N_9
REMARK    7  A    between atoms: C_11  and  C_12
REMARK    8  A    between atoms: C_14  and  C_15
REMARK    9  A    between atoms: N_16  and  C_17
REMARK   10  A    between atoms: C_20  and  C_21
REMARK                            x       y       z     vdW  Elec       q    Type
REMARK                         _______ _______ _______ _____ _____    ______ ____
ROOT
ATOM      1  N   UNL     1      -0.659  11.709  22.136  0.00  0.00    +0.000 N 
ATOM      2  N   UNL     1      -0.557  12.261  20.856  0.00  0.00    +0.000 NA
ATOM      3  C   UNL     1      -0.008  11.605  19.875  0.00  0.00    +0.000 A 
ATOM      4  C   UNL     1       0.060  12.267  18.529  0.00  0.00    +0.000 C 
ATOM      5  C   UNL     1       0.495  10.272  20.106  0.00  0.00    +0.000 A 
ATOM      6  C   UNL     1       1.099   9.324  19.301  0.00  0.00    +0.000 A 
ATOM      7  C   UNL     1       1.380   9.338  17.840  0.00  0.00    +0.000 C 
ATOM      8  N   UNL     1       1.374   8.238  20.142  0.00  0.00    +0.000 N 
ATOM      9  N   UNL     1       0.828   8.423  21.380  0.00  0.00    +0.000 NA
ATOM     10  C   UNL     1       0.384   9.687  21.375  0.00  0.00    +0.000 A 
ATOM     11  C   UNL     1      -0.194  10.429  22.500  0.00  0.00    +0.000 A 
ATOM     12  O   UNL     1      -0.259  10.001  23.652  0.00  0.00    +0.000 OA
ENDROOT
BRANCH   8  13
ATOM     13  C   UNL     1       2.133   7.054  19.872  0.00  0.00    +0.000 A 
ATOM     14  C   UNL     1       3.133   7.033  18.892  0.00  0.00    +0.000 A 
ATOM     15  C   UNL     1       3.895   5.883  18.666  0.00  0.00    +0.000 A 
ATOM     16  C   UNL     1       3.686   4.730  19.422  0.00  0.00    +0.000 A 
ATOM     17  C   UNL     1       4.547   3.520  19.210  0.00  0.00    +0.000 C 
ATOM     18  C   UNL     1       2.683   4.740  20.397  0.00  0.00    +0.000 A 
ATOM     19  C   UNL     1       1.919   5.895  20.632  0.00  0.00    +0.000 A 
ENDBRANCH   8  13
BRANCH   1  20
ATOM     20  C   UNL     1      -1.338  12.551  23.123  0.00  0.00    +0.000 C 
BRANCH  20  22
ATOM     21  N   UNL     1      -3.512  12.996  22.061  0.00  0.00    +0.000 N 
ATOM     22  C   UNL     1      -2.857  12.379  23.105  0.00  0.00    +0.000 C 
ATOM     23  O   UNL     1      -3.462  11.807  24.013  0.00  0.00    +0.000 OA
ATOM     24  H   UNL     1      -3.007  13.685  21.512  0.00  0.00    +0.000 HD
BRANCH  21  25
ATOM     25  C   UNL     1      -4.962  12.980  21.952  0.00  0.00    +0.000 C 
BRANCH  25  26
ATOM     26  C   UNL     1      -5.629  14.273  22.432  0.00  0.00    +0.000 C 
BRANCH  26  28
ATOM     27  C   UNL     1      -7.359  13.881  23.989  0.00  0.00    +0.000 C 
ATOM     28  O   UNL     1      -5.973  14.149  23.816  0.00  0.00    +0.000 OA
ENDBRANCH  26  28
ENDBRANCH  25  26
ENDBRANCH  21  25
ENDBRANCH  20  22
ENDBRANCH   1  20
TORSDOF 6
ENDMDL
MODEL 6
REMARK VINA RESULT:      -6.7      6.057     10.266
REMARK  Name = 
REMARK  10 active torsions:
REMARK  status: ('A' for Active; 'I' for Inactive)
REMARK    1  A    between atoms: C_1  and  O_2
REMARK    2  A    between atoms: O_2  and  C_3
REMARK    3  A    between atoms: C_3  and  C_4
REMARK    4  A    between atoms: C_4  and  N_5
REMARK    5  A    between atoms: C_6  and  C_8
REMARK    6  A    between atoms: C_8  and  N_9
REMARK    7  A    between atoms: C_11  and  C_12
REMARK    8  A    between atoms: C_14  and  C_15
REMARK    9  A    between atoms: N_16  and  C_17
REMARK   10  A    between atoms: C_20  and  C_21
REMARK                            x       y       z     vdW  Elec       q    Type
REMARK                         _______ _______ _______ _____ _____    ______ ____
ROOT
ATOM      1  N   UNL     1      -0.433  11.457  22.068  0.00  0.00    +0.000 N 
ATOM      2  N   UNL     1      -0.188  11.992  20.800  0.00  0.00    +0.000 NA
ATOM      3  C   UNL     1       0.398  11.295  19.870  0.00  0.00    +0.000 A 
ATOM      4  C   UNL     1       0.623  11.943  18.534  0.00  0.00    +0.000 C 
ATOM      5  C   UNL     1       0.790   9.934  20.144  0.00  0.00    +0.000 A 
ATOM      6  C   UNL     1       1.395   8.943  19.393  0.00  0.00    +0.000 A 
ATOM      7  C   UNL     1       1.798   8.930  17.961  0.00  0.00    +0.000 C 
ATOM      8  N   UNL     1       1.526   7.847  20.255  0.00  0.00    +0.000 N 
ATOM      9  N   UNL     1       0.891   8.075  21.442  0.00  0.00    +0.000 NA
ATOM     10  C   UNL     1       0.533   9.366  21.399  0.00  0.00    +0.000 A 
ATOM     11  C   UNL     1      -0.086  10.151  22.471  0.00  0.00    +0.000 A 
ATOM     12  O   UNL     1      -0.277   9.736  23.613  0.00  0.00    +0.000 OA
ENDROOT
BRANCH   8  13
ATOM     13  C   UNL     1       2.224   6.614  20.051  0.00  0.00    +0.000 A 
ATOM     14  C   UNL     1       1.759   5.410  20.595  0.00  0.00    +0.000 A 
ATOM     15  C   UNL     1       2.427   4.205  20.355  0.00  0.00    +0.000 A 
ATOM     16  C   UNL     1       3.567   4.171  19.553  0.00  0.00    +0.000 A 
ATOM     17  C   UNL     1       4.244   2.865  19.255  0.00  0.00    +0.000 C 
ATOM     18  C   UNL     1       4.044   5.370  19.013  0.00  0.00    +0.000 A 
ATOM     19  C   UNL     1       3.373   6.582  19.247  0.00  0.00    +0.000 A 
ENDBRANCH   8  13
BRANCH   1  20
ATOM     20  C   UNL     1      -1.136  12.348  22.993  0.00  0.00    +0.000 C 
BRANCH  20  22
ATOM     21  N   UNL     1      -3.220  12.723  21.743  0.00  0.00    +0.000 N 
ATOM     22  C   UNL     1      -2.656  12.224  22.897  0.00  0.00    +0.000 C 
ATOM     23  O   UNL     1      -3.338  11.792  23.828  0.00  0.00    +0.000 OA
ATOM     24  H   UNL     1      -2.656  13.321  21.147  0.00  0.00    +0.000 HD
BRANCH  21  25
ATOM     25  C   UNL     1      -4.661  12.741  21.542  0.00  0.00    +0.000 C 
BRANCH  25  26
ATOM     26  C   UNL     1      -5.080  13.158  20.129  0.00  0.00    +0.000 C 
BRANCH  26  28
ATOM     27  C   UNL     1      -5.764  12.209  18.079  0.00  0.00    +0.000 C 
ATOM     28  O   UNL     1      -4.971  12.035  19.247  0.00  0.00    +0.000 OA
ENDBRANCH  26  28
ENDBRANCH  25  26
ENDBRANCH  21  25
ENDBRANCH  20  22
ENDBRANCH   1  20
TORSDOF 6
ENDMDL
MODEL 7
REMARK VINA RESULT:      -6.7      3.456      5.400
REMARK  Name = 
REMARK  10 active torsions:
REMARK  status: ('A' for Active; 'I' for Inactive)
REMARK    1  A    between atoms: C_1  and  O_2
REMARK    2  A    between atoms: O_2  and  C_3
REMARK    3  A    between atoms: C_3  and  C_4
REMARK    4  A    between atoms: C_4  and  N_5
REMARK    5  A    between atoms: C_6  and  C_8
REMARK    6  A    between atoms: C_8  and  N_9
REMARK    7  A    between atoms: C_11  and  C_12
REMARK    8  A    between atoms: C_14  and  C_15
REMARK    9  A    between atoms: N_16  and  C_17
REMARK   10  A    between atoms: C_20  and  C_21
REMARK                            x       y       z     vdW  Elec       q    Type
REMARK                         _______ _______ _______ _____ _____    ______ ____
ROOT
ATOM      1  N   UNL     1       3.561   6.260  18.089  0.00  0.00    +0.000 N 
ATOM      2  N   UNL     1       2.902   5.937  19.278  0.00  0.00    +0.000 NA
ATOM      3  C   UNL     1       2.123   6.791  19.877  0.00  0.00    +0.000 A 
ATOM      4  C   UNL     1       1.450   6.365  21.150  0.00  0.00    +0.000 C 
ATOM      5  C   UNL     1       1.921   8.096  19.296  0.00  0.00    +0.000 A 
ATOM      6  C   UNL     1       1.166   9.197  19.654  0.00  0.00    +0.000 A 
ATOM      7  C   UNL     1       0.208   9.384  20.777  0.00  0.00    +0.000 C 
ATOM      8  N   UNL     1       1.427  10.166  18.677  0.00  0.00    +0.000 N 
ATOM      9  N   UNL     1       2.183   9.651  17.663  0.00  0.00    +0.000 NA
ATOM     10  C   UNL     1       2.552   8.436  18.091  0.00  0.00    +0.000 A 
ATOM     11  C   UNL     1       3.465   7.501  17.427  0.00  0.00    +0.000 A 
ATOM     12  O   UNL     1       4.102   7.761  16.406  0.00  0.00    +0.000 OA
ENDROOT
BRANCH   8  13
ATOM     13  C   UNL     1       1.037  11.543  18.642  0.00  0.00    +0.000 A 
ATOM     14  C   UNL     1      -0.310  11.922  18.587  0.00  0.00    +0.000 A 
ATOM     15  C   UNL     1      -0.679  13.271  18.594  0.00  0.00    +0.000 A 
ATOM     16  C   UNL     1       0.286  14.273  18.671  0.00  0.00    +0.000 A 
ATOM     17  C   UNL     1      -0.124  15.715  18.736  0.00  0.00    +0.000 C 
ATOM     18  C   UNL     1       1.635  13.904  18.718  0.00  0.00    +0.000 A 
ATOM     19  C   UNL     1       2.011  12.550  18.716  0.00  0.00    +0.000 A 
ENDBRANCH   8  13
BRANCH   1  20
ATOM     20  C   UNL     1       4.369   5.183  17.514  0.00  0.00    +0.000 C 
BRANCH  20  22
ATOM     21  N   UNL     1       2.703   3.386  17.729  0.00  0.00    +0.000 N 
ATOM     22  C   UNL     1       3.979   3.802  18.041  0.00  0.00    +0.000 C 
ATOM     23  O   UNL     1       4.724   3.146  18.772  0.00  0.00    +0.000 OA
ATOM     24  H   UNL     1       2.042   4.072  17.379  0.00  0.00    +0.000 HD
BRANCH  21  25
ATOM     25  C   UNL     1       2.168   2.126  18.223  0.00  0.00    +0.000 C 
BRANCH  25  26
ATOM     26  C   UNL     1       0.754   2.242  18.799  0.00  0.00    +0.000 C 
BRANCH  26  28
ATOM     27  C   UNL     1       1.554   2.637  20.984  0.00  0.00    +0.000 C 
ATOM     28  O   UNL     1       0.764   3.141  19.914  0.00  0.00    +0.000 OA
ENDBRANCH  26  28
ENDBRANCH  25  26
ENDBRANCH  21  25
ENDBRANCH  20  22
ENDBRANCH   1  20
TORSDOF 6
ENDMDL
MODEL 8
REMARK VINA RESULT:      -6.7      5.990     10.954
REMARK  Name = 
REMARK  10 active torsions:
REMARK  status: ('A' for Active; 'I' for Inactive)
REMARK    1  A    between atoms: C_1  and  O_2
REMARK    2  A    between atoms: O_2  and  C_3
REMARK    3  A    between atoms: C_3  and  C_4
REMARK    4  A    between atoms: C_4  and  N_5
REMARK    5  A    between atoms: C_6  and  C_8
REMARK    6  A    between atoms: C_8  and  N_9
REMARK    7  A    between atoms: C_11  and  C_12
REMARK    8  A    between atoms: C_14  and  C_15
REMARK    9  A    between atoms: N_16  and  C_17
REMARK   10  A    between atoms: C_20  and  C_21
REMARK                            x       y       z     vdW  Elec       q    Type
REMARK                         _______ _______ _______ _____ _____    ______ ____
ROOT
ATOM      1  N   UNL     1      -0.522  11.523  22.100  0.00  0.00    +0.000 N 
ATOM      2  N   UNL     1      -0.347  12.087  20.834  0.00  0.00    +0.000 NA
ATOM      3  C   UNL     1       0.230  11.429  19.871  0.00  0.00    +0.000 A 
ATOM      4  C   UNL     1       0.378  12.106  18.539  0.00  0.00    +0.000 C 
ATOM      5  C   UNL     1       0.688  10.081  20.107  0.00  0.00    +0.000 A 
ATOM      6  C   UNL     1       1.304   9.127  19.317  0.00  0.00    +0.000 A 
ATOM      7  C   UNL     1       1.652   9.152  17.871  0.00  0.00    +0.000 C 
ATOM      8  N   UNL     1       1.511   8.024  20.155  0.00  0.00    +0.000 N 
ATOM      9  N   UNL     1       0.913   8.208  21.369  0.00  0.00    +0.000 NA
ATOM     10  C   UNL     1       0.502   9.483  21.361  0.00  0.00    +0.000 A 
ATOM     11  C   UNL     1      -0.107  10.226  22.468  0.00  0.00    +0.000 A 
ATOM     12  O   UNL     1      -0.237   9.786  23.610  0.00  0.00    +0.000 OA
ENDROOT
BRANCH   8  13
ATOM     13  C   UNL     1       2.251   6.824  19.904  0.00  0.00    +0.000 A 
ATOM     14  C   UNL     1       1.938   5.623  20.552  0.00  0.00    +0.000 A 
ATOM     15  C   UNL     1       2.641   4.447  20.268  0.00  0.00    +0.000 A 
ATOM     16  C   UNL     1       3.663   4.441  19.320  0.00  0.00    +0.000 A 
ATOM     17  C   UNL     1       4.373   3.162  18.982  0.00  0.00    +0.000 C 
ATOM     18  C   UNL     1       3.988   5.638  18.675  0.00  0.00    +0.000 A 
ATOM     19  C   UNL     1       3.280   6.820  18.953  0.00  0.00    +0.000 A 
ENDBRANCH   8  13
BRANCH   1  20
ATOM     20  C   UNL     1      -1.224  12.370  23.066  0.00  0.00    +0.000 C 
BRANCH  20  22
ATOM     21  N   UNL     1      -3.257  12.704  21.723  0.00  0.00    +0.000 N 
ATOM     22  C   UNL     1      -2.745  12.288  22.933  0.00  0.00    +0.000 C 
ATOM     23  O   UNL     1      -3.468  11.959  23.874  0.00  0.00    +0.000 OA
ATOM     24  H   UNL     1      -2.655  13.229  21.097  0.00  0.00    +0.000 HD
BRANCH  21  25
ATOM     25  C   UNL     1      -4.690  12.751  21.476  0.00  0.00    +0.000 C 
BRANCH  25  26
ATOM     26  C   UNL     1      -5.311  14.131  21.711  0.00  0.00    +0.000 C 
BRANCH  26  28
ATOM     27  C   UNL     1      -5.579  15.124  23.836  0.00  0.00    +0.000 C 
ATOM     28  O   UNL     1      -6.045  14.122  22.940  0.00  0.00    +0.000 OA
ENDBRANCH  26  28
ENDBRANCH  25  26
ENDBRANCH  21  25
ENDBRANCH  20  22
ENDBRANCH   1  20
TORSDOF 6
ENDMDL
MODEL 9
REMARK VINA RESULT:      -6.7      5.894     10.877
REMARK  Name = 
REMARK  10 active torsions:
REMARK  status: ('A' for Active; 'I' for Inactive)
REMARK    1  A    between atoms: C_1  and  O_2
REMARK    2  A    between atoms: O_2  and  C_3
REMARK    3  A    between atoms: C_3  and  C_4
REMARK    4  A    between atoms: C_4  and  N_5
REMARK    5  A    between atoms: C_6  and  C_8
REMARK    6  A    between atoms: C_8  and  N_9
REMARK    7  A    between atoms: C_11  and  C_12
REMARK    8  A    between atoms: C_14  and  C_15
REMARK    9  A    between atoms: N_16  and  C_17
REMARK   10  A    between atoms: C_20  and  C_21
REMARK                            x       y       z     vdW  Elec       q    Type
REMARK                         _______ _______ _______ _____ _____    ______ ____
ROOT
ATOM      1  N   UNL     1      -0.939  11.646  22.217  0.00  0.00    +0.000 N 
ATOM      2  N   UNL     1      -1.110  12.187  20.940  0.00  0.00    +0.000 NA
ATOM      3  C   UNL     1      -0.617  11.606  19.885  0.00  0.00    +0.000 A 
ATOM      4  C   UNL     1      -0.847  12.251  18.548  0.00  0.00    +0.000 C 
ATOM      5  C   UNL     1       0.110  10.369  20.030  0.00  0.00    +0.000 A 
ATOM      6  C   UNL     1       0.726   9.510  19.138  0.00  0.00    +0.000 A 
ATOM      7  C   UNL     1       0.785   9.544  17.652  0.00  0.00    +0.000 C 
ATOM      8  N   UNL     1       1.282   8.491  19.922  0.00  0.00    +0.000 N 
ATOM      9  N   UNL     1       0.900   8.610  21.228  0.00  0.00    +0.000 NA
ATOM     10  C   UNL     1       0.275   9.793  21.297  0.00  0.00    +0.000 A 
ATOM     11  C   UNL     1      -0.238  10.456  22.500  0.00  0.00    +0.000 A 
ATOM     12  O   UNL     1      -0.069  10.040  23.646  0.00  0.00    +0.000 OA
ENDROOT
BRANCH   8  13
ATOM     13  C   UNL     1       2.163   7.430  19.535  0.00  0.00    +0.000 A 
ATOM     14  C   UNL     1       2.239   6.238  20.266  0.00  0.00    +0.000 A 
ATOM     15  C   UNL     1       3.073   5.194  19.854  0.00  0.00    +0.000 A 
ATOM     16  C   UNL     1       3.840   5.309  18.696  0.00  0.00    +0.000 A 
ATOM     17  C   UNL     1       4.688   4.161  18.233  0.00  0.00    +0.000 C 
ATOM     18  C   UNL     1       3.776   6.500  17.965  0.00  0.00    +0.000 A 
ATOM     19  C   UNL     1       2.936   7.550  18.371  0.00  0.00    +0.000 A 
ENDBRANCH   8  13
BRANCH   1  20
ATOM     20  C   UNL     1      -1.586  12.390  23.299  0.00  0.00    +0.000 C 
BRANCH  20  22
ATOM     21  N   UNL     1      -3.701  12.965  22.183  0.00  0.00    +0.000 N 
ATOM     22  C   UNL     1      -3.112  12.313  23.244  0.00  0.00    +0.000 C 
ATOM     23  O   UNL     1      -3.773  11.781  24.138  0.00  0.00    +0.000 OA
ATOM     24  H   UNL     1      -3.142  13.621  21.647  0.00  0.00    +0.000 HD
BRANCH  21  25
ATOM     25  C   UNL     1      -5.147  13.039  22.039  0.00  0.00    +0.000 C 
BRANCH  25  26
ATOM     26  C   UNL     1      -5.681  12.295  20.811  0.00  0.00    +0.000 C 
BRANCH  26  28
ATOM     27  C   UNL     1      -7.557  12.361  22.241  0.00  0.00    +0.000 C 
ATOM     28  O   UNL     1      -7.105  12.175  20.906  0.00  0.00    +0.000 OA
ENDBRANCH  26  28
ENDBRANCH  25  26
ENDBRANCH  21  25
ENDBRANCH  20  22
ENDBRANCH   1  20
TORSDOF 6
ENDMDL
