MODEL 1
REMARK VINA RESULT:      -7.6      0.000      0.000
REMARK  Name = 
REMARK  4 active torsions:
REMARK  status: ('A' for Active; 'I' for Inactive)
REMARK    1  A    between atoms: N_6  and  C_7
REMARK    2  A    between atoms: N_11  and  C_12
REMARK    3  A    between atoms: C_12  and  C_13
REMARK    4  A    between atoms: C_16  and  C_17
REMARK                            x       y       z     vdW  Elec       q    Type
REMARK                         _______ _______ _______ _____ _____    ______ ____
ROOT
ATOM      1  C   UNL     1       4.922   3.909  18.666  0.00  0.00    +0.000 C 
ATOM      2  C   UNL     1       3.921   2.790  18.378  0.00  0.00    +0.000 C 
ATOM      3  C   UNL     1       2.608   3.319  17.828  0.00  0.00    +0.000 C 
ATOM      4  C   UNL     1       2.039   4.451  18.682  0.00  0.00    +0.000 C 
ATOM      5  N   UNL     1       2.991   5.559  18.880  0.00  0.00    +0.000 NA
ATOM      6  C   UNL     1       4.260   5.064  19.460  0.00  0.00    +0.000 C 
ENDROOT
BRANCH   1  12
ATOM      7  O   UNL     1       7.818   4.415  18.382  0.00  0.00    +0.000 OA
ATOM      8  C   UNL     1       7.002   4.717  17.530  0.00  0.00    +0.000 C 
ATOM      9  N   UNL     1       7.256   5.578  16.468  0.00  0.00    +0.000 N 
ATOM     10  C   UNL     1       6.006   6.063  15.950  0.00  0.00    +0.000 C 
ATOM     11  C   UNL     1       5.044   4.935  16.286  0.00  0.00    +0.000 C 
ATOM     12  N   UNL     1       5.649   4.368  17.480  0.00  0.00    +0.000 N 
ATOM     13  H   UNL     1       8.105   6.126  16.522  0.00  0.00    +0.000 HD
ENDBRANCH   1  12
BRANCH   5  14
ATOM     14  C   UNL     1       2.432   6.611  19.763  0.00  0.00    +0.000 C 
BRANCH  14  15
ATOM     15  C   UNL     1       2.175   7.873  19.008  0.00  0.00    +0.000 A 
ATOM     16  C   UNL     1       2.599   8.247  17.753  0.00  0.00    +0.000 A 
ATOM     17  O   UNL     1       2.034   9.448  17.456  0.00  0.00    +0.000 OA
ATOM     18  C   UNL     1       1.271   9.762  18.559  0.00  0.00    +0.000 A 
ATOM     19  N   UNL     1       1.377   8.870  19.529  0.00  0.00    +0.000 NA
BRANCH  18  20
ATOM     20  C   UNL     1       0.399  10.903  18.643  0.00  0.00    +0.000 A 
ATOM     21  C   UNL     1      -0.984  10.890  18.614  0.00  0.00    +0.000 A 
ATOM     22  C   UNL     1      -1.544  12.199  18.647  0.00  0.00    +0.000 A 
ATOM     23  C   UNL     1      -0.570  13.171  18.708  0.00  0.00    +0.000 A 
ATOM     24  S   UNL     1       1.003  12.502  18.743  0.00  0.00    +0.000 S 
ENDBRANCH  18  20
ENDBRANCH  14  15
ENDBRANCH   5  14
TORSDOF 4
ENDMDL
MODEL 2
REMARK VINA RESULT:      -7.5      1.969      2.023
REMARK  Name = 
REMARK  4 active torsions:
REMARK  status: ('A' for Active; 'I' for Inactive)
REMARK    1  A    between atoms: N_6  and  C_7
REMARK    2  A    between atoms: N_11  and  C_12
REMARK    3  A    between atoms: C_12  and  C_13
REMARK    4  A    between atoms: C_16  and  C_17
REMARK                            x       y       z     vdW  Elec       q    Type
REMARK                         _______ _______ _______ _____ _____    ______ ____
ROOT
ATOM      1  C   UNL     1       5.227   4.353  18.255  0.00  0.00    +0.000 C 
ATOM      2  C   UNL     1       4.454   3.301  17.460  0.00  0.00    +0.000 C 
ATOM      3  C   UNL     1       3.064   3.777  17.076  0.00  0.00    +0.000 C 
ATOM      4  C   UNL     1       2.294   4.335  18.272  0.00  0.00    +0.000 C 
ATOM      5  N   UNL     1       3.021   5.406  18.977  0.00  0.00    +0.000 NA
ATOM      6  C   UNL     1       4.361   4.941  19.399  0.00  0.00    +0.000 C 
ENDROOT
BRANCH   1  12
ATOM      7  O   UNL     1       7.861   4.268  16.921  0.00  0.00    +0.000 OA
ATOM      8  C   UNL     1       7.174   5.272  16.978  0.00  0.00    +0.000 C 
ATOM      9  N   UNL     1       7.633   6.555  16.696  0.00  0.00    +0.000 N 
ATOM     10  C   UNL     1       6.739   7.511  17.289  0.00  0.00    +0.000 C 
ATOM     11  C   UNL     1       5.416   6.763  17.313  0.00  0.00    +0.000 C 
ATOM     12  N   UNL     1       5.852   5.381  17.419  0.00  0.00    +0.000 N 
ATOM     13  H   UNL     1       8.635   6.673  16.630  0.00  0.00    +0.000 HD
ENDBRANCH   1  12
BRANCH   5  14
ATOM     14  C   UNL     1       2.276   5.883  20.167  0.00  0.00    +0.000 C 
BRANCH  14  15
ATOM     15  C   UNL     1       1.894   7.319  20.029  0.00  0.00    +0.000 A 
ATOM     16  C   UNL     1       1.923   8.132  18.919  0.00  0.00    +0.000 A 
ATOM     17  O   UNL     1       1.392   9.337  19.263  0.00  0.00    +0.000 OA
ATOM     18  C   UNL     1       1.050   9.206  20.590  0.00  0.00    +0.000 A 
ATOM     19  N   UNL     1       1.388   8.032  21.096  0.00  0.00    +0.000 NA
BRANCH  18  20
ATOM     20  C   UNL     1       0.346  10.205  21.348  0.00  0.00    +0.000 A 
ATOM     21  C   UNL     1      -0.436   9.994  22.470  0.00  0.00    +0.000 A 
ATOM     22  C   UNL     1      -1.052  11.189  22.941  0.00  0.00    +0.000 A 
ATOM     23  C   UNL     1      -0.716  12.277  22.167  0.00  0.00    +0.000 A 
ATOM     24  S   UNL     1       0.349  11.857  20.897  0.00  0.00    +0.000 S 
ENDBRANCH  18  20
ENDBRANCH  14  15
ENDBRANCH   5  14
TORSDOF 4
ENDMDL
MODEL 3
REMARK VINA RESULT:      -7.2      1.508      1.701
REMARK  Name = 
REMARK  4 active torsions:
REMARK  status: ('A' for Active; 'I' for Inactive)
REMARK    1  A    between atoms: N_6  and  C_7
REMARK    2  A    between atoms: N_11  and  C_12
REMARK    3  A    between atoms: C_12  and  C_13
REMARK    4  A    between atoms: C_16  and  C_17
REMARK                            x       y       z     vdW  Elec       q    Type
REMARK                         _______ _______ _______ _____ _____    ______ ____
ROOT
ATOM      1  C   UNL     1       5.705   4.424  18.743  0.00  0.00    +0.000 C 
ATOM      2  C   UNL     1       5.149   3.606  17.577  0.00  0.00    +0.000 C 
ATOM      3  C   UNL     1       4.196   4.414  16.712  0.00  0.00    +0.000 C 
ATOM      4  C   UNL     1       3.122   5.119  17.538  0.00  0.00    +0.000 C 
ATOM      5  N   UNL     1       3.681   5.967  18.607  0.00  0.00    +0.000 NA
ATOM      6  C   UNL     1       4.576   5.182  19.486  0.00  0.00    +0.000 C 
ENDROOT
BRANCH   1  12
ATOM      7  O   UNL     1       7.911   5.379  20.458  0.00  0.00    +0.000 OA
ATOM      8  C   UNL     1       7.721   5.788  19.327  0.00  0.00    +0.000 C 
ATOM      9  N   UNL     1       8.306   6.933  18.797  0.00  0.00    +0.000 N 
ATOM     10  C   UNL     1       7.539   7.366  17.661  0.00  0.00    +0.000 C 
ATOM     11  C   UNL     1       6.930   6.069  17.154  0.00  0.00    +0.000 C 
ATOM     12  N   UNL     1       6.831   5.285  18.374  0.00  0.00    +0.000 N 
ATOM     13  H   UNL     1       8.759   7.556  19.453  0.00  0.00    +0.000 HD
ENDBRANCH   1  12
BRANCH   5  14
ATOM     14  C   UNL     1       2.614   6.587  19.429  0.00  0.00    +0.000 C 
BRANCH  14  15
ATOM     15  C   UNL     1       2.206   7.913  18.878  0.00  0.00    +0.000 A 
ATOM     16  C   UNL     1       2.490   8.481  17.656  0.00  0.00    +0.000 A 
ATOM     17  O   UNL     1       1.819   9.662  17.573  0.00  0.00    +0.000 OA
ATOM     18  C   UNL     1       1.138   9.766  18.765  0.00  0.00    +0.000 A 
ATOM     19  N   UNL     1       1.390   8.765  19.592  0.00  0.00    +0.000 NA
BRANCH  18  20
ATOM     20  C   UNL     1       0.200  10.812  19.074  0.00  0.00    +0.000 A 
ATOM     21  C   UNL     1       0.442  11.940  19.838  0.00  0.00    +0.000 A 
ATOM     22  C   UNL     1      -0.722  12.744  20.010  0.00  0.00    +0.000 A 
ATOM     23  C   UNL     1      -1.814  12.208  19.366  0.00  0.00    +0.000 A 
ATOM     24  S   UNL     1      -1.427  10.758  18.546  0.00  0.00    +0.000 S 
ENDBRANCH  18  20
ENDBRANCH  14  15
ENDBRANCH   5  14
TORSDOF 4
ENDMDL
MODEL 4
REMARK VINA RESULT:      -7.1      2.913      4.156
REMARK  Name = 
REMARK  4 active torsions:
REMARK  status: ('A' for Active; 'I' for Inactive)
REMARK    1  A    between atoms: N_6  and  C_7
REMARK    2  A    between atoms: N_11  and  C_12
REMARK    3  A    between atoms: C_12  and  C_13
REMARK    4  A    between atoms: C_16  and  C_17
REMARK                            x       y       z     vdW  Elec       q    Type
REMARK                         _______ _______ _______ _____ _____    ______ ____
ROOT
ATOM      1  C   UNL     1       2.417   4.144  17.776  0.00  0.00    +0.000 C 
ATOM      2  C   UNL     1       3.811   3.990  17.167  0.00  0.00    +0.000 C 
ATOM      3  C   UNL     1       4.815   4.951  17.780  0.00  0.00    +0.000 C 
ATOM      4  C   UNL     1       4.304   6.391  17.794  0.00  0.00    +0.000 C 
ATOM      5  N   UNL     1       2.995   6.531  18.457  0.00  0.00    +0.000 NA
ATOM      6  C   UNL     1       1.993   5.634  17.839  0.00  0.00    +0.000 C 
ENDROOT
BRANCH   1  12
ATOM      7  O   UNL     1       0.241   2.319  18.585  0.00  0.00    +0.000 OA
ATOM      8  C   UNL     1       1.088   2.731  19.357  0.00  0.00    +0.000 C 
ATOM      9  N   UNL     1       0.995   2.648  20.743  0.00  0.00    +0.000 N 
ATOM     10  C   UNL     1       1.895   3.603  21.329  0.00  0.00    +0.000 C 
ATOM     11  C   UNL     1       2.982   3.731  20.274  0.00  0.00    +0.000 C 
ATOM     12  N   UNL     1       2.251   3.443  19.051  0.00  0.00    +0.000 N 
ATOM     13  H   UNL     1       0.089   2.407  21.122  0.00  0.00    +0.000 HD
ENDBRANCH   1  12
BRANCH   5  14
ATOM     14  C   UNL     1       2.498   7.927  18.398  0.00  0.00    +0.000 C 
BRANCH  14  15
ATOM     15  C   UNL     1       1.709   8.274  19.617  0.00  0.00    +0.000 A 
ATOM     16  C   UNL     1       1.656   7.641  20.838  0.00  0.00    +0.000 A 
ATOM     17  O   UNL     1       0.869   8.382  21.665  0.00  0.00    +0.000 OA
ATOM     18  C   UNL     1       0.470   9.457  20.903  0.00  0.00    +0.000 A 
ATOM     19  N   UNL     1       0.908   9.396  19.657  0.00  0.00    +0.000 NA
BRANCH  18  20
ATOM     20  C   UNL     1      -0.291  10.569  21.406  0.00  0.00    +0.000 A 
ATOM     21  C   UNL     1      -0.678  10.779  22.718  0.00  0.00    +0.000 A 
ATOM     22  C   UNL     1      -1.485  11.944  22.870  0.00  0.00    +0.000 A 
ATOM     23  C   UNL     1      -1.683  12.589  21.670  0.00  0.00    +0.000 A 
ATOM     24  S   UNL     1      -0.884  11.803  20.379  0.00  0.00    +0.000 S 
ENDBRANCH  18  20
ENDBRANCH  14  15
ENDBRANCH   5  14
TORSDOF 4
ENDMDL
MODEL 5
REMARK VINA RESULT:      -7.1      4.427      6.886
REMARK  Name = 
REMARK  4 active torsions:
REMARK  status: ('A' for Active; 'I' for Inactive)
REMARK    1  A    between atoms: N_6  and  C_7
REMARK    2  A    between atoms: N_11  and  C_12
REMARK    3  A    between atoms: C_12  and  C_13
REMARK    4  A    between atoms: C_16  and  C_17
REMARK                            x       y       z     vdW  Elec       q    Type
REMARK                         _______ _______ _______ _____ _____    ______ ____
ROOT
ATOM      1  C   UNL     1       2.795   3.903  20.110  0.00  0.00    +0.000 C 
ATOM      2  C   UNL     1       1.414   4.389  19.670  0.00  0.00    +0.000 C 
ATOM      3  C   UNL     1       1.424   4.946  18.256  0.00  0.00    +0.000 C 
ATOM      4  C   UNL     1       2.536   5.972  18.047  0.00  0.00    +0.000 C 
ATOM      5  N   UNL     1       3.871   5.457  18.400  0.00  0.00    +0.000 NA
ATOM      6  C   UNL     1       3.889   4.954  19.792  0.00  0.00    +0.000 C 
ENDROOT
BRANCH   1  12
ATOM      7  O   UNL     1       4.932   2.098  21.058  0.00  0.00    +0.000 OA
ATOM      8  C   UNL     1       4.268   1.879  20.061  0.00  0.00    +0.000 C 
ATOM      9  N   UNL     1       4.595   0.939  19.089  0.00  0.00    +0.000 N 
ATOM     10  C   UNL     1       3.888   1.254  17.878  0.00  0.00    +0.000 C 
ATOM     11  C   UNL     1       2.647   1.966  18.390  0.00  0.00    +0.000 C 
ATOM     12  N   UNL     1       3.127   2.560  19.626  0.00  0.00    +0.000 N 
ATOM     13  H   UNL     1       5.532   0.560  19.123  0.00  0.00    +0.000 HD
ENDBRANCH   1  12
BRANCH   5  14
ATOM     14  C   UNL     1       4.918   6.495  18.246  0.00  0.00    +0.000 C 
BRANCH  14  15
ATOM     15  C   UNL     1       5.853   6.162  17.131  0.00  0.00    +0.000 A 
ATOM     16  C   UNL     1       7.226   6.252  17.081  0.00  0.00    +0.000 A 
ATOM     17  O   UNL     1       7.639   5.747  15.886  0.00  0.00    +0.000 OA
ATOM     18  C   UNL     1       6.482   5.359  15.248  0.00  0.00    +0.000 A 
ATOM     19  N   UNL     1       5.391   5.644  15.939  0.00  0.00    +0.000 NA
BRANCH  18  20
ATOM     20  C   UNL     1       6.445   4.662  13.990  0.00  0.00    +0.000 A 
ATOM     21  C   UNL     1       5.492   3.747  13.580  0.00  0.00    +0.000 A 
ATOM     22  C   UNL     1       5.787   3.185  12.304  0.00  0.00    +0.000 A 
ATOM     23  C   UNL     1       6.953   3.693  11.778  0.00  0.00    +0.000 A 
ATOM     24  S   UNL     1       7.671   4.853  12.811  0.00  0.00    +0.000 S 
ENDBRANCH  18  20
ENDBRANCH  14  15
ENDBRANCH   5  14
TORSDOF 4
ENDMDL
MODEL 6
REMARK VINA RESULT:      -7.1      1.068      1.094
REMARK  Name = 
REMARK  4 active torsions:
REMARK  status: ('A' for Active; 'I' for Inactive)
REMARK    1  A    between atoms: N_6  and  C_7
REMARK    2  A    between atoms: N_11  and  C_12
REMARK    3  A    between atoms: C_12  and  C_13
REMARK    4  A    between atoms: C_16  and  C_17
REMARK                            x       y       z     vdW  Elec       q    Type
REMARK                         _______ _______ _______ _____ _____    ______ ____
ROOT
ATOM      1  C   UNL     1       4.966   4.203  18.452  0.00  0.00    +0.000 C 
ATOM      2  C   UNL     1       4.045   3.110  17.909  0.00  0.00    +0.000 C 
ATOM      3  C   UNL     1       2.719   3.668  17.420  0.00  0.00    +0.000 C 
ATOM      4  C   UNL     1       2.057   4.575  18.455  0.00  0.00    +0.000 C 
ATOM      5  N   UNL     1       2.933   5.671  18.906  0.00  0.00    +0.000 NA
ATOM      6  C   UNL     1       4.212   5.139  19.430  0.00  0.00    +0.000 C 
ENDROOT
BRANCH   1  12
ATOM      7  O   UNL     1       7.887   4.329  18.029  0.00  0.00    +0.000 OA
ATOM      8  C   UNL     1       7.094   5.026  17.422  0.00  0.00    +0.000 C 
ATOM      9  N   UNL     1       7.442   6.152  16.682  0.00  0.00    +0.000 N 
ATOM     10  C   UNL     1       6.275   6.969  16.497  0.00  0.00    +0.000 C 
ATOM     11  C   UNL     1       5.144   5.955  16.548  0.00  0.00    +0.000 C 
ATOM     12  N   UNL     1       5.700   4.926  17.411  0.00  0.00    +0.000 N 
ATOM     13  H   UNL     1       8.378   6.512  16.819  0.00  0.00    +0.000 HD
ENDBRANCH   1  12
BRANCH   5  14
ATOM     14  C   UNL     1       2.285   6.495  19.955  0.00  0.00    +0.000 C 
BRANCH  14  15
ATOM     15  C   UNL     1       1.937   7.853  19.441  0.00  0.00    +0.000 A 
ATOM     16  C   UNL     1       2.185   8.414  18.209  0.00  0.00    +0.000 A 
ATOM     17  O   UNL     1       1.594   9.640  18.176  0.00  0.00    +0.000 OA
ATOM     18  C   UNL     1       0.996   9.776  19.409  0.00  0.00    +0.000 A 
ATOM     19  N   UNL     1       1.228   8.750  20.211  0.00  0.00    +0.000 NA
BRANCH  18  20
ATOM     20  C   UNL     1       0.154  10.881  19.784  0.00  0.00    +0.000 A 
ATOM     21  C   UNL     1      -0.082  11.343  21.066  0.00  0.00    +0.000 A 
ATOM     22  C   UNL     1      -1.023  12.412  21.098  0.00  0.00    +0.000 A 
ATOM     23  C   UNL     1      -1.471  12.737  19.837  0.00  0.00    +0.000 A 
ATOM     24  S   UNL     1      -0.744  11.770  18.629  0.00  0.00    +0.000 S 
ENDBRANCH  18  20
ENDBRANCH  14  15
ENDBRANCH   5  14
TORSDOF 4
ENDMDL
MODEL 7
REMARK VINA RESULT:      -7.0      4.051      6.876
REMARK  Name = 
REMARK  4 active torsions:
REMARK  status: ('A' for Active; 'I' for Inactive)
REMARK    1  A    between atoms: N_6  and  C_7
REMARK    2  A    between atoms: N_11  and  C_12
REMARK    3  A    between atoms: C_12  and  C_13
REMARK    4  A    between atoms: C_16  and  C_17
REMARK                            x       y       z     vdW  Elec       q    Type
REMARK                         _______ _______ _______ _____ _____    ______ ____
ROOT
ATOM      1  C   UNL     1       3.611   4.390  20.234  0.00  0.00    +0.000 C 
ATOM      2  C   UNL     1       2.387   5.040  20.879  0.00  0.00    +0.000 C 
ATOM      3  C   UNL     1       1.590   5.874  19.891  0.00  0.00    +0.000 C 
ATOM      4  C   UNL     1       2.472   6.852  19.117  0.00  0.00    +0.000 C 
ATOM      5  N   UNL     1       3.601   6.195  18.434  0.00  0.00    +0.000 NA
ATOM      6  C   UNL     1       4.415   5.416  19.395  0.00  0.00    +0.000 C 
ENDROOT
BRANCH   1  12
ATOM      7  O   UNL     1       5.089   1.833  20.266  0.00  0.00    +0.000 OA
ATOM      8  C   UNL     1       4.183   2.069  19.488  0.00  0.00    +0.000 C 
ATOM      9  N   UNL     1       3.910   1.321  18.348  0.00  0.00    +0.000 N 
ATOM     10  C   UNL     1       3.113   2.111  17.450  0.00  0.00    +0.000 C 
ATOM     11  C   UNL     1       2.373   3.045  18.394  0.00  0.00    +0.000 C 
ATOM     12  N   UNL     1       3.307   3.159  19.501  0.00  0.00    +0.000 N 
ATOM     13  H   UNL     1       4.623   0.666  18.055  0.00  0.00    +0.000 HD
ENDBRANCH   1  12
BRANCH   5  14
ATOM     14  C   UNL     1       4.473   7.178  17.746  0.00  0.00    +0.000 C 
BRANCH  14  15
ATOM     15  C   UNL     1       5.559   6.498  16.980  0.00  0.00    +0.000 A 
ATOM     16  C   UNL     1       6.804   6.087  17.400  0.00  0.00    +0.000 A 
ATOM     17  O   UNL     1       7.402   5.431  16.369  0.00  0.00    +0.000 OA
ATOM     18  C   UNL     1       6.481   5.465  15.346  0.00  0.00    +0.000 A 
ATOM     19  N   UNL     1       5.390   6.144  15.658  0.00  0.00    +0.000 NA
BRANCH  18  20
ATOM     20  C   UNL     1       6.643   4.790  14.086  0.00  0.00    +0.000 A 
ATOM     21  C   UNL     1       7.603   5.052  13.126  0.00  0.00    +0.000 A 
ATOM     22  C   UNL     1       7.445   4.249  11.960  0.00  0.00    +0.000 A 
ATOM     23  C   UNL     1       6.371   3.395  12.070  0.00  0.00    +0.000 A 
ATOM     24  S   UNL     1       5.577   3.551  13.577  0.00  0.00    +0.000 S 
ENDBRANCH  18  20
ENDBRANCH  14  15
ENDBRANCH   5  14
TORSDOF 4
ENDMDL
MODEL 8
REMARK VINA RESULT:      -7.0      2.260      3.684
REMARK  Name = 
REMARK  4 active torsions:
REMARK  status: ('A' for Active; 'I' for Inactive)
REMARK    1  A    between atoms: N_6  and  C_7
REMARK    2  A    between atoms: N_11  and  C_12
REMARK    3  A    between atoms: C_12  and  C_13
REMARK    4  A    between atoms: C_16  and  C_17
REMARK                            x       y       z     vdW  Elec       q    Type
REMARK                         _______ _______ _______ _____ _____    ______ ____
ROOT
ATOM      1  C   UNL     1       3.301   3.394  18.085  0.00  0.00    +0.000 C 
ATOM      2  C   UNL     1       4.804   3.134  18.185  0.00  0.00    +0.000 C 
ATOM      3  C   UNL     1       5.538   4.265  18.885  0.00  0.00    +0.000 C 
ATOM      4  C   UNL     1       5.186   5.632  18.301  0.00  0.00    +0.000 C 
ATOM      5  N   UNL     1       3.736   5.898  18.288  0.00  0.00    +0.000 NA
ATOM      6  C   UNL     1       3.012   4.827  17.567  0.00  0.00    +0.000 C 
ENDROOT
BRANCH   1  12
ATOM      7  O   UNL     1       0.508   2.466  18.338  0.00  0.00    +0.000 OA
ATOM      8  C   UNL     1       1.194   2.786  19.292  0.00  0.00    +0.000 C 
ATOM      9  N   UNL     1       0.698   3.037  20.567  0.00  0.00    +0.000 N 
ATOM     10  C   UNL     1       1.663   3.810  21.300  0.00  0.00    +0.000 C 
ATOM     11  C   UNL     1       2.978   3.398  20.659  0.00  0.00    +0.000 C 
ATOM     12  N   UNL     1       2.564   3.064  19.307  0.00  0.00    +0.000 N 
ATOM     13  H   UNL     1      -0.305   3.146  20.650  0.00  0.00    +0.000 HD
ENDBRANCH   1  12
BRANCH   5  14
ATOM     14  C   UNL     1       3.424   7.203  17.659  0.00  0.00    +0.000 C 
BRANCH  14  15
ATOM     15  C   UNL     1       2.398   7.953  18.443  0.00  0.00    +0.000 A 
ATOM     16  C   UNL     1       2.056   7.842  19.772  0.00  0.00    +0.000 A 
ATOM     17  O   UNL     1       1.132   8.801  20.052  0.00  0.00    +0.000 OA
ATOM     18  C   UNL     1       0.949   9.472  18.863  0.00  0.00    +0.000 A 
ATOM     19  N   UNL     1       1.647   8.956  17.867  0.00  0.00    +0.000 NA
BRANCH  18  20
ATOM     20  C   UNL     1       0.134  10.648  18.715  0.00  0.00    +0.000 A 
ATOM     21  C   UNL     1      -1.151  10.705  18.206  0.00  0.00    +0.000 A 
ATOM     22  C   UNL     1      -1.651  12.037  18.129  0.00  0.00    +0.000 A 
ATOM     23  C   UNL     1      -0.733  12.955  18.588  0.00  0.00    +0.000 A 
ATOM     24  S   UNL     1       0.709  12.208  19.124  0.00  0.00    +0.000 S 
ENDBRANCH  18  20
ENDBRANCH  14  15
ENDBRANCH   5  14
TORSDOF 4
ENDMDL
MODEL 9
REMARK VINA RESULT:      -6.9      2.276      2.416
REMARK  Name = 
REMARK  4 active torsions:
REMARK  status: ('A' for Active; 'I' for Inactive)
REMARK    1  A    between atoms: N_6  and  C_7
REMARK    2  A    between atoms: N_11  and  C_12
REMARK    3  A    between atoms: C_12  and  C_13
REMARK    4  A    between atoms: C_16  and  C_17
REMARK                            x       y       z     vdW  Elec       q    Type
REMARK                         _______ _______ _______ _____ _____    ______ ____
ROOT
ATOM      1  C   UNL     1       4.575   3.245  19.286  0.00  0.00    +0.000 C 
ATOM      2  C   UNL     1       3.971   2.006  18.625  0.00  0.00    +0.000 C 
ATOM      3  C   UNL     1       2.617   2.292  17.998  0.00  0.00    +0.000 C 
ATOM      4  C   UNL     1       1.669   2.999  18.965  0.00  0.00    +0.000 C 
ATOM      5  N   UNL     1       2.239   4.236  19.529  0.00  0.00    +0.000 NA
ATOM      6  C   UNL     1       3.537   3.964  20.186  0.00  0.00    +0.000 C 
ENDROOT
BRANCH   1  12
ATOM      7  O   UNL     1       6.772   5.144  19.827  0.00  0.00    +0.000 OA
ATOM      8  C   UNL     1       6.167   5.108  18.771  0.00  0.00    +0.000 C 
ATOM      9  N   UNL     1       6.212   6.107  17.804  0.00  0.00    +0.000 N 
ATOM     10  C   UNL     1       5.071   5.973  16.940  0.00  0.00    +0.000 C 
ATOM     11  C   UNL     1       4.766   4.486  17.016  0.00  0.00    +0.000 C 
ATOM     12  N   UNL     1       5.245   4.147  18.345  0.00  0.00    +0.000 N 
ATOM     13  H   UNL     1       6.618   6.990  18.085  0.00  0.00    +0.000 HD
ENDBRANCH   1  12
BRANCH   5  14
ATOM     14  C   UNL     1       1.321   4.864  20.511  0.00  0.00    +0.000 C 
BRANCH  14  15
ATOM     15  C   UNL     1       1.475   6.349  20.524  0.00  0.00    +0.000 A 
ATOM     16  C   UNL     1       2.236   7.160  19.712  0.00  0.00    +0.000 A 
ATOM     17  O   UNL     1       1.978   8.454  20.047  0.00  0.00    +0.000 OA
ATOM     18  C   UNL     1       1.052   8.378  21.063  0.00  0.00    +0.000 A 
ATOM     19  N   UNL     1       0.770   7.134  21.412  0.00  0.00    +0.000 NA
BRANCH  18  20
ATOM     20  C   UNL     1       0.402   9.517  21.653  0.00  0.00    +0.000 A 
ATOM     21  C   UNL     1      -0.396   9.520  22.783  0.00  0.00    +0.000 A 
ATOM     22  C   UNL     1      -0.945  10.805  23.062  0.00  0.00    +0.000 A 
ATOM     23  C   UNL     1      -0.542  11.745  22.139  0.00  0.00    +0.000 A 
ATOM     24  S   UNL     1       0.504  11.080  20.961  0.00  0.00    +0.000 S 
ENDBRANCH  18  20
ENDBRANCH  14  15
ENDBRANCH   5  14
TORSDOF 4
ENDMDL
