MODEL 1
REMARK VINA RESULT:      -8.4      0.000      0.000
REMARK  Name = 
REMARK  5 active torsions:
REMARK  status: ('A' for Active; 'I' for Inactive)
REMARK    1  A    between atoms: C_1  and  C_2
REMARK    2  A    between atoms: N_4  and  C_5
REMARK    3  A    between atoms: C_5  and  C_6
REMARK    4  A    between atoms: C_10  and  C_11
REMARK    5  A    between atoms: C_13  and  C_14
REMARK                            x       y       z     vdW  Elec       q    Type
REMARK                         _______ _______ _______ _____ _____    ______ ____
ROOT
ATOM      1  C   UNL     1       2.269   6.319  20.049  0.00  0.00    +0.000 A 
ATOM      2  N   UNL     1       3.319   6.020  19.309  0.00  0.00    +0.000 NA
ATOM      3  C   UNL     1       3.484   4.670  19.542  0.00  0.00    +0.000 A 
ATOM      4  N   UNL     1       2.540   4.127  20.323  0.00  0.00    +0.000 NA
ATOM      5  O   UNL     1       1.746   5.217  20.674  0.00  0.00    +0.000 OA
ENDROOT
BRANCH   3   6
ATOM      6  C   UNL     1       4.574   3.845  18.945  0.00  0.00    +0.000 C 
ATOM      7  C   UNL     1       4.216   3.147  17.621  0.00  0.00    +0.000 C 
ATOM      8  C   UNL     1       4.483   4.161  16.495  0.00  0.00    +0.000 C 
ATOM      9  C   UNL     1       5.602   4.959  17.088  0.00  0.00    +0.000 A 
ATOM     10  C   UNL     1       6.496   5.788  16.431  0.00  0.00    +0.000 A 
ATOM     11  C   UNL     1       7.476   6.435  17.184  0.00  0.00    +0.000 A 
ATOM     12  C   UNL     1       7.542   6.257  18.576  0.00  0.00    +0.000 A 
ATOM     13  C   UNL     1       6.621   5.438  19.235  0.00  0.00    +0.000 A 
ATOM     14  C   UNL     1       5.647   4.796  18.480  0.00  0.00    +0.000 A 
ENDBRANCH   3   6
BRANCH   1  20
ATOM     15  C   UNL     1       1.909   8.663  17.782  0.00  0.00    +0.000 C 
ATOM     16  C   UNL     1       1.571   8.706  19.227  0.00  0.00    +0.000 A 
ATOM     17  N   UNL     1       1.034   9.817  19.755  0.00  0.00    +0.000 NA
ATOM     18  N   UNL     1       0.793   9.489  21.038  0.00  0.00    +0.000 N 
ATOM     19  C   UNL     1       1.209   8.231  21.363  0.00  0.00    +0.000 A 
ATOM     20  C   UNL     1       1.715   7.690  20.203  0.00  0.00    +0.000 A 
BRANCH  18  21
ATOM     21  C   UNL     1       0.200  10.468  21.923  0.00  0.00    +0.000 C 
BRANCH  21  22
ATOM     22  C   UNL     1      -0.650   9.817  22.985  0.00  0.00    +0.000 C 
ATOM     23  F   UNL     1       0.123   9.436  24.036  0.00  0.00    +0.000 F 
ATOM     24  F   UNL     1      -1.514  10.746  23.481  0.00  0.00    +0.000 F 
ENDBRANCH  21  22
ENDBRANCH  18  21
ENDBRANCH   1  20
TORSDOF 4
ENDMDL
MODEL 2
REMARK VINA RESULT:      -8.1      5.902      8.693
REMARK  Name = 
REMARK  5 active torsions:
REMARK  status: ('A' for Active; 'I' for Inactive)
REMARK    1  A    between atoms: C_1  and  C_2
REMARK    2  A    between atoms: N_4  and  C_5
REMARK    3  A    between atoms: C_5  and  C_6
REMARK    4  A    between atoms: C_10  and  C_11
REMARK    5  A    between atoms: C_13  and  C_14
REMARK                            x       y       z     vdW  Elec       q    Type
REMARK                         _______ _______ _______ _____ _____    ______ ____
ROOT
ATOM      1  C   UNL     1       6.224   4.585  15.613  0.00  0.00    +0.000 A 
ATOM      2  N   UNL     1       5.156   4.627  16.386  0.00  0.00    +0.000 NA
ATOM      3  C   UNL     1       5.686   4.901  17.629  0.00  0.00    +0.000 A 
ATOM      4  N   UNL     1       7.012   5.103  17.629  0.00  0.00    +0.000 NA
ATOM      5  O   UNL     1       7.372   4.878  16.303  0.00  0.00    +0.000 OA
ENDROOT
BRANCH   3   6
ATOM      6  C   UNL     1       4.877   5.026  18.876  0.00  0.00    +0.000 C 
ATOM      7  C   UNL     1       4.045   6.317  18.988  0.00  0.00    +0.000 C 
ATOM      8  C   UNL     1       2.718   6.058  18.254  0.00  0.00    +0.000 C 
ATOM      9  C   UNL     1       2.557   4.584  18.463  0.00  0.00    +0.000 A 
ATOM     10  C   UNL     1       1.403   3.830  18.336  0.00  0.00    +0.000 A 
ATOM     11  C   UNL     1       1.477   2.459  18.590  0.00  0.00    +0.000 A 
ATOM     12  C   UNL     1       2.697   1.863  18.952  0.00  0.00    +0.000 A 
ATOM     13  C   UNL     1       3.862   2.629  19.053  0.00  0.00    +0.000 A 
ATOM     14  C   UNL     1       3.783   3.992  18.799  0.00  0.00    +0.000 A 
ENDBRANCH   3   6
BRANCH   1  20
ATOM     15  C   UNL     1       8.349   5.443  13.264  0.00  0.00    +0.000 C 
ATOM     16  C   UNL     1       7.110   4.632  13.149  0.00  0.00    +0.000 A 
ATOM     17  N   UNL     1       6.744   4.139  11.955  0.00  0.00    +0.000 NA
ATOM     18  N   UNL     1       5.643   3.411  12.224  0.00  0.00    +0.000 N 
ATOM     19  C   UNL     1       5.261   3.469  13.531  0.00  0.00    +0.000 A 
ATOM     20  C   UNL     1       6.200   4.251  14.165  0.00  0.00    +0.000 A 
BRANCH  18  21
ATOM     21  C   UNL     1       4.968   2.720  11.147  0.00  0.00    +0.000 C 
BRANCH  21  22
ATOM     22  C   UNL     1       3.568   3.239  10.942  0.00  0.00    +0.000 C 
ATOM     23  F   UNL     1       3.595   4.382  10.208  0.00  0.00    +0.000 F 
ATOM     24  F   UNL     1       2.873   2.336  10.194  0.00  0.00    +0.000 F 
ENDBRANCH  21  22
ENDBRANCH  18  21
ENDBRANCH   1  20
TORSDOF 4
ENDMDL
MODEL 3
REMARK VINA RESULT:      -8.1      6.340      9.211
REMARK  Name = 
REMARK  5 active torsions:
REMARK  status: ('A' for Active; 'I' for Inactive)
REMARK    1  A    between atoms: C_1  and  C_2
REMARK    2  A    between atoms: N_4  and  C_5
REMARK    3  A    between atoms: C_5  and  C_6
REMARK    4  A    between atoms: C_10  and  C_11
REMARK    5  A    between atoms: C_13  and  C_14
REMARK                            x       y       z     vdW  Elec       q    Type
REMARK                         _______ _______ _______ _____ _____    ______ ____
ROOT
ATOM      1  C   UNL     1       6.292   4.974  15.351  0.00  0.00    +0.000 A 
ATOM      2  N   UNL     1       5.260   4.793  16.154  0.00  0.00    +0.000 NA
ATOM      3  C   UNL     1       5.651   5.438  17.308  0.00  0.00    +0.000 A 
ATOM      4  N   UNL     1       6.833   6.065  17.215  0.00  0.00    +0.000 NA
ATOM      5  O   UNL     1       7.266   5.746  15.930  0.00  0.00    +0.000 OA
ENDROOT
BRANCH   3   6
ATOM      6  C   UNL     1       4.830   5.501  18.552  0.00  0.00    +0.000 C 
ATOM      7  C   UNL     1       3.842   6.680  18.623  0.00  0.00    +0.000 C 
ATOM      8  C   UNL     1       2.560   6.233  17.900  0.00  0.00    +0.000 C 
ATOM      9  C   UNL     1       2.584   4.758  18.158  0.00  0.00    +0.000 A 
ATOM     10  C   UNL     1       1.535   3.861  18.058  0.00  0.00    +0.000 A 
ATOM     11  C   UNL     1       1.779   2.520  18.356  0.00  0.00    +0.000 A 
ATOM     12  C   UNL     1       3.064   2.094  18.735  0.00  0.00    +0.000 A 
ATOM     13  C   UNL     1       4.123   3.002  18.809  0.00  0.00    +0.000 A 
ATOM     14  C   UNL     1       3.874   4.336  18.511  0.00  0.00    +0.000 A 
ENDBRANCH   3   6
BRANCH   1  20
ATOM     15  C   UNL     1       8.380   5.770  12.949  0.00  0.00    +0.000 C 
ATOM     16  C   UNL     1       7.294   4.758  12.941  0.00  0.00    +0.000 A 
ATOM     17  N   UNL     1       7.076   4.020  11.841  0.00  0.00    +0.000 NA
ATOM     18  N   UNL     1       6.091   3.175  12.201  0.00  0.00    +0.000 N 
ATOM     19  C   UNL     1       5.633   3.385  13.468  0.00  0.00    +0.000 A 
ATOM     20  C   UNL     1       6.400   4.405  13.982  0.00  0.00    +0.000 A 
BRANCH  18  21
ATOM     21  C   UNL     1       5.595   2.213  11.242  0.00  0.00    +0.000 C 
BRANCH  21  22
ATOM     22  C   UNL     1       6.685   1.286  10.767  0.00  0.00    +0.000 C 
ATOM     23  F   UNL     1       7.835   1.526  11.451  0.00  0.00    +0.000 F 
ATOM     24  F   UNL     1       6.333   0.005  11.075  0.00  0.00    +0.000 F 
ENDBRANCH  21  22
ENDBRANCH  18  21
ENDBRANCH   1  20
TORSDOF 4
ENDMDL
MODEL 4
REMARK VINA RESULT:      -8.0      4.519      6.674
REMARK  Name = 
REMARK  5 active torsions:
REMARK  status: ('A' for Active; 'I' for Inactive)
REMARK    1  A    between atoms: C_1  and  C_2
REMARK    2  A    between atoms: N_4  and  C_5
REMARK    3  A    between atoms: C_5  and  C_6
REMARK    4  A    between atoms: C_10  and  C_11
REMARK    5  A    between atoms: C_13  and  C_14
REMARK                            x       y       z     vdW  Elec       q    Type
REMARK                         _______ _______ _______ _____ _____    ______ ____
ROOT
ATOM      1  C   UNL     1       5.897   5.641  17.223  0.00  0.00    +0.000 A 
ATOM      2  N   UNL     1       4.886   5.162  17.923  0.00  0.00    +0.000 NA
ATOM      3  C   UNL     1       4.243   4.346  17.015  0.00  0.00    +0.000 A 
ATOM      4  N   UNL     1       4.859   4.250  15.829  0.00  0.00    +0.000 NA
ATOM      5  O   UNL     1       5.942   5.118  15.957  0.00  0.00    +0.000 OA
ENDROOT
BRANCH   3   6
ATOM      6  C   UNL     1       3.000   3.578  17.314  0.00  0.00    +0.000 C 
ATOM      7  C   UNL     1       3.170   2.048  17.352  0.00  0.00    +0.000 C 
ATOM      8  C   UNL     1       3.634   1.686  18.773  0.00  0.00    +0.000 C 
ATOM      9  C   UNL     1       2.988   2.773  19.573  0.00  0.00    +0.000 A 
ATOM     10  C   UNL     1       2.751   2.799  20.936  0.00  0.00    +0.000 A 
ATOM     11  C   UNL     1       2.120   3.920  21.478  0.00  0.00    +0.000 A 
ATOM     12  C   UNL     1       1.748   4.998  20.657  0.00  0.00    +0.000 A 
ATOM     13  C   UNL     1       2.013   4.974  19.285  0.00  0.00    +0.000 A 
ATOM     14  C   UNL     1       2.641   3.856  18.752  0.00  0.00    +0.000 A 
ENDBRANCH   3   6
BRANCH   1  20
ATOM     15  C   UNL     1       8.208   5.275  19.522  0.00  0.00    +0.000 C 
ATOM     16  C   UNL     1       7.861   6.485  18.735  0.00  0.00    +0.000 A 
ATOM     17  N   UNL     1       8.545   7.625  18.925  0.00  0.00    +0.000 NA
ATOM     18  N   UNL     1       8.028   8.474  18.018  0.00  0.00    +0.000 N 
ATOM     19  C   UNL     1       7.003   7.939  17.296  0.00  0.00    +0.000 A 
ATOM     20  C   UNL     1       6.872   6.640  17.733  0.00  0.00    +0.000 A 
BRANCH  18  21
ATOM     21  C   UNL     1       8.541   9.825  17.936  0.00  0.00    +0.000 C 
BRANCH  21  22
ATOM     22  C   UNL     1       9.362  10.184  19.148  0.00  0.00    +0.000 C 
ATOM     23  F   UNL     1      10.554  10.712  18.766  0.00  0.00    +0.000 F 
ATOM     24  F   UNL     1       8.721  11.175  19.830  0.00  0.00    +0.000 F 
ENDBRANCH  21  22
ENDBRANCH  18  21
ENDBRANCH   1  20
TORSDOF 4
ENDMDL
MODEL 5
REMARK VINA RESULT:      -7.9      1.623      1.925
REMARK  Name = 
REMARK  5 active torsions:
REMARK  status: ('A' for Active; 'I' for Inactive)
REMARK    1  A    between atoms: C_1  and  C_2
REMARK    2  A    between atoms: N_4  and  C_5
REMARK    3  A    between atoms: C_5  and  C_6
REMARK    4  A    between atoms: C_10  and  C_11
REMARK    5  A    between atoms: C_13  and  C_14
REMARK                            x       y       z     vdW  Elec       q    Type
REMARK                         _______ _______ _______ _____ _____    ______ ____
ROOT
ATOM      1  C   UNL     1       1.942   7.818  19.740  0.00  0.00    +0.000 A 
ATOM      2  N   UNL     1       2.225   6.618  20.210  0.00  0.00    +0.000 NA
ATOM      3  C   UNL     1       3.043   6.091  19.234  0.00  0.00    +0.000 A 
ATOM      4  N   UNL     1       3.330   6.941  18.237  0.00  0.00    +0.000 NA
ATOM      5  O   UNL     1       2.589   8.076  18.559  0.00  0.00    +0.000 OA
ENDROOT
BRANCH   3   6
ATOM      6  C   UNL     1       3.624   4.717  19.279  0.00  0.00    +0.000 C 
ATOM      7  C   UNL     1       2.882   3.665  18.435  0.00  0.00    +0.000 C 
ATOM      8  C   UNL     1       3.442   3.763  17.006  0.00  0.00    +0.000 C 
ATOM      9  C   UNL     1       4.843   4.214  17.277  0.00  0.00    +0.000 A 
ATOM     10  C   UNL     1       5.935   4.151  16.428  0.00  0.00    +0.000 A 
ATOM     11  C   UNL     1       7.163   4.624  16.893  0.00  0.00    +0.000 A 
ATOM     12  C   UNL     1       7.280   5.161  18.186  0.00  0.00    +0.000 A 
ATOM     13  C   UNL     1       6.168   5.243  19.027  0.00  0.00    +0.000 A 
ATOM     14  C   UNL     1       4.948   4.772  18.560  0.00  0.00    +0.000 A 
ENDBRANCH   3   6
BRANCH   1  20
ATOM     15  C   UNL     1       0.051  10.125  18.372  0.00  0.00    +0.000 C 
ATOM     16  C   UNL     1       0.215   9.786  19.809  0.00  0.00    +0.000 A 
ATOM     17  N   UNL     1      -0.476  10.464  20.739  0.00  0.00    +0.000 NA
ATOM     18  N   UNL     1      -0.150   9.861  21.897  0.00  0.00    +0.000 N 
ATOM     19  C   UNL     1       0.767   8.863  21.749  0.00  0.00    +0.000 A 
ATOM     20  C   UNL     1       1.021   8.781  20.398  0.00  0.00    +0.000 A 
BRANCH  18  21
ATOM     21  C   UNL     1      -0.725  10.341  23.135  0.00  0.00    +0.000 C 
BRANCH  21  22
ATOM     22  C   UNL     1      -1.604  11.545  22.911  0.00  0.00    +0.000 C 
ATOM     23  F   UNL     1      -2.726  11.454  23.674  0.00  0.00    +0.000 F 
ATOM     24  F   UNL     1      -0.947  12.653  23.354  0.00  0.00    +0.000 F 
ENDBRANCH  21  22
ENDBRANCH  18  21
ENDBRANCH   1  20
TORSDOF 4
ENDMDL
MODEL 6
REMARK VINA RESULT:      -7.8      1.058      1.224
REMARK  Name = 
REMARK  5 active torsions:
REMARK  status: ('A' for Active; 'I' for Inactive)
REMARK    1  A    between atoms: C_1  and  C_2
REMARK    2  A    between atoms: N_4  and  C_5
REMARK    3  A    between atoms: C_5  and  C_6
REMARK    4  A    between atoms: C_10  and  C_11
REMARK    5  A    between atoms: C_13  and  C_14
REMARK                            x       y       z     vdW  Elec       q    Type
REMARK                         _______ _______ _______ _____ _____    ______ ____
ROOT
ATOM      1  C   UNL     1       2.273   6.388  20.126  0.00  0.00    +0.000 A 
ATOM      2  N   UNL     1       3.278   6.070  19.333  0.00  0.00    +0.000 NA
ATOM      3  C   UNL     1       3.491   4.740  19.626  0.00  0.00    +0.000 A 
ATOM      4  N   UNL     1       2.616   4.220  20.498  0.00  0.00    +0.000 NA
ATOM      5  O   UNL     1       1.821   5.311  20.844  0.00  0.00    +0.000 OA
ENDROOT
BRANCH   3   6
ATOM      6  C   UNL     1       4.559   3.906  19.001  0.00  0.00    +0.000 C 
ATOM      7  C   UNL     1       4.167   3.229  17.674  0.00  0.00    +0.000 C 
ATOM      8  C   UNL     1       4.430   4.253  16.556  0.00  0.00    +0.000 C 
ATOM      9  C   UNL     1       5.571   5.028  17.139  0.00  0.00    +0.000 A 
ATOM     10  C   UNL     1       6.465   5.851  16.476  0.00  0.00    +0.000 A 
ATOM     11  C   UNL     1       7.467   6.475  17.220  0.00  0.00    +0.000 A 
ATOM     12  C   UNL     1       7.555   6.279  18.608  0.00  0.00    +0.000 A 
ATOM     13  C   UNL     1       6.633   5.465  19.273  0.00  0.00    +0.000 A 
ATOM     14  C   UNL     1       5.637   4.847  18.528  0.00  0.00    +0.000 A 
ENDBRANCH   3   6
BRANCH   1  20
ATOM     15  C   UNL     1       1.945   8.694  17.816  0.00  0.00    +0.000 C 
ATOM     16  C   UNL     1       1.567   8.753  19.250  0.00  0.00    +0.000 A 
ATOM     17  N   UNL     1       1.000   9.864  19.747  0.00  0.00    +0.000 NA
ATOM     18  N   UNL     1       0.728   9.551  21.027  0.00  0.00    +0.000 N 
ATOM     19  C   UNL     1       1.151   8.304  21.382  0.00  0.00    +0.000 A 
ATOM     20  C   UNL     1       1.696   7.753  20.245  0.00  0.00    +0.000 A 
BRANCH  18  21
ATOM     21  C   UNL     1       0.098  10.535  21.881  0.00  0.00    +0.000 C 
BRANCH  21  22
ATOM     22  C   UNL     1      -0.171  11.822  21.144  0.00  0.00    +0.000 C 
ATOM     23  F   UNL     1      -1.448  11.836  20.678  0.00  0.00    +0.000 F 
ATOM     24  F   UNL     1      -0.090  12.856  22.028  0.00  0.00    +0.000 F 
ENDBRANCH  21  22
ENDBRANCH  18  21
ENDBRANCH   1  20
TORSDOF 4
ENDMDL
MODEL 7
REMARK VINA RESULT:      -7.8      2.204      3.747
REMARK  Name = 
REMARK  5 active torsions:
REMARK  status: ('A' for Active; 'I' for Inactive)
REMARK    1  A    between atoms: C_1  and  C_2
REMARK    2  A    between atoms: N_4  and  C_5
REMARK    3  A    between atoms: C_5  and  C_6
REMARK    4  A    between atoms: C_10  and  C_11
REMARK    5  A    between atoms: C_13  and  C_14
REMARK                            x       y       z     vdW  Elec       q    Type
REMARK                         _______ _______ _______ _____ _____    ______ ____
ROOT
ATOM      1  C   UNL     1       1.741   8.754  18.777  0.00  0.00    +0.000 A 
ATOM      2  N   UNL     1       2.128   7.502  18.933  0.00  0.00    +0.000 NA
ATOM      3  C   UNL     1       2.928   7.288  17.830  0.00  0.00    +0.000 A 
ATOM      4  N   UNL     1       3.105   8.371  17.060  0.00  0.00    +0.000 NA
ATOM      5  O   UNL     1       2.308   9.336  17.672  0.00  0.00    +0.000 OA
ENDROOT
BRANCH   3   6
ATOM      6  C   UNL     1       3.600   5.992  17.522  0.00  0.00    +0.000 C 
ATOM      7  C   UNL     1       4.980   5.800  18.178  0.00  0.00    +0.000 C 
ATOM      8  C   UNL     1       4.729   5.238  19.588  0.00  0.00    +0.000 C 
ATOM      9  C   UNL     1       3.461   4.472  19.371  0.00  0.00    +0.000 A 
ATOM     10  C   UNL     1       2.923   3.476  20.168  0.00  0.00    +0.000 A 
ATOM     11  C   UNL     1       1.724   2.884  19.768  0.00  0.00    +0.000 A 
ATOM     12  C   UNL     1       1.078   3.299  18.592  0.00  0.00    +0.000 A 
ATOM     13  C   UNL     1       1.616   4.322  17.806  0.00  0.00    +0.000 A 
ATOM     14  C   UNL     1       2.809   4.908  18.209  0.00  0.00    +0.000 A 
ENDBRANCH   3   6
BRANCH   1  20
ATOM     15  C   UNL     1      -1.006  10.379  18.018  0.00  0.00    +0.000 C 
ATOM     16  C   UNL     1      -0.385  10.171  19.350  0.00  0.00    +0.000 A 
ATOM     17  N   UNL     1      -0.970  10.679  20.447  0.00  0.00    +0.000 NA
ATOM     18  N   UNL     1      -0.198  10.248  21.462  0.00  0.00    +0.000 N 
ATOM     19  C   UNL     1       0.889   9.534  21.051  0.00  0.00    +0.000 A 
ATOM     20  C   UNL     1       0.794   9.459  19.680  0.00  0.00    +0.000 A 
BRANCH  18  21
ATOM     21  C   UNL     1      -0.540  10.612  22.820  0.00  0.00    +0.000 C 
BRANCH  21  22
ATOM     22  C   UNL     1      -1.565  11.717  22.859  0.00  0.00    +0.000 C 
ATOM     23  F   UNL     1      -2.604  11.364  23.660  0.00  0.00    +0.000 F 
ATOM     24  F   UNL     1      -1.002  12.812  23.445  0.00  0.00    +0.000 F 
ENDBRANCH  21  22
ENDBRANCH  18  21
ENDBRANCH   1  20
TORSDOF 4
ENDMDL
MODEL 8
REMARK VINA RESULT:      -7.7      0.995      1.296
REMARK  Name = 
REMARK  5 active torsions:
REMARK  status: ('A' for Active; 'I' for Inactive)
REMARK    1  A    between atoms: C_1  and  C_2
REMARK    2  A    between atoms: N_4  and  C_5
REMARK    3  A    between atoms: C_5  and  C_6
REMARK    4  A    between atoms: C_10  and  C_11
REMARK    5  A    between atoms: C_13  and  C_14
REMARK                            x       y       z     vdW  Elec       q    Type
REMARK                         _______ _______ _______ _____ _____    ______ ____
ROOT
ATOM      1  C   UNL     1       2.296   6.471  19.464  0.00  0.00    +0.000 A 
ATOM      2  N   UNL     1       3.429   6.457  18.787  0.00  0.00    +0.000 NA
ATOM      3  C   UNL     1       3.582   5.123  18.471  0.00  0.00    +0.000 A 
ATOM      4  N   UNL     1       2.559   4.346  18.856  0.00  0.00    +0.000 NA
ATOM      5  O   UNL     1       1.718   5.230  19.528  0.00  0.00    +0.000 OA
ENDROOT
BRANCH   3   6
ATOM      6  C   UNL     1       4.743   4.568  17.717  0.00  0.00    +0.000 C 
ATOM      7  C   UNL     1       4.723   4.832  16.200  0.00  0.00    +0.000 C 
ATOM      8  C   UNL     1       5.350   6.219  15.980  0.00  0.00    +0.000 C 
ATOM      9  C   UNL     1       6.307   6.288  17.128  0.00  0.00    +0.000 A 
ATOM     10  C   UNL     1       7.395   7.131  17.279  0.00  0.00    +0.000 A 
ATOM     11  C   UNL     1       8.165   7.018  18.436  0.00  0.00    +0.000 A 
ATOM     12  C   UNL     1       7.835   6.078  19.427  0.00  0.00    +0.000 A 
ATOM     13  C   UNL     1       6.721   5.247  19.278  0.00  0.00    +0.000 A 
ATOM     14  C   UNL     1       5.957   5.365  18.124  0.00  0.00    +0.000 A 
ENDBRANCH   3   6
BRANCH   1  20
ATOM     15  C   UNL     1       1.431   9.311  18.067  0.00  0.00    +0.000 C 
ATOM     16  C   UNL     1       1.351   8.913  19.495  0.00  0.00    +0.000 A 
ATOM     17  N   UNL     1       0.861   9.773  20.402  0.00  0.00    +0.000 NA
ATOM     18  N   UNL     1       0.865   9.076  21.553  0.00  0.00    +0.000 N 
ATOM     19  C   UNL     1       1.391   7.825  21.428  0.00  0.00    +0.000 A 
ATOM     20  C   UNL     1       1.712   7.682  20.096  0.00  0.00    +0.000 A 
BRANCH  18  21
ATOM     21  C   UNL     1       0.390   9.704  22.767  0.00  0.00    +0.000 C 
BRANCH  21  22
ATOM     22  C   UNL     1      -0.764  10.636  22.497  0.00  0.00    +0.000 C 
ATOM     23  F   UNL     1      -1.694  10.528  23.482  0.00  0.00    +0.000 F 
ATOM     24  F   UNL     1      -0.311  11.920  22.557  0.00  0.00    +0.000 F 
ENDBRANCH  21  22
ENDBRANCH  18  21
ENDBRANCH   1  20
TORSDOF 4
ENDMDL
MODEL 9
REMARK VINA RESULT:      -7.7      2.831      4.357
REMARK  Name = 
REMARK  5 active torsions:
REMARK  status: ('A' for Active; 'I' for Inactive)
REMARK    1  A    between atoms: C_1  and  C_2
REMARK    2  A    between atoms: N_4  and  C_5
REMARK    3  A    between atoms: C_5  and  C_6
REMARK    4  A    between atoms: C_10  and  C_11
REMARK    5  A    between atoms: C_13  and  C_14
REMARK                            x       y       z     vdW  Elec       q    Type
REMARK                         _______ _______ _______ _____ _____    ______ ____
ROOT
ATOM      1  C   UNL     1       2.355   7.937  18.306  0.00  0.00    +0.000 A 
ATOM      2  N   UNL     1       2.163   6.635  18.406  0.00  0.00    +0.000 NA
ATOM      3  C   UNL     1       3.247   6.112  17.733  0.00  0.00    +0.000 A 
ATOM      4  N   UNL     1       4.122   7.031  17.301  0.00  0.00    +0.000 NA
ATOM      5  O   UNL     1       3.527   8.238  17.662  0.00  0.00    +0.000 OA
ENDROOT
BRANCH   3   6
ATOM      6  C   UNL     1       3.486   4.653  17.536  0.00  0.00    +0.000 C 
ATOM      7  C   UNL     1       4.905   4.169  17.888  0.00  0.00    +0.000 C 
ATOM      8  C   UNL     1       4.916   3.881  19.399  0.00  0.00    +0.000 C 
ATOM      9  C   UNL     1       3.493   3.475  19.625  0.00  0.00    +0.000 A 
ATOM     10  C   UNL     1       2.969   2.777  20.699  0.00  0.00    +0.000 A 
ATOM     11  C   UNL     1       1.602   2.495  20.702  0.00  0.00    +0.000 A 
ATOM     12  C   UNL     1       0.781   2.922  19.645  0.00  0.00    +0.000 A 
ATOM     13  C   UNL     1       1.314   3.647  18.576  0.00  0.00    +0.000 A 
ATOM     14  C   UNL     1       2.675   3.926  18.579  0.00  0.00    +0.000 A 
ENDBRANCH   3   6
BRANCH   1  20
ATOM     15  C   UNL     1       1.323   8.437  21.380  0.00  0.00    +0.000 C 
ATOM     16  C   UNL     1       0.957   9.173  20.144  0.00  0.00    +0.000 A 
ATOM     17  N   UNL     1       0.098  10.203  20.208  0.00  0.00    +0.000 NA
ATOM     18  N   UNL     1       0.052  10.673  18.948  0.00  0.00    +0.000 N 
ATOM     19  C   UNL     1       0.802   9.947  18.070  0.00  0.00    +0.000 A 
ATOM     20  C   UNL     1       1.412   8.965  18.818  0.00  0.00    +0.000 A 
BRANCH  18  21
ATOM     21  C   UNL     1      -0.792  11.808  18.643  0.00  0.00    +0.000 C 
BRANCH  21  22
ATOM     22  C   UNL     1      -2.101  11.381  18.028  0.00  0.00    +0.000 C 
ATOM     23  F   UNL     1      -1.994  11.350  16.674  0.00  0.00    +0.000 F 
ATOM     24  F   UNL     1      -2.362  10.098  18.407  0.00  0.00    +0.000 F 
ENDBRANCH  21  22
ENDBRANCH  18  21
ENDBRANCH   1  20
TORSDOF 4
ENDMDL
