MODEL 1
REMARK VINA RESULT:      -7.2      0.000      0.000
REMARK  Name = 
REMARK  2 active torsions:
REMARK  status: ('A' for Active; 'I' for Inactive)
REMARK    1  A    between atoms: C_1  and  C_2
REMARK    2  A    between atoms: C_7  and  C_9
REMARK                            x       y       z     vdW  Elec       q    Type
REMARK                         _______ _______ _______ _____ _____    ______ ____
ROOT
ATOM      1  C   UNL     1       1.821   3.378  21.065  0.00  0.00    +0.000 C 
ATOM      2  C   UNL     1       2.504   3.532  19.745  0.00  0.00    +0.000 A 
ATOM      3  C   UNL     1       1.854   3.329  18.529  0.00  0.00    +0.000 A 
ATOM      4  C   UNL     1       2.557   3.492  17.330  0.00  0.00    +0.000 A 
ATOM      5  C   UNL     1       3.897   3.860  17.378  0.00  0.00    +0.000 A 
ATOM      6  N   UNL     1       4.595   4.022  16.173  0.00  0.00    +0.000 N 
ATOM      7  C   UNL     1       5.917   4.418  16.086  0.00  0.00    +0.000 C 
ATOM      8  O   UNL     1       6.666   4.732  17.005  0.00  0.00    +0.000 OA
ATOM      9  N   UNL     1       4.532   4.054  18.546  0.00  0.00    +0.000 NA
ATOM     10  C   UNL     1       3.842   3.889  19.691  0.00  0.00    +0.000 A 
ATOM     11  H   UNL     1       4.126   3.832  15.295  0.00  0.00    +0.000 HD
ENDROOT
BRANCH   7  12
ATOM     12  C   UNL     1       6.459   4.457  14.691  0.00  0.00    +0.000 A 
ATOM     13  C   UNL     1       5.884   3.638  13.723  0.00  0.00    +0.000 A 
ATOM     14  C   UNL     1       6.365   3.708  12.421  0.00  0.00    +0.000 A 
ATOM     15  C   UNL     1       7.400   4.587  12.132  0.00  0.00    +0.000 A 
ATOM     16  C   UNL     1       7.924   5.360  13.163  0.00  0.00    +0.000 A 
ATOM     17  N   UNL     1       7.483   5.324  14.443  0.00  0.00    +0.000 NA
ENDBRANCH   7  12
TORSDOF 1
ENDMDL
MODEL 2
REMARK VINA RESULT:      -6.8      1.633      6.851
REMARK  Name = 
REMARK  2 active torsions:
REMARK  status: ('A' for Active; 'I' for Inactive)
REMARK    1  A    between atoms: C_1  and  C_2
REMARK    2  A    between atoms: C_7  and  C_9
REMARK                            x       y       z     vdW  Elec       q    Type
REMARK                         _______ _______ _______ _____ _____    ______ ____
ROOT
ATOM      1  C   UNL     1       7.644   5.073  13.205  0.00  0.00    +0.000 C 
ATOM      2  C   UNL     1       6.876   4.827  14.464  0.00  0.00    +0.000 A 
ATOM      3  C   UNL     1       7.389   5.110  15.729  0.00  0.00    +0.000 A 
ATOM      4  C   UNL     1       6.612   4.855  16.865  0.00  0.00    +0.000 A 
ATOM      5  C   UNL     1       5.336   4.327  16.705  0.00  0.00    +0.000 A 
ATOM      6  N   UNL     1       4.564   4.074  17.848  0.00  0.00    +0.000 N 
ATOM      7  C   UNL     1       3.271   3.584  17.821  0.00  0.00    +0.000 C 
ATOM      8  O   UNL     1       2.583   3.341  16.836  0.00  0.00    +0.000 OA
ATOM      9  N   UNL     1       4.837   4.049  15.489  0.00  0.00    +0.000 NA
ATOM     10  C   UNL     1       5.598   4.296  14.406  0.00  0.00    +0.000 A 
ATOM     11  H   UNL     1       4.959   4.244  18.765  0.00  0.00    +0.000 HD
ENDROOT
BRANCH   7  12
ATOM     12  C   UNL     1       2.676   3.337  19.173  0.00  0.00    +0.000 A 
ATOM     13  C   UNL     1       1.329   3.626  19.378  0.00  0.00    +0.000 A 
ATOM     14  C   UNL     1       0.774   3.358  20.623  0.00  0.00    +0.000 A 
ATOM     15  C   UNL     1       1.578   2.816  21.617  0.00  0.00    +0.000 A 
ATOM     16  C   UNL     1       2.916   2.569  21.329  0.00  0.00    +0.000 A 
ATOM     17  N   UNL     1       3.496   2.814  20.129  0.00  0.00    +0.000 NA
ENDBRANCH   7  12
TORSDOF 1
ENDMDL
MODEL 3
REMARK VINA RESULT:      -6.8      1.520      6.696
REMARK  Name = 
REMARK  2 active torsions:
REMARK  status: ('A' for Active; 'I' for Inactive)
REMARK    1  A    between atoms: C_1  and  C_2
REMARK    2  A    between atoms: C_7  and  C_9
REMARK                            x       y       z     vdW  Elec       q    Type
REMARK                         _______ _______ _______ _____ _____    ______ ____
ROOT
ATOM      1  C   UNL     1       7.896   5.144  13.388  0.00  0.00    +0.000 C 
ATOM      2  C   UNL     1       6.885   4.798  14.433  0.00  0.00    +0.000 A 
ATOM      3  C   UNL     1       5.584   4.403  14.125  0.00  0.00    +0.000 A 
ATOM      4  C   UNL     1       4.690   4.092  15.157  0.00  0.00    +0.000 A 
ATOM      5  C   UNL     1       5.124   4.179  16.475  0.00  0.00    +0.000 A 
ATOM      6  N   UNL     1       4.224   3.866  17.503  0.00  0.00    +0.000 N 
ATOM      7  C   UNL     1       4.543   3.881  18.848  0.00  0.00    +0.000 C 
ATOM      8  O   UNL     1       5.635   4.111  19.356  0.00  0.00    +0.000 OA
ATOM      9  N   UNL     1       6.376   4.562  16.779  0.00  0.00    +0.000 NA
ATOM     10  C   UNL     1       7.222   4.862  15.776  0.00  0.00    +0.000 A 
ATOM     11  H   UNL     1       3.269   3.621  17.272  0.00  0.00    +0.000 HD
ENDROOT
BRANCH   7  12
ATOM     12  C   UNL     1       3.394   3.571  19.758  0.00  0.00    +0.000 A 
ATOM     13  C   UNL     1       2.173   4.201  19.536  0.00  0.00    +0.000 A 
ATOM     14  C   UNL     1       1.100   3.881  20.359  0.00  0.00    +0.000 A 
ATOM     15  C   UNL     1       1.283   2.949  21.372  0.00  0.00    +0.000 A 
ATOM     16  C   UNL     1       2.541   2.377  21.530  0.00  0.00    +0.000 A 
ATOM     17  N   UNL     1       3.612   2.660  20.750  0.00  0.00    +0.000 NA
ENDBRANCH   7  12
TORSDOF 1
ENDMDL
MODEL 4
REMARK VINA RESULT:      -6.7      1.666      6.904
REMARK  Name = 
REMARK  2 active torsions:
REMARK  status: ('A' for Active; 'I' for Inactive)
REMARK    1  A    between atoms: C_1  and  C_2
REMARK    2  A    between atoms: C_7  and  C_9
REMARK                            x       y       z     vdW  Elec       q    Type
REMARK                         _______ _______ _______ _____ _____    ______ ____
ROOT
ATOM      1  C   UNL     1       7.688   5.057  13.291  0.00  0.00    +0.000 C 
ATOM      2  C   UNL     1       6.899   4.776  14.529  0.00  0.00    +0.000 A 
ATOM      3  C   UNL     1       7.421   4.936  15.812  0.00  0.00    +0.000 A 
ATOM      4  C   UNL     1       6.623   4.654  16.926  0.00  0.00    +0.000 A 
ATOM      5  C   UNL     1       5.316   4.222  16.729  0.00  0.00    +0.000 A 
ATOM      6  N   UNL     1       4.523   3.942  17.850  0.00  0.00    +0.000 N 
ATOM      7  C   UNL     1       3.201   3.540  17.788  0.00  0.00    +0.000 C 
ATOM      8  O   UNL     1       2.505   3.410  16.787  0.00  0.00    +0.000 OA
ATOM      9  N   UNL     1       4.807   4.062  15.496  0.00  0.00    +0.000 NA
ATOM     10  C   UNL     1       5.589   4.334  14.433  0.00  0.00    +0.000 A 
ATOM     11  H   UNL     1       4.923   4.021  18.777  0.00  0.00    +0.000 HD
ENDROOT
BRANCH   7  12
ATOM     12  C   UNL     1       2.584   3.239  19.119  0.00  0.00    +0.000 A 
ATOM     13  C   UNL     1       3.408   2.826  20.163  0.00  0.00    +0.000 A 
ATOM     14  C   UNL     1       2.835   2.587  21.406  0.00  0.00    +0.000 A 
ATOM     15  C   UNL     1       1.466   2.763  21.563  0.00  0.00    +0.000 A 
ATOM     16  C   UNL     1       0.718   3.166  20.462  0.00  0.00    +0.000 A 
ATOM     17  N   UNL     1       1.236   3.412  19.235  0.00  0.00    +0.000 NA
ENDBRANCH   7  12
TORSDOF 1
ENDMDL
MODEL 5
REMARK VINA RESULT:      -6.5      1.304      1.347
REMARK  Name = 
REMARK  2 active torsions:
REMARK  status: ('A' for Active; 'I' for Inactive)
REMARK    1  A    between atoms: C_1  and  C_2
REMARK    2  A    between atoms: C_7  and  C_9
REMARK                            x       y       z     vdW  Elec       q    Type
REMARK                         _______ _______ _______ _____ _____    ______ ____
ROOT
ATOM      1  C   UNL     1       1.961   5.334  20.995  0.00  0.00    +0.000 C 
ATOM      2  C   UNL     1       2.703   5.028  19.734  0.00  0.00    +0.000 A 
ATOM      3  C   UNL     1       2.799   3.742  19.206  0.00  0.00    +0.000 A 
ATOM      4  C   UNL     1       3.510   3.529  18.019  0.00  0.00    +0.000 A 
ATOM      5  C   UNL     1       4.105   4.614  17.386  0.00  0.00    +0.000 A 
ATOM      6  N   UNL     1       4.816   4.394  16.197  0.00  0.00    +0.000 N 
ATOM      7  C   UNL     1       5.422   5.392  15.456  0.00  0.00    +0.000 C 
ATOM      8  O   UNL     1       5.404   6.599  15.671  0.00  0.00    +0.000 OA
ATOM      9  N   UNL     1       4.021   5.857  17.891  0.00  0.00    +0.000 NA
ATOM     10  C   UNL     1       3.336   6.044  19.035  0.00  0.00    +0.000 A 
ATOM     11  H   UNL     1       4.915   3.450  15.843  0.00  0.00    +0.000 HD
ENDROOT
BRANCH   7  12
ATOM     12  C   UNL     1       6.176   4.901  14.259  0.00  0.00    +0.000 A 
ATOM     13  C   UNL     1       5.612   3.896  13.477  0.00  0.00    +0.000 A 
ATOM     14  C   UNL     1       6.298   3.472  12.345  0.00  0.00    +0.000 A 
ATOM     15  C   UNL     1       7.518   4.060  12.036  0.00  0.00    +0.000 A 
ATOM     16  C   UNL     1       8.012   5.049  12.881  0.00  0.00    +0.000 A 
ATOM     17  N   UNL     1       7.375   5.492  13.991  0.00  0.00    +0.000 NA
ENDBRANCH   7  12
TORSDOF 1
ENDMDL
MODEL 6
REMARK VINA RESULT:      -6.5      1.523      6.696
REMARK  Name = 
REMARK  2 active torsions:
REMARK  status: ('A' for Active; 'I' for Inactive)
REMARK    1  A    between atoms: C_1  and  C_2
REMARK    2  A    between atoms: C_7  and  C_9
REMARK                            x       y       z     vdW  Elec       q    Type
REMARK                         _______ _______ _______ _____ _____    ______ ____
ROOT
ATOM      1  C   UNL     1       7.998   5.136  13.361  0.00  0.00    +0.000 C 
ATOM      2  C   UNL     1       6.958   4.778  14.374  0.00  0.00    +0.000 A 
ATOM      3  C   UNL     1       5.665   4.389  14.024  0.00  0.00    +0.000 A 
ATOM      4  C   UNL     1       4.743   4.068  15.026  0.00  0.00    +0.000 A 
ATOM      5  C   UNL     1       5.140   4.139  16.357  0.00  0.00    +0.000 A 
ATOM      6  N   UNL     1       4.211   3.815  17.356  0.00  0.00    +0.000 N 
ATOM      7  C   UNL     1       4.492   3.813  18.710  0.00  0.00    +0.000 C 
ATOM      8  O   UNL     1       5.569   4.036  19.251  0.00  0.00    +0.000 OA
ATOM      9  N   UNL     1       6.383   4.516  16.701  0.00  0.00    +0.000 NA
ATOM     10  C   UNL     1       7.258   4.826  15.726  0.00  0.00    +0.000 A 
ATOM     11  H   UNL     1       3.262   3.573  17.095  0.00  0.00    +0.000 HD
ENDROOT
BRANCH   7  12
ATOM     12  C   UNL     1       3.318   3.494  19.583  0.00  0.00    +0.000 A 
ATOM     13  C   UNL     1       3.522   2.734  20.732  0.00  0.00    +0.000 A 
ATOM     14  C   UNL     1       2.436   2.475  21.559  0.00  0.00    +0.000 A 
ATOM     15  C   UNL     1       1.189   2.979  21.212  0.00  0.00    +0.000 A 
ATOM     16  C   UNL     1       1.074   3.719  20.040  0.00  0.00    +0.000 A 
ATOM     17  N   UNL     1       2.106   3.995  19.207  0.00  0.00    +0.000 NA
ENDBRANCH   7  12
TORSDOF 1
ENDMDL
MODEL 7
REMARK VINA RESULT:      -6.5      0.801      1.247
REMARK  Name = 
REMARK  2 active torsions:
REMARK  status: ('A' for Active; 'I' for Inactive)
REMARK    1  A    between atoms: C_1  and  C_2
REMARK    2  A    between atoms: C_7  and  C_9
REMARK                            x       y       z     vdW  Elec       q    Type
REMARK                         _______ _______ _______ _____ _____    ______ ____
ROOT
ATOM      1  C   UNL     1       1.866   3.691  21.161  0.00  0.00    +0.000 C 
ATOM      2  C   UNL     1       2.501   3.813  19.814  0.00  0.00    +0.000 A 
ATOM      3  C   UNL     1       1.762   3.896  18.635  0.00  0.00    +0.000 A 
ATOM      4  C   UNL     1       2.424   4.010  17.407  0.00  0.00    +0.000 A 
ATOM      5  C   UNL     1       3.814   4.042  17.390  0.00  0.00    +0.000 A 
ATOM      6  N   UNL     1       4.471   4.156  16.157  0.00  0.00    +0.000 N 
ATOM      7  C   UNL     1       5.844   4.233  16.010  0.00  0.00    +0.000 C 
ATOM      8  O   UNL     1       6.691   4.264  16.896  0.00  0.00    +0.000 OA
ATOM      9  N   UNL     1       4.534   3.958  18.522  0.00  0.00    +0.000 NA
ATOM     10  C   UNL     1       3.882   3.845  19.695  0.00  0.00    +0.000 A 
ATOM     11  H   UNL     1       3.928   4.174  15.302  0.00  0.00    +0.000 HD
ENDROOT
BRANCH   7  12
ATOM     12  C   UNL     1       6.310   4.286  14.588  0.00  0.00    +0.000 A 
ATOM     13  C   UNL     1       7.335   5.165  14.249  0.00  0.00    +0.000 A 
ATOM     14  C   UNL     1       7.791   5.181  12.936  0.00  0.00    +0.000 A 
ATOM     15  C   UNL     1       7.209   4.325  12.011  0.00  0.00    +0.000 A 
ATOM     16  C   UNL     1       6.182   3.487  12.434  0.00  0.00    +0.000 A 
ATOM     17  N   UNL     1       5.710   3.439  13.703  0.00  0.00    +0.000 NA
ENDBRANCH   7  12
TORSDOF 1
ENDMDL
MODEL 8
REMARK VINA RESULT:      -6.4      5.594      7.046
REMARK  Name = 
REMARK  2 active torsions:
REMARK  status: ('A' for Active; 'I' for Inactive)
REMARK    1  A    between atoms: C_1  and  C_2
REMARK    2  A    between atoms: C_7  and  C_9
REMARK                            x       y       z     vdW  Elec       q    Type
REMARK                         _______ _______ _______ _____ _____    ______ ____
ROOT
ATOM      1  C   UNL     1      10.307  12.763  20.136  0.00  0.00    +0.000 C 
ATOM      2  C   UNL     1       9.606  11.685  19.373  0.00  0.00    +0.000 A 
ATOM      3  C   UNL     1       8.965  11.914  18.157  0.00  0.00    +0.000 A 
ATOM      4  C   UNL     1       8.329  10.857  17.497  0.00  0.00    +0.000 A 
ATOM      5  C   UNL     1       8.355   9.590  18.071  0.00  0.00    +0.000 A 
ATOM      6  N   UNL     1       7.715   8.535  17.405  0.00  0.00    +0.000 N 
ATOM      7  C   UNL     1       7.700   7.227  17.853  0.00  0.00    +0.000 C 
ATOM      8  O   UNL     1       8.259   6.768  18.843  0.00  0.00    +0.000 OA
ATOM      9  N   UNL     1       8.967   9.362  19.245  0.00  0.00    +0.000 NA
ATOM     10  C   UNL     1       9.572  10.392  19.870  0.00  0.00    +0.000 A 
ATOM     11  H   UNL     1       7.217   8.719  16.543  0.00  0.00    +0.000 HD
ENDROOT
BRANCH   7  12
ATOM     12  C   UNL     1       6.897   6.293  17.001  0.00  0.00    +0.000 A 
ATOM     13  C   UNL     1       5.596   5.981  17.388  0.00  0.00    +0.000 A 
ATOM     14  C   UNL     1       4.844   5.144  16.573  0.00  0.00    +0.000 A 
ATOM     15  C   UNL     1       5.412   4.648  15.407  0.00  0.00    +0.000 A 
ATOM     16  C   UNL     1       6.723   5.002  15.104  0.00  0.00    +0.000 A 
ATOM     17  N   UNL     1       7.490   5.815  15.870  0.00  0.00    +0.000 NA
ENDBRANCH   7  12
TORSDOF 1
ENDMDL
MODEL 9
REMARK VINA RESULT:      -6.4      1.724      1.835
REMARK  Name = 
REMARK  2 active torsions:
REMARK  status: ('A' for Active; 'I' for Inactive)
REMARK    1  A    between atoms: C_1  and  C_2
REMARK    2  A    between atoms: C_7  and  C_9
REMARK                            x       y       z     vdW  Elec       q    Type
REMARK                         _______ _______ _______ _____ _____    ______ ____
ROOT
ATOM      1  C   UNL     1       1.558   5.960  20.781  0.00  0.00    +0.000 C 
ATOM      2  C   UNL     1       2.426   5.900  19.565  0.00  0.00    +0.000 A 
ATOM      3  C   UNL     1       2.777   7.032  18.831  0.00  0.00    +0.000 A 
ATOM      4  C   UNL     1       3.595   6.901  17.703  0.00  0.00    +0.000 A 
ATOM      5  C   UNL     1       4.048   5.637  17.341  0.00  0.00    +0.000 A 
ATOM      6  N   UNL     1       4.867   5.514  16.210  0.00  0.00    +0.000 N 
ATOM      7  C   UNL     1       5.409   4.321  15.768  0.00  0.00    +0.000 C 
ATOM      8  O   UNL     1       5.314   3.216  16.290  0.00  0.00    +0.000 OA
ATOM      9  N   UNL     1       3.711   4.542  18.042  0.00  0.00    +0.000 NA
ATOM     10  C   UNL     1       2.920   4.684  19.122  0.00  0.00    +0.000 A 
ATOM     11  H   UNL     1       5.083   6.335  15.658  0.00  0.00    +0.000 HD
ENDROOT
BRANCH   7  12
ATOM     12  C   UNL     1       6.199   4.434  14.500  0.00  0.00    +0.000 A 
ATOM     13  C   UNL     1       5.802   3.690  13.392  0.00  0.00    +0.000 A 
ATOM     14  C   UNL     1       6.516   3.829  12.208  0.00  0.00    +0.000 A 
ATOM     15  C   UNL     1       7.597   4.700  12.171  0.00  0.00    +0.000 A 
ATOM     16  C   UNL     1       7.931   5.395  13.329  0.00  0.00    +0.000 A 
ATOM     17  N   UNL     1       7.262   5.289  14.502  0.00  0.00    +0.000 NA
ENDBRANCH   7  12
TORSDOF 1
ENDMDL
