MODEL 1
REMARK VINA RESULT:      -8.1      0.000      0.000
REMARK  Name = 
REMARK  5 active torsions:
REMARK  status: ('A' for Active; 'I' for Inactive)
REMARK    1  A    between atoms: C_2  and  C_3
REMARK    2  A    between atoms: C_5  and  N_6
REMARK    3  A    between atoms: N_10  and  C_11
REMARK    4  A    between atoms: C_20  and  C_21
REMARK    5  A    between atoms: C_25  and  C_26
REMARK                            x       y       z     vdW  Elec       q    Type
REMARK                         _______ _______ _______ _____ _____    ______ ____
ROOT
ATOM      1  N   UNL     1       3.899   7.747  16.716  0.00  0.00    +0.000 N 
ATOM      2  C   UNL     1       3.066   7.540  17.831  0.00  0.00    +0.000 A 
ATOM      3  N   UNL     1       2.421   8.588  18.348  0.00  0.00    +0.000 NA
ATOM      4  C   UNL     1       1.639   8.324  19.394  0.00  0.00    +0.000 A 
ATOM      5  N   UNL     1       0.890   9.297  20.019  0.00  0.00    +0.000 N 
ATOM      6  N   UNL     1       1.503   7.125  19.942  0.00  0.00    +0.000 NA
ATOM      7  C   UNL     1       2.205   6.145  19.372  0.00  0.00    +0.000 A 
ATOM      8  N   UNL     1       2.984   6.311  18.312  0.00  0.00    +0.000 NA
ATOM      9  H   UNL     1       4.008   8.747  16.598  0.00  0.00    +0.000 HD
ATOM     10  H   UNL     1       0.472   8.895  20.848  0.00  0.00    +0.000 HD
ENDROOT
BRANCH   5  11
ATOM     11  C   UNL     1       1.256  10.705  20.039  0.00  0.00    +0.000 C 
ATOM     12  C   UNL     1       0.638  11.467  21.219  0.00  0.00    +0.000 C 
ATOM     13  C   UNL     1      -0.887  11.534  21.152  0.00  0.00    +0.000 C 
ATOM     14  C   UNL     1      -1.380  12.092  19.828  0.00  0.00    +0.000 C 
ATOM     15  F   UNL     1      -1.155  13.432  19.810  0.00  0.00    +0.000 F 
ATOM     16  F   UNL     1      -2.726  11.928  19.750  0.00  0.00    +0.000 F 
ATOM     17  C   UNL     1      -0.732  11.474  18.599  0.00  0.00    +0.000 C 
ATOM     18  C   UNL     1       0.791  11.360  18.720  0.00  0.00    +0.000 C 
ENDBRANCH   5  11
BRANCH   1  21
ATOM     19  C   UNL     1       6.325   5.358  15.232  0.00  0.00    +0.000 A 
ATOM     20  C   UNL     1       5.177   6.129  15.371  0.00  0.00    +0.000 A 
ATOM     21  C   UNL     1       5.083   7.022  16.443  0.00  0.00    +0.000 A 
ATOM     22  C   UNL     1       6.158   7.094  17.332  0.00  0.00    +0.000 A 
ATOM     23  C   UNL     1       7.278   6.308  17.096  0.00  0.00    +0.000 A 
ATOM     24  N   UNL     1       7.381   5.431  16.078  0.00  0.00    +0.000 NA
BRANCH  19  26
ATOM     25  N   UNL     1       6.409   3.542  13.372  0.00  0.00    +0.000 NA
ATOM     26  C   UNL     1       6.406   4.362  14.201  0.00  0.00    +0.000 C 
ENDBRANCH  19  26
ENDBRANCH   1  21
BRANCH   7  27
ATOM     27  C   UNL     1       2.192   4.801  20.000  0.00  0.00    +0.000 A 
ATOM     28  C   UNL     1       1.138   4.363  20.798  0.00  0.00    +0.000 A 
ATOM     29  C   UNL     1       1.213   3.111  21.404  0.00  0.00    +0.000 A 
ATOM     30  C   UNL     1       2.338   2.317  21.203  0.00  0.00    +0.000 A 
ATOM     31  C   UNL     1       3.368   2.793  20.397  0.00  0.00    +0.000 A 
ATOM     32  N   UNL     1       3.294   4.019  19.803  0.00  0.00    +0.000 NA
BRANCH  31  33
ATOM     33  C   UNL     1       4.618   1.951  20.172  0.00  0.00    +0.000 C 
ATOM     34  F   UNL     1       5.651   2.660  19.622  0.00  0.00    +0.000 F 
ATOM     35  F   UNL     1       5.120   1.416  21.322  0.00  0.00    +0.000 F 
ATOM     36  F   UNL     1       4.410   0.902  19.325  0.00  0.00    +0.000 F 
ENDBRANCH  31  33
ENDBRANCH   7  27
TORSDOF 5
ENDMDL
MODEL 2
REMARK VINA RESULT:      -7.5      4.332      7.628
REMARK  Name = 
REMARK  5 active torsions:
REMARK  status: ('A' for Active; 'I' for Inactive)
REMARK    1  A    between atoms: C_2  and  C_3
REMARK    2  A    between atoms: C_5  and  N_6
REMARK    3  A    between atoms: N_10  and  C_11
REMARK    4  A    between atoms: C_20  and  C_21
REMARK    5  A    between atoms: C_25  and  C_26
REMARK                            x       y       z     vdW  Elec       q    Type
REMARK                         _______ _______ _______ _____ _____    ______ ____
ROOT
ATOM      1  N   UNL     1      -1.995  12.816  19.043  0.00  0.00    +0.000 N 
ATOM      2  C   UNL     1      -0.695  12.457  19.443  0.00  0.00    +0.000 A 
ATOM      3  N   UNL     1       0.226  13.417  19.553  0.00  0.00    +0.000 NA
ATOM      4  C   UNL     1       1.433  13.015  19.948  0.00  0.00    +0.000 A 
ATOM      5  N   UNL     1       2.480  13.893  20.133  0.00  0.00    +0.000 N 
ATOM      6  N   UNL     1       1.758  11.754  20.193  0.00  0.00    +0.000 NA
ATOM      7  C   UNL     1       0.779  10.862  20.032  0.00  0.00    +0.000 A 
ATOM      8  N   UNL     1      -0.458  11.177  19.672  0.00  0.00    +0.000 NA
ATOM      9  H   UNL     1      -1.961  13.775  18.721  0.00  0.00    +0.000 HD
ATOM     10  H   UNL     1       3.318  13.356  20.316  0.00  0.00    +0.000 HD
ENDROOT
BRANCH   5  11
ATOM     11  C   UNL     1       2.605  15.156  19.421  0.00  0.00    +0.000 C 
ATOM     12  C   UNL     1       3.263  15.002  18.043  0.00  0.00    +0.000 C 
ATOM     13  C   UNL     1       4.715  14.534  18.125  0.00  0.00    +0.000 C 
ATOM     14  C   UNL     1       5.554  15.420  19.031  0.00  0.00    +0.000 C 
ATOM     15  F   UNL     1       5.794  16.594  18.391  0.00  0.00    +0.000 F 
ATOM     16  F   UNL     1       6.764  14.836  19.227  0.00  0.00    +0.000 F 
ATOM     17  C   UNL     1       4.924  15.723  20.381  0.00  0.00    +0.000 C 
ATOM     18  C   UNL     1       3.449  16.127  20.275  0.00  0.00    +0.000 C 
ENDBRANCH   5  11
BRANCH   1  21
ATOM     19  C   UNL     1      -3.426  10.788  16.280  0.00  0.00    +0.000 A 
ATOM     20  C   UNL     1      -2.485  11.477  17.037  0.00  0.00    +0.000 A 
ATOM     21  C   UNL     1      -2.862  12.002  18.276  0.00  0.00    +0.000 A 
ATOM     22  C   UNL     1      -4.180  11.810  18.696  0.00  0.00    +0.000 A 
ATOM     23  C   UNL     1      -5.043  11.081  17.888  0.00  0.00    +0.000 A 
ATOM     24  N   UNL     1      -4.703  10.581  16.685  0.00  0.00    +0.000 NA
BRANCH  19  26
ATOM     25  N   UNL     1      -2.779   9.995  13.889  0.00  0.00    +0.000 NA
ATOM     26  C   UNL     1      -3.095  10.328  14.961  0.00  0.00    +0.000 C 
ENDBRANCH  19  26
ENDBRANCH   1  21
BRANCH   7  27
ATOM     27  C   UNL     1       1.097   9.421  20.177  0.00  0.00    +0.000 A 
ATOM     28  C   UNL     1       0.740   8.690  21.308  0.00  0.00    +0.000 A 
ATOM     29  C   UNL     1       1.119   7.352  21.406  0.00  0.00    +0.000 A 
ATOM     30  C   UNL     1       1.845   6.767  20.374  0.00  0.00    +0.000 A 
ATOM     31  C   UNL     1       2.179   7.534  19.261  0.00  0.00    +0.000 A 
ATOM     32  N   UNL     1       1.808   8.843  19.165  0.00  0.00    +0.000 NA
BRANCH  31  33
ATOM     33  C   UNL     1       2.987   6.921  18.122  0.00  0.00    +0.000 C 
ATOM     34  F   UNL     1       3.194   7.789  17.085  0.00  0.00    +0.000 F 
ATOM     35  F   UNL     1       4.230   6.513  18.505  0.00  0.00    +0.000 F 
ATOM     36  F   UNL     1       2.385   5.832  17.565  0.00  0.00    +0.000 F 
ENDBRANCH  31  33
ENDBRANCH   7  27
TORSDOF 5
ENDMDL
MODEL 3
REMARK VINA RESULT:      -7.5      7.914     11.094
REMARK  Name = 
REMARK  5 active torsions:
REMARK  status: ('A' for Active; 'I' for Inactive)
REMARK    1  A    between atoms: C_2  and  C_3
REMARK    2  A    between atoms: C_5  and  N_6
REMARK    3  A    between atoms: N_10  and  C_11
REMARK    4  A    between atoms: C_20  and  C_21
REMARK    5  A    between atoms: C_25  and  C_26
REMARK                            x       y       z     vdW  Elec       q    Type
REMARK                         _______ _______ _______ _____ _____    ______ ____
ROOT
ATOM      1  N   UNL     1      -1.121  13.142  23.113  0.00  0.00    +0.000 N 
ATOM      2  C   UNL     1      -0.592  12.847  21.844  0.00  0.00    +0.000 A 
ATOM      3  N   UNL     1       0.641  13.267  21.554  0.00  0.00    +0.000 NA
ATOM      4  C   UNL     1       1.089  12.945  20.342  0.00  0.00    +0.000 A 
ATOM      5  N   UNL     1       2.353  13.285  19.907  0.00  0.00    +0.000 N 
ATOM      6  N   UNL     1       0.384  12.282  19.436  0.00  0.00    +0.000 NA
ATOM      7  C   UNL     1      -0.846  11.925  19.807  0.00  0.00    +0.000 A 
ATOM      8  N   UNL     1      -1.361  12.177  21.002  0.00  0.00    +0.000 NA
ATOM      9  H   UNL     1      -0.504  13.814  23.552  0.00  0.00    +0.000 HD
ATOM     10  H   UNL     1       2.429  13.044  18.928  0.00  0.00    +0.000 HD
ENDROOT
BRANCH   5  11
ATOM     11  C   UNL     1       3.086  14.442  20.396  0.00  0.00    +0.000 C 
ATOM     12  C   UNL     1       2.383  15.771  20.085  0.00  0.00    +0.000 C 
ATOM     13  C   UNL     1       2.290  16.059  18.588  0.00  0.00    +0.000 C 
ATOM     14  C   UNL     1       3.644  15.990  17.904  0.00  0.00    +0.000 C 
ATOM     15  F   UNL     1       4.359  17.094  18.241  0.00  0.00    +0.000 F 
ATOM     16  F   UNL     1       3.466  16.044  16.559  0.00  0.00    +0.000 F 
ATOM     17  C   UNL     1       4.465  14.757  18.247  0.00  0.00    +0.000 C 
ATOM     18  C   UNL     1       4.488  14.454  19.750  0.00  0.00    +0.000 C 
ENDBRANCH   5  11
BRANCH   1  21
ATOM     19  C   UNL     1      -4.368  14.848  23.706  0.00  0.00    +0.000 A 
ATOM     20  C   UNL     1      -3.049  14.660  23.306  0.00  0.00    +0.000 A 
ATOM     21  C   UNL     1      -2.489  13.382  23.386  0.00  0.00    +0.000 A 
ATOM     22  C   UNL     1      -3.288  12.346  23.873  0.00  0.00    +0.000 A 
ATOM     23  C   UNL     1      -4.605  12.619  24.219  0.00  0.00    +0.000 A 
ATOM     24  N   UNL     1      -5.158  13.846  24.163  0.00  0.00    +0.000 NA
BRANCH  19  26
ATOM     25  N   UNL     1      -5.436  17.219  23.702  0.00  0.00    +0.000 NA
ATOM     26  C   UNL     1      -4.935  16.166  23.729  0.00  0.00    +0.000 C 
ENDBRANCH  19  26
ENDBRANCH   1  21
BRANCH   7  27
ATOM     27  C   UNL     1      -1.733  11.283  18.807  0.00  0.00    +0.000 A 
ATOM     28  C   UNL     1      -1.276  10.307  17.924  0.00  0.00    +0.000 A 
ATOM     29  C   UNL     1      -2.148   9.784  16.971  0.00  0.00    +0.000 A 
ATOM     30  C   UNL     1      -3.461  10.240  16.918  0.00  0.00    +0.000 A 
ATOM     31  C   UNL     1      -3.877  11.215  17.821  0.00  0.00    +0.000 A 
ATOM     32  N   UNL     1      -3.023  11.727  18.754  0.00  0.00    +0.000 NA
BRANCH  31  33
ATOM     33  C   UNL     1      -5.306  11.744  17.775  0.00  0.00    +0.000 C 
ATOM     34  F   UNL     1      -5.585  12.622  18.785  0.00  0.00    +0.000 F 
ATOM     35  F   UNL     1      -5.593  12.414  16.622  0.00  0.00    +0.000 F 
ATOM     36  F   UNL     1      -6.243  10.759  17.884  0.00  0.00    +0.000 F 
ENDBRANCH  31  33
ENDBRANCH   7  27
TORSDOF 5
ENDMDL
MODEL 4
REMARK VINA RESULT:      -7.3      8.127     11.264
REMARK  Name = 
REMARK  5 active torsions:
REMARK  status: ('A' for Active; 'I' for Inactive)
REMARK    1  A    between atoms: C_2  and  C_3
REMARK    2  A    between atoms: C_5  and  N_6
REMARK    3  A    between atoms: N_10  and  C_11
REMARK    4  A    between atoms: C_20  and  C_21
REMARK    5  A    between atoms: C_25  and  C_26
REMARK                            x       y       z     vdW  Elec       q    Type
REMARK                         _______ _______ _______ _____ _____    ______ ____
ROOT
ATOM      1  N   UNL     1      -1.851  13.807  23.277  0.00  0.00    +0.000 N 
ATOM      2  C   UNL     1      -1.196  13.372  22.110  0.00  0.00    +0.000 A 
ATOM      3  N   UNL     1       0.072  13.740  21.916  0.00  0.00    +0.000 NA
ATOM      4  C   UNL     1       0.640  13.286  20.800  0.00  0.00    +0.000 A 
ATOM      5  N   UNL     1       1.951  13.559  20.475  0.00  0.00    +0.000 N 
ATOM      6  N   UNL     1       0.018  12.545  19.894  0.00  0.00    +0.000 NA
ATOM      7  C   UNL     1      -1.254  12.248  20.162  0.00  0.00    +0.000 A 
ATOM      8  N   UNL     1      -1.888  12.631  21.261  0.00  0.00    +0.000 NA
ATOM      9  H   UNL     1      -1.266  14.511  23.711  0.00  0.00    +0.000 HD
ATOM     10  H   UNL     1       2.126  13.216  19.539  0.00  0.00    +0.000 HD
ENDROOT
BRANCH   5  11
ATOM     11  C   UNL     1       2.659  14.749  20.921  0.00  0.00    +0.000 C 
ATOM     12  C   UNL     1       2.095  16.042  20.315  0.00  0.00    +0.000 C 
ATOM     13  C   UNL     1       2.270  16.115  18.799  0.00  0.00    +0.000 C 
ATOM     14  C   UNL     1       3.713  15.902  18.375  0.00  0.00    +0.000 C 
ATOM     15  F   UNL     1       4.425  17.018  18.677  0.00  0.00    +0.000 F 
ATOM     16  F   UNL     1       3.765  15.767  17.025  0.00  0.00    +0.000 F 
ATOM     17  C   UNL     1       4.392  14.704  19.021  0.00  0.00    +0.000 C 
ATOM     18  C   UNL     1       4.147  14.620  20.531  0.00  0.00    +0.000 C 
ENDBRANCH   5  11
BRANCH   1  21
ATOM     19  C   UNL     1      -5.530  13.436  23.625  0.00  0.00    +0.000 A 
ATOM     20  C   UNL     1      -4.179  13.111  23.669  0.00  0.00    +0.000 A 
ATOM     21  C   UNL     1      -3.233  14.096  23.372  0.00  0.00    +0.000 A 
ATOM     22  C   UNL     1      -3.696  15.370  23.038  0.00  0.00    +0.000 A 
ATOM     23  C   UNL     1      -5.063  15.613  23.051  0.00  0.00    +0.000 A 
ATOM     24  N   UNL     1      -5.991  14.673  23.320  0.00  0.00    +0.000 NA
BRANCH  19  26
ATOM     25  N   UNL     1      -7.365  11.622  23.944  0.00  0.00    +0.000 NA
ATOM     26  C   UNL     1      -6.524  12.420  23.826  0.00  0.00    +0.000 C 
ENDBRANCH  19  26
ENDBRANCH   1  21
BRANCH   7  27
ATOM     27  C   UNL     1      -2.045  11.519  19.141  0.00  0.00    +0.000 A 
ATOM     28  C   UNL     1      -1.485  10.541  18.322  0.00  0.00    +0.000 A 
ATOM     29  C   UNL     1      -2.270   9.934  17.345  0.00  0.00    +0.000 A 
ATOM     30  C   UNL     1      -3.602  10.310  17.203  0.00  0.00    +0.000 A 
ATOM     31  C   UNL     1      -4.123  11.290  18.043  0.00  0.00    +0.000 A 
ATOM     32  N   UNL     1      -3.353  11.885  19.001  0.00  0.00    +0.000 NA
BRANCH  31  33
ATOM     33  C   UNL     1      -5.575  11.732  17.899  0.00  0.00    +0.000 C 
ATOM     34  F   UNL     1      -5.952  12.647  18.843  0.00  0.00    +0.000 F 
ATOM     35  F   UNL     1      -5.840  12.321  16.698  0.00  0.00    +0.000 F 
ATOM     36  F   UNL     1      -6.461  10.702  18.020  0.00  0.00    +0.000 F 
ENDBRANCH  31  33
ENDBRANCH   7  27
TORSDOF 5
ENDMDL
MODEL 5
REMARK VINA RESULT:      -7.3      7.115     10.686
REMARK  Name = 
REMARK  5 active torsions:
REMARK  status: ('A' for Active; 'I' for Inactive)
REMARK    1  A    between atoms: C_2  and  C_3
REMARK    2  A    between atoms: C_5  and  N_6
REMARK    3  A    between atoms: N_10  and  C_11
REMARK    4  A    between atoms: C_20  and  C_21
REMARK    5  A    between atoms: C_25  and  C_26
REMARK                            x       y       z     vdW  Elec       q    Type
REMARK                         _______ _______ _______ _____ _____    ______ ____
ROOT
ATOM      1  N   UNL     1       4.365  15.201  18.459  0.00  0.00    +0.000 N 
ATOM      2  C   UNL     1       5.452  14.982  19.325  0.00  0.00    +0.000 A 
ATOM      3  N   UNL     1       6.669  14.838  18.796  0.00  0.00    +0.000 NA
ATOM      4  C   UNL     1       7.657  14.646  19.669  0.00  0.00    +0.000 A 
ATOM      5  N   UNL     1       8.971  14.507  19.276  0.00  0.00    +0.000 N 
ATOM      6  N   UNL     1       7.490  14.561  20.981  0.00  0.00    +0.000 NA
ATOM      7  C   UNL     1       6.236  14.692  21.414  0.00  0.00    +0.000 A 
ATOM      8  N   UNL     1       5.197  14.916  20.621  0.00  0.00    +0.000 NA
ATOM      9  H   UNL     1       4.687  15.029  17.515  0.00  0.00    +0.000 HD
ATOM     10  H   UNL     1       9.521  14.256  20.088  0.00  0.00    +0.000 HD
ENDROOT
BRANCH   5  11
ATOM     11  C   UNL     1       9.372  13.988  17.978  0.00  0.00    +0.000 C 
ATOM     12  C   UNL     1       9.130  12.479  17.837  0.00  0.00    +0.000 C 
ATOM     13  C   UNL     1       9.984  11.647  18.792  0.00  0.00    +0.000 C 
ATOM     14  C   UNL     1      11.463  11.972  18.673  0.00  0.00    +0.000 C 
ATOM     15  F   UNL     1      11.935  11.434  17.519  0.00  0.00    +0.000 F 
ATOM     16  F   UNL     1      12.135  11.363  19.683  0.00  0.00    +0.000 F 
ATOM     17  C   UNL     1      11.788  13.457  18.685  0.00  0.00    +0.000 C 
ATOM     18  C   UNL     1      10.874  14.277  17.767  0.00  0.00    +0.000 C 
ENDBRANCH   5  11
BRANCH   1  21
ATOM     19  C   UNL     1       1.381  13.020  18.827  0.00  0.00    +0.000 A 
ATOM     20  C   UNL     1       2.717  13.392  18.722  0.00  0.00    +0.000 A 
ATOM     21  C   UNL     1       3.043  14.751  18.687  0.00  0.00    +0.000 A 
ATOM     22  C   UNL     1       2.000  15.677  18.755  0.00  0.00    +0.000 A 
ATOM     23  C   UNL     1       0.698  15.214  18.890  0.00  0.00    +0.000 A 
ATOM     24  N   UNL     1       0.363  13.909  18.911  0.00  0.00    +0.000 NA
BRANCH  19  26
ATOM     25  N   UNL     1       0.683  10.520  18.656  0.00  0.00    +0.000 NA
ATOM     26  C   UNL     1       1.011  11.634  18.763  0.00  0.00    +0.000 C 
ENDBRANCH  19  26
ENDBRANCH   1  21
BRANCH   7  27
ATOM     27  C   UNL     1       5.957  14.494  22.857  0.00  0.00    +0.000 A 
ATOM     28  C   UNL     1       5.474  15.518  23.670  0.00  0.00    +0.000 A 
ATOM     29  C   UNL     1       5.286  15.281  25.030  0.00  0.00    +0.000 A 
ATOM     30  C   UNL     1       5.580  14.028  25.556  0.00  0.00    +0.000 A 
ATOM     31  C   UNL     1       6.058  13.032  24.708  0.00  0.00    +0.000 A 
ATOM     32  N   UNL     1       6.242  13.264  23.376  0.00  0.00    +0.000 NA
BRANCH  31  33
ATOM     33  C   UNL     1       6.403  11.654  25.261  0.00  0.00    +0.000 C 
ATOM     34  F   UNL     1       7.467  11.073  24.627  0.00  0.00    +0.000 F 
ATOM     35  F   UNL     1       6.736  11.674  26.583  0.00  0.00    +0.000 F 
ATOM     36  F   UNL     1       5.380  10.760  25.141  0.00  0.00    +0.000 F 
ENDBRANCH  31  33
ENDBRANCH   7  27
TORSDOF 5
ENDMDL
MODEL 6
REMARK VINA RESULT:      -7.2      8.240     11.313
REMARK  Name = 
REMARK  5 active torsions:
REMARK  status: ('A' for Active; 'I' for Inactive)
REMARK    1  A    between atoms: C_2  and  C_3
REMARK    2  A    between atoms: C_5  and  N_6
REMARK    3  A    between atoms: N_10  and  C_11
REMARK    4  A    between atoms: C_20  and  C_21
REMARK    5  A    between atoms: C_25  and  C_26
REMARK                            x       y       z     vdW  Elec       q    Type
REMARK                         _______ _______ _______ _____ _____    ______ ____
ROOT
ATOM      1  N   UNL     1      -2.372  14.067  23.393  0.00  0.00    +0.000 N 
ATOM      2  C   UNL     1      -1.885  13.728  22.118  0.00  0.00    +0.000 A 
ATOM      3  N   UNL     1      -0.635  14.072  21.801  0.00  0.00    +0.000 NA
ATOM      4  C   UNL     1      -0.229  13.713  20.585  0.00  0.00    +0.000 A 
ATOM      5  N   UNL     1       1.044  13.974  20.124  0.00  0.00    +0.000 N 
ATOM      6  N   UNL     1      -0.989  13.085  19.699  0.00  0.00    +0.000 NA
ATOM      7  C   UNL     1      -2.230  12.804  20.096  0.00  0.00    +0.000 A 
ATOM      8  N   UNL     1      -2.708  13.097  21.297  0.00  0.00    +0.000 NA
ATOM      9  H   UNL     1      -1.709  14.705  23.814  0.00  0.00    +0.000 HD
ATOM     10  H   UNL     1       1.087  13.719  19.146  0.00  0.00    +0.000 HD
ENDROOT
BRANCH   5  11
ATOM     11  C   UNL     1       1.853  15.091  20.588  0.00  0.00    +0.000 C 
ATOM     12  C   UNL     1       1.557  16.396  19.835  0.00  0.00    +0.000 C 
ATOM     13  C   UNL     1       1.925  16.326  18.354  0.00  0.00    +0.000 C 
ATOM     14  C   UNL     1       3.365  15.891  18.139  0.00  0.00    +0.000 C 
ATOM     15  F   UNL     1       4.185  16.923  18.465  0.00  0.00    +0.000 F 
ATOM     16  F   UNL     1       3.563  15.645  16.818  0.00  0.00    +0.000 F 
ATOM     17  C   UNL     1       3.783  14.667  18.940  0.00  0.00    +0.000 C 
ATOM     18  C   UNL     1       3.344  14.735  20.407  0.00  0.00    +0.000 C 
ENDBRANCH   5  11
BRANCH   1  21
ATOM     19  C   UNL     1      -6.041  13.815  23.919  0.00  0.00    +0.000 A 
ATOM     20  C   UNL     1      -4.720  13.416  23.748  0.00  0.00    +0.000 A 
ATOM     21  C   UNL     1      -3.719  14.389  23.688  0.00  0.00    +0.000 A 
ATOM     22  C   UNL     1      -4.099  15.728  23.801  0.00  0.00    +0.000 A 
ATOM     23  C   UNL     1      -5.439  16.032  24.003  0.00  0.00    +0.000 A 
ATOM     24  N   UNL     1      -6.419  15.109  24.048  0.00  0.00    +0.000 NA
BRANCH  19  26
ATOM     25  N   UNL     1      -7.916  12.013  23.874  0.00  0.00    +0.000 NA
ATOM     26  C   UNL     1      -7.098  12.844  23.883  0.00  0.00    +0.000 C 
ENDBRANCH  19  26
ENDBRANCH   1  21
BRANCH   7  27
ATOM     27  C   UNL     1      -3.172  12.205  19.119  0.00  0.00    +0.000 A 
ATOM     28  C   UNL     1      -4.554  12.283  19.273  0.00  0.00    +0.000 A 
ATOM     29  C   UNL     1      -5.383  11.650  18.349  0.00  0.00    +0.000 A 
ATOM     30  C   UNL     1      -4.819  10.954  17.285  0.00  0.00    +0.000 A 
ATOM     31  C   UNL     1      -3.433  10.903  17.167  0.00  0.00    +0.000 A 
ATOM     32  N   UNL     1      -2.621  11.523  18.073  0.00  0.00    +0.000 NA
BRANCH  31  33
ATOM     33  C   UNL     1      -2.788  10.135  16.019  0.00  0.00    +0.000 C 
ATOM     34  F   UNL     1      -1.554   9.635  16.335  0.00  0.00    +0.000 F 
ATOM     35  F   UNL     1      -3.521   9.058  15.615  0.00  0.00    +0.000 F 
ATOM     36  F   UNL     1      -2.593  10.900  14.907  0.00  0.00    +0.000 F 
ENDBRANCH  31  33
ENDBRANCH   7  27
TORSDOF 5
ENDMDL
MODEL 7
REMARK VINA RESULT:      -7.1      7.993     11.179
REMARK  Name = 
REMARK  5 active torsions:
REMARK  status: ('A' for Active; 'I' for Inactive)
REMARK    1  A    between atoms: C_2  and  C_3
REMARK    2  A    between atoms: C_5  and  N_6
REMARK    3  A    between atoms: N_10  and  C_11
REMARK    4  A    between atoms: C_20  and  C_21
REMARK    5  A    between atoms: C_25  and  C_26
REMARK                            x       y       z     vdW  Elec       q    Type
REMARK                         _______ _______ _______ _____ _____    ______ ____
ROOT
ATOM      1  N   UNL     1       4.461  15.072  18.021  0.00  0.00    +0.000 N 
ATOM      2  C   UNL     1       5.505  14.927  18.952  0.00  0.00    +0.000 A 
ATOM      3  N   UNL     1       6.739  14.697  18.496  0.00  0.00    +0.000 NA
ATOM      4  C   UNL     1       7.684  14.582  19.427  0.00  0.00    +0.000 A 
ATOM      5  N   UNL     1       9.009  14.370  19.110  0.00  0.00    +0.000 N 
ATOM      6  N   UNL     1       7.462  14.650  20.731  0.00  0.00    +0.000 NA
ATOM      7  C   UNL     1       6.195  14.859  21.092  0.00  0.00    +0.000 A 
ATOM      8  N   UNL     1       5.196  15.014  20.235  0.00  0.00    +0.000 NA
ATOM      9  H   UNL     1       4.816  14.786  17.117  0.00  0.00    +0.000 HD
ATOM     10  H   UNL     1       9.519  14.200  19.968  0.00  0.00    +0.000 HD
ENDROOT
BRANCH   5  11
ATOM     11  C   UNL     1       9.448  13.698  17.897  0.00  0.00    +0.000 C 
ATOM     12  C   UNL     1       9.285  12.173  17.966  0.00  0.00    +0.000 C 
ATOM     13  C   UNL     1      10.172  11.527  19.029  0.00  0.00    +0.000 C 
ATOM     14  C   UNL     1      11.633  11.909  18.869  0.00  0.00    +0.000 C 
ATOM     15  F   UNL     1      12.143  11.243  17.801  0.00  0.00    +0.000 F 
ATOM     16  F   UNL     1      12.327  11.481  19.955  0.00  0.00    +0.000 F 
ATOM     17  C   UNL     1      11.881  13.397  18.676  0.00  0.00    +0.000 C 
ATOM     18  C   UNL     1      10.934  14.033  17.651  0.00  0.00    +0.000 C 
ENDBRANCH   5  11
BRANCH   1  21
ATOM     19  C   UNL     1       0.840  15.147  18.847  0.00  0.00    +0.000 A 
ATOM     20  C   UNL     1       2.111  15.607  18.520  0.00  0.00    +0.000 A 
ATOM     21  C   UNL     1       3.118  14.681  18.240  0.00  0.00    +0.000 A 
ATOM     22  C   UNL     1       2.797  13.323  18.307  0.00  0.00    +0.000 A 
ATOM     23  C   UNL     1       1.493  12.956  18.610  0.00  0.00    +0.000 A 
ATOM     24  N   UNL     1       0.512  13.834  18.898  0.00  0.00    +0.000 NA
BRANCH  19  26
ATOM     25  N   UNL     1      -0.985  16.837  19.606  0.00  0.00    +0.000 NA
ATOM     26  C   UNL     1      -0.185  16.073  19.237  0.00  0.00    +0.000 C 
ENDBRANCH  19  26
ENDBRANCH   1  21
BRANCH   7  27
ATOM     27  C   UNL     1       5.852  14.833  22.535  0.00  0.00    +0.000 A 
ATOM     28  C   UNL     1       5.381  15.957  23.209  0.00  0.00    +0.000 A 
ATOM     29  C   UNL     1       5.131  15.880  24.578  0.00  0.00    +0.000 A 
ATOM     30  C   UNL     1       5.352  14.682  25.250  0.00  0.00    +0.000 A 
ATOM     31  C   UNL     1       5.823  13.582  24.537  0.00  0.00    +0.000 A 
ATOM     32  N   UNL     1       6.067  13.658  23.197  0.00  0.00    +0.000 NA
BRANCH  31  33
ATOM     33  C   UNL     1       6.089  12.262  25.252  0.00  0.00    +0.000 C 
ATOM     34  F   UNL     1       6.310  11.222  24.391  0.00  0.00    +0.000 F 
ATOM     35  F   UNL     1       7.186  12.301  26.061  0.00  0.00    +0.000 F 
ATOM     36  F   UNL     1       5.050  11.863  26.040  0.00  0.00    +0.000 F 
ENDBRANCH  31  33
ENDBRANCH   7  27
TORSDOF 5
ENDMDL
MODEL 8
REMARK VINA RESULT:      -7.1      5.984      9.107
REMARK  Name = 
REMARK  5 active torsions:
REMARK  status: ('A' for Active; 'I' for Inactive)
REMARK    1  A    between atoms: C_2  and  C_3
REMARK    2  A    between atoms: C_5  and  N_6
REMARK    3  A    between atoms: N_10  and  C_11
REMARK    4  A    between atoms: C_20  and  C_21
REMARK    5  A    between atoms: C_25  and  C_26
REMARK                            x       y       z     vdW  Elec       q    Type
REMARK                         _______ _______ _______ _____ _____    ______ ____
ROOT
ATOM      1  N   UNL     1       0.541   9.641  20.935  0.00  0.00    +0.000 N 
ATOM      2  C   UNL     1       0.241  11.014  20.875  0.00  0.00    +0.000 A 
ATOM      3  N   UNL     1      -0.872  11.450  21.471  0.00  0.00    +0.000 NA
ATOM      4  C   UNL     1      -1.093  12.760  21.390  0.00  0.00    +0.000 A 
ATOM      5  N   UNL     1      -2.185  13.362  21.978  0.00  0.00    +0.000 N 
ATOM      6  N   UNL     1      -0.310  13.612  20.743  0.00  0.00    +0.000 NA
ATOM      7  C   UNL     1       0.764  13.081  20.159  0.00  0.00    +0.000 A 
ATOM      8  N   UNL     1       1.078  11.795  20.214  0.00  0.00    +0.000 NA
ATOM      9  H   UNL     1      -0.278   9.165  21.292  0.00  0.00    +0.000 HD
ATOM     10  H   UNL     1      -2.209  14.331  21.688  0.00  0.00    +0.000 HD
ENDROOT
BRANCH   5  11
ATOM     11  C   UNL     1      -3.446  12.678  22.220  0.00  0.00    +0.000 C 
ATOM     12  C   UNL     1      -4.652  13.423  21.632  0.00  0.00    +0.000 C 
ATOM     13  C   UNL     1      -4.892  14.781  22.290  0.00  0.00    +0.000 C 
ATOM     14  C   UNL     1      -5.004  14.676  23.801  0.00  0.00    +0.000 C 
ATOM     15  F   UNL     1      -6.207  14.127  24.112  0.00  0.00    +0.000 F 
ATOM     16  F   UNL     1      -5.003  15.925  24.335  0.00  0.00    +0.000 F 
ATOM     17  C   UNL     1      -3.910  13.853  24.462  0.00  0.00    +0.000 C 
ATOM     18  C   UNL     1      -3.645  12.525  23.743  0.00  0.00    +0.000 C 
ENDBRANCH   5  11
BRANCH   1  21
ATOM     19  C   UNL     1       2.592   7.094  19.173  0.00  0.00    +0.000 A 
ATOM     20  C   UNL     1       1.848   7.696  20.181  0.00  0.00    +0.000 A 
ATOM     21  C   UNL     1       1.211   8.912  19.923  0.00  0.00    +0.000 A 
ATOM     22  C   UNL     1       1.357   9.471  18.651  0.00  0.00    +0.000 A 
ATOM     23  C   UNL     1       2.092   8.783  17.695  0.00  0.00    +0.000 A 
ATOM     24  N   UNL     1       2.726   7.618  17.930  0.00  0.00    +0.000 NA
BRANCH  19  26
ATOM     25  N   UNL     1       3.890   4.896  19.668  0.00  0.00    +0.000 NA
ATOM     26  C   UNL     1       3.339   5.898  19.442  0.00  0.00    +0.000 C 
ENDBRANCH  19  26
ENDBRANCH   1  21
BRANCH   7  27
ATOM     27  C   UNL     1       1.624  13.954  19.322  0.00  0.00    +0.000 A 
ATOM     28  C   UNL     1       2.897  13.568  18.907  0.00  0.00    +0.000 A 
ATOM     29  C   UNL     1       3.675  14.458  18.169  0.00  0.00    +0.000 A 
ATOM     30  C   UNL     1       3.170  15.716  17.856  0.00  0.00    +0.000 A 
ATOM     31  C   UNL     1       1.892  16.060  18.290  0.00  0.00    +0.000 A 
ATOM     32  N   UNL     1       1.130  15.188  19.012  0.00  0.00    +0.000 NA
BRANCH  31  33
ATOM     33  C   UNL     1       1.320  17.437  17.974  0.00  0.00    +0.000 C 
ATOM     34  F   UNL     1      -0.032  17.421  17.767  0.00  0.00    +0.000 F 
ATOM     35  F   UNL     1       1.522  18.344  18.973  0.00  0.00    +0.000 F 
ATOM     36  F   UNL     1       1.851  17.991  16.847  0.00  0.00    +0.000 F 
ENDBRANCH  31  33
ENDBRANCH   7  27
TORSDOF 5
ENDMDL
MODEL 9
REMARK VINA RESULT:      -7.0      8.410     11.465
REMARK  Name = 
REMARK  5 active torsions:
REMARK  status: ('A' for Active; 'I' for Inactive)
REMARK    1  A    between atoms: C_2  and  C_3
REMARK    2  A    between atoms: C_5  and  N_6
REMARK    3  A    between atoms: N_10  and  C_11
REMARK    4  A    between atoms: C_20  and  C_21
REMARK    5  A    between atoms: C_25  and  C_26
REMARK                            x       y       z     vdW  Elec       q    Type
REMARK                         _______ _______ _______ _____ _____    ______ ____
ROOT
ATOM      1  N   UNL     1      -1.393  13.510  22.557  0.00  0.00    +0.000 N 
ATOM      2  C   UNL     1      -1.081  13.363  21.193  0.00  0.00    +0.000 A 
ATOM      3  N   UNL     1      -0.023  14.015  20.707  0.00  0.00    +0.000 NA
ATOM      4  C   UNL     1       0.227  13.825  19.413  0.00  0.00    +0.000 A 
ATOM      5  N   UNL     1       1.300  14.409  18.775  0.00  0.00    +0.000 N 
ATOM      6  N   UNL     1      -0.515  13.075  18.611  0.00  0.00    +0.000 NA
ATOM      7  C   UNL     1      -1.565  12.482  19.180  0.00  0.00    +0.000 A 
ATOM      8  N   UNL     1      -1.871  12.592  20.465  0.00  0.00    +0.000 NA
ATOM      9  H   UNL     1      -0.829  14.269  22.919  0.00  0.00    +0.000 HD
ATOM     10  H   UNL     1       1.223  14.221  17.784  0.00  0.00    +0.000 HD
ENDROOT
BRANCH   5  11
ATOM     11  C   UNL     1       1.900  15.665  19.198  0.00  0.00    +0.000 C 
ATOM     12  C   UNL     1       2.367  16.531  18.020  0.00  0.00    +0.000 C 
ATOM     13  C   UNL     1       3.498  15.889  17.220  0.00  0.00    +0.000 C 
ATOM     14  C   UNL     1       4.672  15.492  18.099  0.00  0.00    +0.000 C 
ATOM     15  F   UNL     1       5.343  16.616  18.462  0.00  0.00    +0.000 F 
ATOM     16  F   UNL     1       5.540  14.744  17.371  0.00  0.00    +0.000 F 
ATOM     17  C   UNL     1       4.291  14.727  19.357  0.00  0.00    +0.000 C 
ATOM     18  C   UNL     1       3.111  15.358  20.105  0.00  0.00    +0.000 C 
ENDBRANCH   5  11
BRANCH   1  21
ATOM     19  C   UNL     1      -4.758  14.544  23.743  0.00  0.00    +0.000 A 
ATOM     20  C   UNL     1      -3.534  14.604  23.086  0.00  0.00    +0.000 A 
ATOM     21  C   UNL     1      -2.701  13.481  23.098  0.00  0.00    +0.000 A 
ATOM     22  C   UNL     1      -3.142  12.345  23.778  0.00  0.00    +0.000 A 
ATOM     23  C   UNL     1      -4.394  12.365  24.379  0.00  0.00    +0.000 A 
ATOM     24  N   UNL     1      -5.204  13.442  24.392  0.00  0.00    +0.000 NA
BRANCH  19  26
ATOM     25  N   UNL     1      -6.295  16.632  23.949  0.00  0.00    +0.000 NA
ATOM     26  C   UNL     1      -5.587  15.713  23.833  0.00  0.00    +0.000 C 
ENDBRANCH  19  26
ENDBRANCH   1  21
BRANCH   7  27
ATOM     27  C   UNL     1      -2.506  11.721  18.321  0.00  0.00    +0.000 A 
ATOM     28  C   UNL     1      -2.070  10.924  17.265  0.00  0.00    +0.000 A 
ATOM     29  C   UNL     1      -3.009  10.280  16.462  0.00  0.00    +0.000 A 
ATOM     30  C   UNL     1      -4.365  10.439  16.728  0.00  0.00    +0.000 A 
ATOM     31  C   UNL     1      -4.757  11.244  17.795  0.00  0.00    +0.000 A 
ATOM     32  N   UNL     1      -3.837  11.874  18.581  0.00  0.00    +0.000 NA
BRANCH  31  33
ATOM     33  C   UNL     1      -6.236  11.448  18.099  0.00  0.00    +0.000 C 
ATOM     34  F   UNL     1      -6.455  12.138  19.260  0.00  0.00    +0.000 F 
ATOM     35  F   UNL     1      -6.891  12.152  17.131  0.00  0.00    +0.000 F 
ATOM     36  F   UNL     1      -6.919  10.276  18.242  0.00  0.00    +0.000 F 
ENDBRANCH  31  33
ENDBRANCH   7  27
TORSDOF 5
ENDMDL
