MODEL 1
REMARK VINA RESULT:      -7.8      0.000      0.000
REMARK  Name = 
REMARK  5 active torsions:
REMARK  status: ('A' for Active; 'I' for Inactive)
REMARK    1  A    between atoms: O_1  and  C_2
REMARK    2  A    between atoms: C_2  and  C_3
REMARK    3  A    between atoms: C_2  and  C_10
REMARK    4  A    between atoms: C_3  and  C_4
REMARK    5  A    between atoms: C_4  and  N_5
REMARK                            x       y       z     vdW  Elec       q    Type
REMARK                         _______ _______ _______ _____ _____    ______ ____
ROOT
ATOM      1  C   UNL     1       2.459   7.255  18.564  0.00  0.00    +0.000 A 
ATOM      2  C   UNL     1       2.064   8.372  17.790  0.00  0.00    +0.000 A 
ATOM      3  C   UNL     1       1.332   9.429  18.344  0.00  0.00    +0.000 A 
ATOM      4  C   UNL     1       1.008   9.373  19.688  0.00  0.00    +0.000 A 
ATOM      5  C   UNL     1       1.431   8.283  20.476  0.00  0.00    +0.000 A 
ATOM      6  C   UNL     1       2.144   7.226  19.934  0.00  0.00    +0.000 A 
ATOM      7  C   UNL     1       0.964   8.457  21.908  0.00  0.00    +0.000 C 
ATOM      8  C   UNL     1       0.177   9.751  21.827  0.00  0.00    +0.000 A 
ATOM      9  C   UNL     1      -0.530  10.384  22.834  0.00  0.00    +0.000 A 
ATOM     10  C   UNL     1      -1.207  11.562  22.512  0.00  0.00    +0.000 A 
ATOM     11  C   UNL     1      -1.165  12.085  21.208  0.00  0.00    +0.000 A 
ATOM     12  C   UNL     1      -0.443  11.440  20.198  0.00  0.00    +0.000 A 
ATOM     13  C   UNL     1       0.226  10.269  20.514  0.00  0.00    +0.000 A 
ENDROOT
BRANCH   1  14
ATOM     14  C   UNL     1       3.199   6.088  17.941  0.00  0.00    +0.000 C 
BRANCH  14  15
ATOM     15  O   UNL     1       4.378   5.829  18.707  0.00  0.00    +0.000 OA
ATOM     16  H   UNL     1       4.767   5.002  18.380  0.00  0.00    +0.000 HD
ENDBRANCH  14  15
BRANCH  14  17
ATOM     17  C   UNL     1       2.378   4.798  17.868  0.00  0.00    +0.000 C 
BRANCH  17  18
ATOM     18  C   UNL     1       3.103   3.588  18.452  0.00  0.00    +0.000 C 
BRANCH  18  19
ATOM     19  N   UNL     1       2.599   3.232  19.764  0.00  0.00    +0.000 N 
ATOM     20  C   UNL     1       1.312   3.361  20.202  0.00  0.00    +0.000 A 
ATOM     21  C   UNL     1       1.338   2.912  21.503  0.00  0.00    +0.000 A 
ATOM     22  N   UNL     1       2.604   2.525  21.860  0.00  0.00    +0.000 NA
ATOM     23  C   UNL     1       3.343   2.734  20.795  0.00  0.00    +0.000 A 
ENDBRANCH  18  19
ENDBRANCH  17  18
ENDBRANCH  14  17
ENDBRANCH   1  14
TORSDOF 5
ENDMDL
MODEL 2
REMARK VINA RESULT:      -7.6      1.254      1.946
REMARK  Name = 
REMARK  5 active torsions:
REMARK  status: ('A' for Active; 'I' for Inactive)
REMARK    1  A    between atoms: O_1  and  C_2
REMARK    2  A    between atoms: C_2  and  C_3
REMARK    3  A    between atoms: C_2  and  C_10
REMARK    4  A    between atoms: C_3  and  C_4
REMARK    5  A    between atoms: C_4  and  N_5
REMARK                            x       y       z     vdW  Elec       q    Type
REMARK                         _______ _______ _______ _____ _____    ______ ____
ROOT
ATOM      1  C   UNL     1       3.922   5.722  18.354  0.00  0.00    +0.000 A 
ATOM      2  C   UNL     1       3.880   6.731  17.362  0.00  0.00    +0.000 A 
ATOM      3  C   UNL     1       3.089   7.877  17.512  0.00  0.00    +0.000 A 
ATOM      4  C   UNL     1       2.349   8.020  18.672  0.00  0.00    +0.000 A 
ATOM      5  C   UNL     1       2.415   7.039  19.683  0.00  0.00    +0.000 A 
ATOM      6  C   UNL     1       3.184   5.895  19.537  0.00  0.00    +0.000 A 
ATOM      7  C   UNL     1       1.528   7.426  20.849  0.00  0.00    +0.000 C 
ATOM      8  C   UNL     1       0.907   8.719  20.358  0.00  0.00    +0.000 A 
ATOM      9  C   UNL     1      -0.036   9.508  20.992  0.00  0.00    +0.000 A 
ATOM     10  C   UNL     1      -0.485  10.649  20.324  0.00  0.00    +0.000 A 
ATOM     11  C   UNL     1       0.012  10.982  19.052  0.00  0.00    +0.000 A 
ATOM     12  C   UNL     1       0.969  10.181  18.421  0.00  0.00    +0.000 A 
ATOM     13  C   UNL     1       1.413   9.047  19.080  0.00  0.00    +0.000 A 
ENDROOT
BRANCH   1  14
ATOM     14  C   UNL     1       4.734   4.458  18.155  0.00  0.00    +0.000 C 
BRANCH  14  15
ATOM     15  O   UNL     1       5.511   4.221  19.331  0.00  0.00    +0.000 OA
ATOM     16  H   UNL     1       6.113   4.975  19.444  0.00  0.00    +0.000 HD
ENDBRANCH  14  15
BRANCH  14  17
ATOM     17  C   UNL     1       3.888   3.212  17.877  0.00  0.00    +0.000 C 
BRANCH  17  18
ATOM     18  C   UNL     1       3.899   2.207  19.026  0.00  0.00    +0.000 C 
BRANCH  18  19
ATOM     19  N   UNL     1       2.855   2.477  19.996  0.00  0.00    +0.000 N 
ATOM     20  C   UNL     1       1.532   2.686  19.729  0.00  0.00    +0.000 A 
ATOM     21  C   UNL     1       0.958   2.916  20.958  0.00  0.00    +0.000 A 
ATOM     22  N   UNL     1       1.899   2.858  21.954  0.00  0.00    +0.000 NA
ATOM     23  C   UNL     1       3.033   2.597  21.344  0.00  0.00    +0.000 A 
ENDBRANCH  18  19
ENDBRANCH  17  18
ENDBRANCH  14  17
ENDBRANCH   1  14
TORSDOF 5
ENDMDL
MODEL 3
REMARK VINA RESULT:      -7.5      2.308      3.162
REMARK  Name = 
REMARK  5 active torsions:
REMARK  status: ('A' for Active; 'I' for Inactive)
REMARK    1  A    between atoms: O_1  and  C_2
REMARK    2  A    between atoms: C_2  and  C_3
REMARK    3  A    between atoms: C_2  and  C_10
REMARK    4  A    between atoms: C_3  and  C_4
REMARK    5  A    between atoms: C_4  and  N_5
REMARK                            x       y       z     vdW  Elec       q    Type
REMARK                         _______ _______ _______ _____ _____    ______ ____
ROOT
ATOM      1  C   UNL     1       2.514   7.521  18.568  0.00  0.00    +0.000 A 
ATOM      2  C   UNL     1       2.037   8.644  17.851  0.00  0.00    +0.000 A 
ATOM      3  C   UNL     1       1.237   9.619  18.459  0.00  0.00    +0.000 A 
ATOM      4  C   UNL     1       0.926   9.475  19.799  0.00  0.00    +0.000 A 
ATOM      5  C   UNL     1       1.427   8.379  20.532  0.00  0.00    +0.000 A 
ATOM      6  C   UNL     1       2.209   7.403  19.936  0.00  0.00    +0.000 A 
ATOM      7  C   UNL     1       0.957   8.450  21.971  0.00  0.00    +0.000 C 
ATOM      8  C   UNL     1       0.082   9.688  21.956  0.00  0.00    +0.000 A 
ATOM      9  C   UNL     1      -0.661  10.220  22.994  0.00  0.00    +0.000 A 
ATOM     10  C   UNL     1      -1.420  11.362  22.733  0.00  0.00    +0.000 A 
ATOM     11  C   UNL     1      -1.422  11.950  21.456  0.00  0.00    +0.000 A 
ATOM     12  C   UNL     1      -0.663  11.408  20.414  0.00  0.00    +0.000 A 
ATOM     13  C   UNL     1       0.088  10.273  20.670  0.00  0.00    +0.000 A 
ENDROOT
BRANCH   1  14
ATOM     14  C   UNL     1       3.329   6.441  17.887  0.00  0.00    +0.000 C 
BRANCH  14  15
ATOM     15  O   UNL     1       4.163   7.049  16.897  0.00  0.00    +0.000 OA
ATOM     16  H   UNL     1       4.407   7.932  17.219  0.00  0.00    +0.000 HD
ENDBRANCH  14  15
BRANCH  14  17
ATOM     17  C   UNL     1       4.219   5.638  18.840  0.00  0.00    +0.000 C 
BRANCH  17  18
ATOM     18  C   UNL     1       4.590   4.259  18.301  0.00  0.00    +0.000 C 
BRANCH  18  19
ATOM     19  N   UNL     1       5.679   4.322  17.345  0.00  0.00    +0.000 N 
ATOM     20  C   UNL     1       5.604   4.051  16.009  0.00  0.00    +0.000 A 
ATOM     21  C   UNL     1       6.886   4.230  15.542  0.00  0.00    +0.000 A 
ATOM     22  N   UNL     1       7.729   4.595  16.561  0.00  0.00    +0.000 NA
ATOM     23  C   UNL     1       6.975   4.637  17.636  0.00  0.00    +0.000 A 
ENDBRANCH  18  19
ENDBRANCH  17  18
ENDBRANCH  14  17
ENDBRANCH   1  14
TORSDOF 5
ENDMDL
MODEL 4
REMARK VINA RESULT:      -7.5      2.825      4.430
REMARK  Name = 
REMARK  5 active torsions:
REMARK  status: ('A' for Active; 'I' for Inactive)
REMARK    1  A    between atoms: O_1  and  C_2
REMARK    2  A    between atoms: C_2  and  C_3
REMARK    3  A    between atoms: C_2  and  C_10
REMARK    4  A    between atoms: C_3  and  C_4
REMARK    5  A    between atoms: C_4  and  N_5
REMARK                            x       y       z     vdW  Elec       q    Type
REMARK                         _______ _______ _______ _____ _____    ______ ____
ROOT
ATOM      1  C   UNL     1       3.571   4.784  18.460  0.00  0.00    +0.000 A 
ATOM      2  C   UNL     1       3.078   4.622  19.777  0.00  0.00    +0.000 A 
ATOM      3  C   UNL     1       2.376   5.643  20.430  0.00  0.00    +0.000 A 
ATOM      4  C   UNL     1       2.154   6.828  19.751  0.00  0.00    +0.000 A 
ATOM      5  C   UNL     1       2.608   6.984  18.425  0.00  0.00    +0.000 A 
ATOM      6  C   UNL     1       3.314   5.985  17.776  0.00  0.00    +0.000 A 
ATOM      7  C   UNL     1       2.235   8.357  17.901  0.00  0.00    +0.000 C 
ATOM      8  C   UNL     1       1.562   8.983  19.106  0.00  0.00    +0.000 A 
ATOM      9  C   UNL     1       1.058  10.265  19.232  0.00  0.00    +0.000 A 
ATOM     10  C   UNL     1       0.505  10.629  20.461  0.00  0.00    +0.000 A 
ATOM     11  C   UNL     1       0.462   9.718  21.531  0.00  0.00    +0.000 A 
ATOM     12  C   UNL     1       0.971   8.423  21.393  0.00  0.00    +0.000 A 
ATOM     13  C   UNL     1       1.523   8.060  20.176  0.00  0.00    +0.000 A 
ENDROOT
BRANCH   1  14
ATOM     14  C   UNL     1       4.381   3.696  17.784  0.00  0.00    +0.000 C 
BRANCH  14  15
ATOM     15  O   UNL     1       3.547   2.550  17.598  0.00  0.00    +0.000 OA
ATOM     16  H   UNL     1       2.768   2.656  18.167  0.00  0.00    +0.000 HD
ENDBRANCH  14  15
BRANCH  14  17
ATOM     17  C   UNL     1       4.956   4.101  16.424  0.00  0.00    +0.000 C 
BRANCH  17  18
ATOM     18  C   UNL     1       6.480   4.169  16.409  0.00  0.00    +0.000 C 
BRANCH  18  19
ATOM     19  N   UNL     1       6.983   5.301  17.162  0.00  0.00    +0.000 N 
ATOM     20  C   UNL     1       6.902   6.616  16.804  0.00  0.00    +0.000 A 
ATOM     21  C   UNL     1       7.530   7.297  17.821  0.00  0.00    +0.000 A 
ATOM     22  N   UNL     1       7.992   6.428  18.776  0.00  0.00    +0.000 NA
ATOM     23  C   UNL     1       7.653   5.233  18.350  0.00  0.00    +0.000 A 
ENDBRANCH  18  19
ENDBRANCH  17  18
ENDBRANCH  14  17
ENDBRANCH   1  14
TORSDOF 5
ENDMDL
MODEL 5
REMARK VINA RESULT:      -7.5      0.992      1.216
REMARK  Name = 
REMARK  5 active torsions:
REMARK  status: ('A' for Active; 'I' for Inactive)
REMARK    1  A    between atoms: O_1  and  C_2
REMARK    2  A    between atoms: C_2  and  C_3
REMARK    3  A    between atoms: C_2  and  C_10
REMARK    4  A    between atoms: C_3  and  C_4
REMARK    5  A    between atoms: C_4  and  N_5
REMARK                            x       y       z     vdW  Elec       q    Type
REMARK                         _______ _______ _______ _____ _____    ______ ____
ROOT
ATOM      1  C   UNL     1       2.522   7.410  18.582  0.00  0.00    +0.000 A 
ATOM      2  C   UNL     1       2.056   8.508  17.820  0.00  0.00    +0.000 A 
ATOM      3  C   UNL     1       1.263   9.513  18.387  0.00  0.00    +0.000 A 
ATOM      4  C   UNL     1       0.948   9.425  19.731  0.00  0.00    +0.000 A 
ATOM      5  C   UNL     1       1.440   8.354  20.507  0.00  0.00    +0.000 A 
ATOM      6  C   UNL     1       2.214   7.349  19.952  0.00  0.00    +0.000 A 
ATOM      7  C   UNL     1       0.967   8.487  21.942  0.00  0.00    +0.000 C 
ATOM      8  C   UNL     1       0.103   9.730  21.876  0.00  0.00    +0.000 A 
ATOM      9  C   UNL     1      -0.638  10.310  22.891  0.00  0.00    +0.000 A 
ATOM     10  C   UNL     1      -1.387  11.446  22.582  0.00  0.00    +0.000 A 
ATOM     11  C   UNL     1      -1.381  11.984  21.283  0.00  0.00    +0.000 A 
ATOM     12  C   UNL     1      -0.625  11.394  20.265  0.00  0.00    +0.000 A 
ATOM     13  C   UNL     1       0.116  10.263  20.568  0.00  0.00    +0.000 A 
ENDROOT
BRANCH   1  14
ATOM     14  C   UNL     1       3.329   6.296  17.946  0.00  0.00    +0.000 C 
BRANCH  14  15
ATOM     15  O   UNL     1       4.189   6.861  16.952  0.00  0.00    +0.000 OA
ATOM     16  H   UNL     1       3.867   6.571  16.084  0.00  0.00    +0.000 HD
ENDBRANCH  14  15
BRANCH  14  17
ATOM     17  C   UNL     1       4.190   5.507  18.936  0.00  0.00    +0.000 C 
BRANCH  17  18
ATOM     18  C   UNL     1       4.129   3.998  18.719  0.00  0.00    +0.000 C 
BRANCH  18  19
ATOM     19  N   UNL     1       2.811   3.460  18.996  0.00  0.00    +0.000 N 
ATOM     20  C   UNL     1       2.004   2.794  18.119  0.00  0.00    +0.000 A 
ATOM     21  C   UNL     1       0.866   2.507  18.837  0.00  0.00    +0.000 A 
ATOM     22  N   UNL     1       0.964   2.987  20.118  0.00  0.00    +0.000 NA
ATOM     23  C   UNL     1       2.144   3.561  20.183  0.00  0.00    +0.000 A 
ENDBRANCH  18  19
ENDBRANCH  17  18
ENDBRANCH  14  17
ENDBRANCH   1  14
TORSDOF 5
ENDMDL
MODEL 6
REMARK VINA RESULT:      -7.5      2.540      3.810
REMARK  Name = 
REMARK  5 active torsions:
REMARK  status: ('A' for Active; 'I' for Inactive)
REMARK    1  A    between atoms: O_1  and  C_2
REMARK    2  A    between atoms: C_2  and  C_3
REMARK    3  A    between atoms: C_2  and  C_10
REMARK    4  A    between atoms: C_3  and  C_4
REMARK    5  A    between atoms: C_4  and  N_5
REMARK                            x       y       z     vdW  Elec       q    Type
REMARK                         _______ _______ _______ _____ _____    ______ ____
ROOT
ATOM      1  C   UNL     1       2.625   7.046  18.753  0.00  0.00    +0.000 A 
ATOM      2  C   UNL     1       2.259   6.467  19.992  0.00  0.00    +0.000 A 
ATOM      3  C   UNL     1       1.474   7.158  20.923  0.00  0.00    +0.000 A 
ATOM      4  C   UNL     1       1.039   8.432  20.603  0.00  0.00    +0.000 A 
ATOM      5  C   UNL     1       1.366   9.001  19.354  0.00  0.00    +0.000 A 
ATOM      6  C   UNL     1       2.153   8.330  18.432  0.00  0.00    +0.000 A 
ATOM      7  C   UNL     1       0.769  10.390  19.238  0.00  0.00    +0.000 C 
ATOM      8  C   UNL     1       0.109  10.564  20.592  0.00  0.00    +0.000 A 
ATOM      9  C   UNL     1      -0.558  11.673  21.081  0.00  0.00    +0.000 A 
ATOM     10  C   UNL     1      -1.061  11.609  22.381  0.00  0.00    +0.000 A 
ATOM     11  C   UNL     1      -0.897  10.452  23.162  0.00  0.00    +0.000 A 
ATOM     12  C   UNL     1      -0.226   9.334  22.658  0.00  0.00    +0.000 A 
ATOM     13  C   UNL     1       0.278   9.396  21.369  0.00  0.00    +0.000 A 
ENDROOT
BRANCH   1  14
ATOM     14  C   UNL     1       3.524   6.313  17.778  0.00  0.00    +0.000 C 
BRANCH  14  15
ATOM     15  O   UNL     1       4.419   7.255  17.181  0.00  0.00    +0.000 OA
ATOM     16  H   UNL     1       4.829   6.826  16.413  0.00  0.00    +0.000 HD
ENDBRANCH  14  15
BRANCH  14  17
ATOM     17  C   UNL     1       4.354   5.196  18.416  0.00  0.00    +0.000 C 
BRANCH  17  18
ATOM     18  C   UNL     1       4.591   4.012  17.482  0.00  0.00    +0.000 C 
BRANCH  18  19
ATOM     19  N   UNL     1       5.656   4.271  16.533  0.00  0.00    +0.000 N 
ATOM     20  C   UNL     1       5.545   4.286  15.172  0.00  0.00    +0.000 A 
ATOM     21  C   UNL     1       6.817   4.556  14.720  0.00  0.00    +0.000 A 
ATOM     22  N   UNL     1       7.688   4.696  15.769  0.00  0.00    +0.000 NA
ATOM     23  C   UNL     1       6.962   4.514  16.849  0.00  0.00    +0.000 A 
ENDBRANCH  18  19
ENDBRANCH  17  18
ENDBRANCH  14  17
ENDBRANCH   1  14
TORSDOF 5
ENDMDL
MODEL 7
REMARK VINA RESULT:      -7.4      3.806      7.395
REMARK  Name = 
REMARK  5 active torsions:
REMARK  status: ('A' for Active; 'I' for Inactive)
REMARK    1  A    between atoms: O_1  and  C_2
REMARK    2  A    between atoms: C_2  and  C_3
REMARK    3  A    between atoms: C_2  and  C_10
REMARK    4  A    between atoms: C_3  and  C_4
REMARK    5  A    between atoms: C_4  and  N_5
REMARK                            x       y       z     vdW  Elec       q    Type
REMARK                         _______ _______ _______ _____ _____    ______ ____
ROOT
ATOM      1  C   UNL     1       1.609   9.071  19.196  0.00  0.00    +0.000 A 
ATOM      2  C   UNL     1       1.227   8.649  20.492  0.00  0.00    +0.000 A 
ATOM      3  C   UNL     1       1.441   7.336  20.931  0.00  0.00    +0.000 A 
ATOM      4  C   UNL     1       2.057   6.446  20.070  0.00  0.00    +0.000 A 
ATOM      5  C   UNL     1       2.475   6.867  18.790  0.00  0.00    +0.000 A 
ATOM      6  C   UNL     1       2.256   8.160  18.343  0.00  0.00    +0.000 A 
ATOM      7  C   UNL     1       3.126   5.719  18.046  0.00  0.00    +0.000 C 
ATOM      8  C   UNL     1       2.979   4.578  19.034  0.00  0.00    +0.000 A 
ATOM      9  C   UNL     1       3.352   3.256  18.874  0.00  0.00    +0.000 A 
ATOM     10  C   UNL     1       3.086   2.373  19.922  0.00  0.00    +0.000 A 
ATOM     11  C   UNL     1       2.464   2.819  21.100  0.00  0.00    +0.000 A 
ATOM     12  C   UNL     1       2.095   4.159  21.255  0.00  0.00    +0.000 A 
ATOM     13  C   UNL     1       2.354   5.036  20.216  0.00  0.00    +0.000 A 
ENDROOT
BRANCH   1  14
ATOM     14  C   UNL     1       1.319  10.477  18.709  0.00  0.00    +0.000 C 
BRANCH  14  15
ATOM     15  O   UNL     1       1.918  10.651  17.423  0.00  0.00    +0.000 OA
ATOM     16  H   UNL     1       2.730  10.118  17.401  0.00  0.00    +0.000 HD
ENDBRANCH  14  15
BRANCH  14  17
ATOM     17  C   UNL     1      -0.173  10.800  18.594  0.00  0.00    +0.000 C 
BRANCH  17  18
ATOM     18  C   UNL     1      -0.934   9.825  17.699  0.00  0.00    +0.000 C 
BRANCH  18  19
ATOM     19  N   UNL     1      -2.159  10.403  17.182  0.00  0.00    +0.000 N 
ATOM     20  C   UNL     1      -2.579  10.390  15.883  0.00  0.00    +0.000 A 
ATOM     21  C   UNL     1      -3.774  11.073  15.893  0.00  0.00    +0.000 A 
ATOM     22  N   UNL     1      -4.080  11.501  17.160  0.00  0.00    +0.000 NA
ATOM     23  C   UNL     1      -3.087  11.087  17.914  0.00  0.00    +0.000 A 
ENDBRANCH  18  19
ENDBRANCH  17  18
ENDBRANCH  14  17
ENDBRANCH   1  14
TORSDOF 5
ENDMDL
MODEL 8
REMARK VINA RESULT:      -7.3      1.225      2.103
REMARK  Name = 
REMARK  5 active torsions:
REMARK  status: ('A' for Active; 'I' for Inactive)
REMARK    1  A    between atoms: O_1  and  C_2
REMARK    2  A    between atoms: C_2  and  C_3
REMARK    3  A    between atoms: C_2  and  C_10
REMARK    4  A    between atoms: C_3  and  C_4
REMARK    5  A    between atoms: C_4  and  N_5
REMARK                            x       y       z     vdW  Elec       q    Type
REMARK                         _______ _______ _______ _____ _____    ______ ____
ROOT
ATOM      1  C   UNL     1       2.895   6.820  18.498  0.00  0.00    +0.000 A 
ATOM      2  C   UNL     1       2.578   6.269  19.763  0.00  0.00    +0.000 A 
ATOM      3  C   UNL     1       1.808   6.971  20.698  0.00  0.00    +0.000 A 
ATOM      4  C   UNL     1       1.337   8.226  20.356  0.00  0.00    +0.000 A 
ATOM      5  C   UNL     1       1.615   8.767  19.083  0.00  0.00    +0.000 A 
ATOM      6  C   UNL     1       2.388   8.086  18.157  0.00  0.00    +0.000 A 
ATOM      7  C   UNL     1       0.986  10.140  18.948  0.00  0.00    +0.000 C 
ATOM      8  C   UNL     1       0.364  10.338  20.315  0.00  0.00    +0.000 A 
ATOM      9  C   UNL     1      -0.310  11.447  20.794  0.00  0.00    +0.000 A 
ATOM     10  C   UNL     1      -0.773  11.410  22.110  0.00  0.00    +0.000 A 
ATOM     11  C   UNL     1      -0.563  10.279  22.917  0.00  0.00    +0.000 A 
ATOM     12  C   UNL     1       0.116   9.160  22.423  0.00  0.00    +0.000 A 
ATOM     13  C   UNL     1       0.580   9.196  21.119  0.00  0.00    +0.000 A 
ENDROOT
BRANCH   1  14
ATOM     14  C   UNL     1       3.780   6.078  17.516  0.00  0.00    +0.000 C 
BRANCH  14  15
ATOM     15  O   UNL     1       4.711   7.001  16.948  0.00  0.00    +0.000 OA
ATOM     16  H   UNL     1       4.216   7.790  16.674  0.00  0.00    +0.000 HD
ENDBRANCH  14  15
BRANCH  14  17
ATOM     17  C   UNL     1       4.565   4.921  18.139  0.00  0.00    +0.000 C 
BRANCH  17  18
ATOM     18  C   UNL     1       4.090   3.548  17.669  0.00  0.00    +0.000 C 
BRANCH  18  19
ATOM     19  N   UNL     1       2.943   3.081  18.423  0.00  0.00    +0.000 N 
ATOM     20  C   UNL     1       1.640   3.106  18.017  0.00  0.00    +0.000 A 
ATOM     21  C   UNL     1       0.933   2.579  19.074  0.00  0.00    +0.000 A 
ATOM     22  N   UNL     1       1.774   2.246  20.105  0.00  0.00    +0.000 NA
ATOM     23  C   UNL     1       2.978   2.564  19.686  0.00  0.00    +0.000 A 
ENDBRANCH  18  19
ENDBRANCH  17  18
ENDBRANCH  14  17
ENDBRANCH   1  14
TORSDOF 5
ENDMDL
MODEL 9
REMARK VINA RESULT:      -7.3      2.711      4.308
REMARK  Name = 
REMARK  5 active torsions:
REMARK  status: ('A' for Active; 'I' for Inactive)
REMARK    1  A    between atoms: O_1  and  C_2
REMARK    2  A    between atoms: C_2  and  C_3
REMARK    3  A    between atoms: C_2  and  C_10
REMARK    4  A    between atoms: C_3  and  C_4
REMARK    5  A    between atoms: C_4  and  N_5
REMARK                            x       y       z     vdW  Elec       q    Type
REMARK                         _______ _______ _______ _____ _____    ______ ____
ROOT
ATOM      1  C   UNL     1       2.788   4.969  18.594  0.00  0.00    +0.000 A 
ATOM      2  C   UNL     1       2.377   4.918  19.948  0.00  0.00    +0.000 A 
ATOM      3  C   UNL     1       1.859   6.043  20.602  0.00  0.00    +0.000 A 
ATOM      4  C   UNL     1       1.739   7.222  19.889  0.00  0.00    +0.000 A 
ATOM      5  C   UNL     1       2.110   7.273  18.529  0.00  0.00    +0.000 A 
ATOM      6  C   UNL     1       2.635   6.168  17.877  0.00  0.00    +0.000 A 
ATOM      7  C   UNL     1       1.877   8.663  17.972  0.00  0.00    +0.000 C 
ATOM      8  C   UNL     1       1.379   9.412  19.192  0.00  0.00    +0.000 A 
ATOM      9  C   UNL     1       1.051  10.752  19.296  0.00  0.00    +0.000 A 
ATOM     10  C   UNL     1       0.641  11.227  20.543  0.00  0.00    +0.000 A 
ATOM     11  C   UNL     1       0.561  10.367  21.652  0.00  0.00    +0.000 A 
ATOM     12  C   UNL     1       0.891   9.013  21.536  0.00  0.00    +0.000 A 
ATOM     13  C   UNL     1       1.302   8.540  20.301  0.00  0.00    +0.000 A 
ENDROOT
BRANCH   1  14
ATOM     14  C   UNL     1       3.402   3.762  17.913  0.00  0.00    +0.000 C 
BRANCH  14  15
ATOM     15  O   UNL     1       2.483   3.268  16.936  0.00  0.00    +0.000 OA
ATOM     16  H   UNL     1       2.041   4.033  16.534  0.00  0.00    +0.000 HD
ENDBRANCH  14  15
BRANCH  14  17
ATOM     17  C   UNL     1       4.736   4.051  17.219  0.00  0.00    +0.000 C 
BRANCH  17  18
ATOM     18  C   UNL     1       5.883   4.296  18.195  0.00  0.00    +0.000 C 
BRANCH  18  19
ATOM     19  N   UNL     1       6.560   5.552  17.936  0.00  0.00    +0.000 N 
ATOM     20  C   UNL     1       7.587   6.086  18.660  0.00  0.00    +0.000 A 
ATOM     21  C   UNL     1       7.871   7.281  18.039  0.00  0.00    +0.000 A 
ATOM     22  N   UNL     1       7.039   7.483  16.968  0.00  0.00    +0.000 NA
ATOM     23  C   UNL     1       6.257   6.427  16.933  0.00  0.00    +0.000 A 
ENDBRANCH  18  19
ENDBRANCH  17  18
ENDBRANCH  14  17
ENDBRANCH   1  14
TORSDOF 5
ENDMDL
