MODEL 1
REMARK VINA RESULT:      -7.9      0.000      0.000
REMARK  Name = 
REMARK  10 active torsions:
REMARK  status: ('A' for Active; 'I' for Inactive)
REMARK    1  A    between atoms: C_1  and  C_2
REMARK    2  A    between atoms: C_2  and  C_3
REMARK    3  A    between atoms: C_2  and  O_4
REMARK    4  A    between atoms: C_2  and  C_5
REMARK    5  A    between atoms: C_5  and  C_6
REMARK    6  A    between atoms: C_6  and  N_7
REMARK    7  A    between atoms: C_8  and  C_10
REMARK    8  A    between atoms: C_15  and  O_16
REMARK    9  A    between atoms: O_16  and  C_17
REMARK   10  A    between atoms: C_20  and  C_21
REMARK                            x       y       z     vdW  Elec       q    Type
REMARK                         _______ _______ _______ _____ _____    ______ ____
ROOT
ATOM      1  C   UNL     1       1.476   8.773  18.911  0.00  0.00    +0.000 A 
ATOM      2  C   UNL     1       2.114   9.267  17.781  0.00  0.00    +0.000 A 
ATOM      3  C   UNL     1       3.233   8.592  17.312  0.00  0.00    +0.000 A 
ATOM      4  C   UNL     1       3.679   7.444  17.979  0.00  0.00    +0.000 A 
ATOM      5  C   UNL     1       4.794   6.716  17.525  0.00  0.00    +0.000 A 
ATOM      6  C   UNL     1       5.206   5.569  18.205  0.00  0.00    +0.000 A 
ATOM      7  C   UNL     1       4.543   5.192  19.371  0.00  0.00    +0.000 A 
ATOM      8  C   UNL     1       3.426   5.908  19.807  0.00  0.00    +0.000 A 
ATOM      9  C   UNL     1       2.969   7.026  19.131  0.00  0.00    +0.000 A 
ATOM     10  N   UNL     1       1.883   7.669  19.594  0.00  0.00    +0.000 NA
ENDROOT
BRANCH   1  12
ATOM     11  N   UNL     1      -0.547  10.067  18.470  0.00  0.00    +0.000 N 
ATOM     12  C   UNL     1       0.261   9.480  19.428  0.00  0.00    +0.000 C 
ATOM     13  O   UNL     1       0.032   9.523  20.633  0.00  0.00    +0.000 OA
ATOM     14  H   UNL     1      -0.160  10.113  17.530  0.00  0.00    +0.000 HD
BRANCH  11  15
ATOM     15  C   UNL     1      -1.643  10.933  18.861  0.00  0.00    +0.000 C 
BRANCH  15  16
ATOM     16  C   UNL     1      -2.257  11.680  17.676  0.00  0.00    +0.000 C 
BRANCH  16  18
ATOM     17  C   UNL     1      -3.103  10.838  15.413  0.00  0.00    +0.000 C 
ATOM     18  C   UNL     1      -3.330  10.857  16.929  0.00  0.00    +0.000 C 
ATOM     19  C   UNL     1      -4.728  11.408  17.228  0.00  0.00    +0.000 C 
BRANCH  18  20
ATOM     20  O   UNL     1      -3.279   9.512  17.413  0.00  0.00    +0.000 OA
ATOM     21  H   UNL     1      -4.162   9.118  17.301  0.00  0.00    +0.000 HD
ENDBRANCH  18  20
ENDBRANCH  16  18
ENDBRANCH  15  16
ENDBRANCH  11  15
ENDBRANCH   1  12
BRANCH   6  22
ATOM     22  O   UNL     1       6.310   4.911  17.710  0.00  0.00    +0.000 OA
BRANCH  22  23
ATOM     23  C   UNL     1       6.340   4.614  16.352  0.00  0.00    +0.000 A 
ATOM     24  C   UNL     1       5.398   3.708  15.890  0.00  0.00    +0.000 A 
ATOM     25  C   UNL     1       5.388   3.402  14.529  0.00  0.00    +0.000 A 
ATOM     26  C   UNL     1       6.323   3.999  13.676  0.00  0.00    +0.000 A 
ATOM     27  C   UNL     1       7.239   4.873  14.242  0.00  0.00    +0.000 A 
ATOM     28  N   UNL     1       7.277   5.180  15.556  0.00  0.00    +0.000 NA
BRANCH  26  29
ATOM     29  C   UNL     1       6.373   3.737  12.203  0.00  0.00    +0.000 C 
ATOM     30  F   UNL     1       6.756   2.470  11.888  0.00  0.00    +0.000 F 
ATOM     31  F   UNL     1       5.167   3.924  11.602  0.00  0.00    +0.000 F 
ATOM     32  F   UNL     1       7.243   4.562  11.559  0.00  0.00    +0.000 F 
ENDBRANCH  26  29
ENDBRANCH  22  23
ENDBRANCH   6  22
TORSDOF 8
ENDMDL
MODEL 2
REMARK VINA RESULT:      -7.9      5.625     10.864
REMARK  Name = 
REMARK  10 active torsions:
REMARK  status: ('A' for Active; 'I' for Inactive)
REMARK    1  A    between atoms: C_1  and  C_2
REMARK    2  A    between atoms: C_2  and  C_3
REMARK    3  A    between atoms: C_2  and  O_4
REMARK    4  A    between atoms: C_2  and  C_5
REMARK    5  A    between atoms: C_5  and  C_6
REMARK    6  A    between atoms: C_6  and  N_7
REMARK    7  A    between atoms: C_8  and  C_10
REMARK    8  A    between atoms: C_15  and  O_16
REMARK    9  A    between atoms: O_16  and  C_17
REMARK   10  A    between atoms: C_20  and  C_21
REMARK                            x       y       z     vdW  Elec       q    Type
REMARK                         _______ _______ _______ _____ _____    ______ ____
ROOT
ATOM      1  C   UNL     1       2.425   7.334  19.053  0.00  0.00    +0.000 A 
ATOM      2  C   UNL     1       2.407   8.034  17.854  0.00  0.00    +0.000 A 
ATOM      3  C   UNL     1       1.638   9.189  17.781  0.00  0.00    +0.000 A 
ATOM      4  C   UNL     1       0.918   9.613  18.904  0.00  0.00    +0.000 A 
ATOM      5  C   UNL     1       0.146  10.788  18.883  0.00  0.00    +0.000 A 
ATOM      6  C   UNL     1      -0.552  11.191  20.022  0.00  0.00    +0.000 A 
ATOM      7  C   UNL     1      -0.528  10.383  21.157  0.00  0.00    +0.000 A 
ATOM      8  C   UNL     1       0.255   9.226  21.180  0.00  0.00    +0.000 A 
ATOM      9  C   UNL     1       0.990   8.822  20.078  0.00  0.00    +0.000 A 
ATOM     10  N   UNL     1       1.731   7.704  20.163  0.00  0.00    +0.000 NA
ENDROOT
BRANCH   1  12
ATOM     11  N   UNL     1       3.937   5.725  18.009  0.00  0.00    +0.000 N 
ATOM     12  C   UNL     1       3.254   6.091  19.157  0.00  0.00    +0.000 C 
ATOM     13  O   UNL     1       3.297   5.457  20.207  0.00  0.00    +0.000 OA
ATOM     14  H   UNL     1       3.684   6.229  17.163  0.00  0.00    +0.000 HD
BRANCH  11  15
ATOM     15  C   UNL     1       4.618   4.447  17.933  0.00  0.00    +0.000 C 
BRANCH  15  16
ATOM     16  C   UNL     1       6.041   4.502  18.492  0.00  0.00    +0.000 C 
BRANCH  16  18
ATOM     17  C   UNL     1       7.468   6.326  17.404  0.00  0.00    +0.000 C 
ATOM     18  C   UNL     1       7.102   4.837  17.421  0.00  0.00    +0.000 C 
ATOM     19  C   UNL     1       6.606   4.419  16.033  0.00  0.00    +0.000 C 
BRANCH  18  20
ATOM     20  O   UNL     1       8.282   4.082  17.707  0.00  0.00    +0.000 OA
ATOM     21  H   UNL     1       9.024   4.488  17.225  0.00  0.00    +0.000 HD
ENDBRANCH  18  20
ENDBRANCH  16  18
ENDBRANCH  15  16
ENDBRANCH  11  15
ENDBRANCH   1  12
BRANCH   6  22
ATOM     22  O   UNL     1      -1.294  12.347  19.927  0.00  0.00    +0.000 OA
BRANCH  22  23
ATOM     23  C   UNL     1      -2.636  12.236  19.581  0.00  0.00    +0.000 A 
ATOM     24  C   UNL     1      -2.921  11.609  18.377  0.00  0.00    +0.000 A 
ATOM     25  C   UNL     1      -4.258  11.465  18.008  0.00  0.00    +0.000 A 
ATOM     26  C   UNL     1      -5.266  11.958  18.844  0.00  0.00    +0.000 A 
ATOM     27  C   UNL     1      -4.876  12.590  20.015  0.00  0.00    +0.000 A 
ATOM     28  N   UNL     1      -3.589  12.751  20.391  0.00  0.00    +0.000 NA
BRANCH  26  29
ATOM     29  C   UNL     1      -6.725  11.832  18.531  0.00  0.00    +0.000 C 
ATOM     30  F   UNL     1      -7.106  10.566  18.213  0.00  0.00    +0.000 F 
ATOM     31  F   UNL     1      -7.513  12.208  19.576  0.00  0.00    +0.000 F 
ATOM     32  F   UNL     1      -7.101  12.612  17.481  0.00  0.00    +0.000 F 
ENDBRANCH  26  29
ENDBRANCH  22  23
ENDBRANCH   6  22
TORSDOF 8
ENDMDL
MODEL 3
REMARK VINA RESULT:      -7.8      5.627     10.852
REMARK  Name = 
REMARK  10 active torsions:
REMARK  status: ('A' for Active; 'I' for Inactive)
REMARK    1  A    between atoms: C_1  and  C_2
REMARK    2  A    between atoms: C_2  and  C_3
REMARK    3  A    between atoms: C_2  and  O_4
REMARK    4  A    between atoms: C_2  and  C_5
REMARK    5  A    between atoms: C_5  and  C_6
REMARK    6  A    between atoms: C_6  and  N_7
REMARK    7  A    between atoms: C_8  and  C_10
REMARK    8  A    between atoms: C_15  and  O_16
REMARK    9  A    between atoms: O_16  and  C_17
REMARK   10  A    between atoms: C_20  and  C_21
REMARK                            x       y       z     vdW  Elec       q    Type
REMARK                         _______ _______ _______ _____ _____    ______ ____
ROOT
ATOM      1  C   UNL     1       2.491   7.413  19.022  0.00  0.00    +0.000 A 
ATOM      2  C   UNL     1       2.488   8.126  17.830  0.00  0.00    +0.000 A 
ATOM      3  C   UNL     1       1.711   9.275  17.756  0.00  0.00    +0.000 A 
ATOM      4  C   UNL     1       0.967   9.681  18.871  0.00  0.00    +0.000 A 
ATOM      5  C   UNL     1       0.186  10.850  18.848  0.00  0.00    +0.000 A 
ATOM      6  C   UNL     1      -0.535  11.234  19.979  0.00  0.00    +0.000 A 
ATOM      7  C   UNL     1      -0.524  10.414  21.106  0.00  0.00    +0.000 A 
ATOM      8  C   UNL     1       0.268   9.263  21.130  0.00  0.00    +0.000 A 
ATOM      9  C   UNL     1       1.025   8.878  20.037  0.00  0.00    +0.000 A 
ATOM     10  N   UNL     1       1.774   7.765  20.123  0.00  0.00    +0.000 NA
ENDROOT
BRANCH   1  12
ATOM     11  N   UNL     1       4.294   6.018  18.146  0.00  0.00    +0.000 N 
ATOM     12  C   UNL     1       3.329   6.176  19.127  0.00  0.00    +0.000 C 
ATOM     13  O   UNL     1       3.140   5.371  20.034  0.00  0.00    +0.000 OA
ATOM     14  H   UNL     1       4.235   6.658  17.358  0.00  0.00    +0.000 HD
BRANCH  11  15
ATOM     15  C   UNL     1       5.035   4.776  18.037  0.00  0.00    +0.000 C 
BRANCH  15  16
ATOM     16  C   UNL     1       4.946   4.156  16.641  0.00  0.00    +0.000 C 
BRANCH  16  18
ATOM     17  C   UNL     1       6.010   3.992  14.320  0.00  0.00    +0.000 C 
ATOM     18  C   UNL     1       5.946   4.773  15.638  0.00  0.00    +0.000 C 
ATOM     19  C   UNL     1       7.346   4.842  16.257  0.00  0.00    +0.000 C 
BRANCH  18  20
ATOM     20  O   UNL     1       5.529   6.110  15.354  0.00  0.00    +0.000 OA
ATOM     21  H   UNL     1       4.826   6.070  14.683  0.00  0.00    +0.000 HD
ENDBRANCH  18  20
ENDBRANCH  16  18
ENDBRANCH  15  16
ENDBRANCH  11  15
ENDBRANCH   1  12
BRANCH   6  22
ATOM     22  O   UNL     1      -1.285  12.385  19.883  0.00  0.00    +0.000 OA
BRANCH  22  23
ATOM     23  C   UNL     1      -2.655  12.258  19.684  0.00  0.00    +0.000 A 
ATOM     24  C   UNL     1      -3.479  12.737  20.690  0.00  0.00    +0.000 A 
ATOM     25  C   UNL     1      -4.860  12.642  20.514  0.00  0.00    +0.000 A 
ATOM     26  C   UNL     1      -5.374  12.065  19.348  0.00  0.00    +0.000 A 
ATOM     27  C   UNL     1      -4.465  11.594  18.413  0.00  0.00    +0.000 A 
ATOM     28  N   UNL     1      -3.125  11.665  18.561  0.00  0.00    +0.000 NA
BRANCH  26  29
ATOM     29  C   UNL     1      -6.840  11.937  19.073  0.00  0.00    +0.000 C 
ATOM     30  F   UNL     1      -7.519  11.270  20.045  0.00  0.00    +0.000 F 
ATOM     31  F   UNL     1      -7.452  13.146  18.952  0.00  0.00    +0.000 F 
ATOM     32  F   UNL     1      -7.094  11.272  17.914  0.00  0.00    +0.000 F 
ENDBRANCH  26  29
ENDBRANCH  22  23
ENDBRANCH   6  22
TORSDOF 8
ENDMDL
MODEL 4
REMARK VINA RESULT:      -7.8      0.567      1.140
REMARK  Name = 
REMARK  10 active torsions:
REMARK  status: ('A' for Active; 'I' for Inactive)
REMARK    1  A    between atoms: C_1  and  C_2
REMARK    2  A    between atoms: C_2  and  C_3
REMARK    3  A    between atoms: C_2  and  O_4
REMARK    4  A    between atoms: C_2  and  C_5
REMARK    5  A    between atoms: C_5  and  C_6
REMARK    6  A    between atoms: C_6  and  N_7
REMARK    7  A    between atoms: C_8  and  C_10
REMARK    8  A    between atoms: C_15  and  O_16
REMARK    9  A    between atoms: O_16  and  C_17
REMARK   10  A    between atoms: C_20  and  C_21
REMARK                            x       y       z     vdW  Elec       q    Type
REMARK                         _______ _______ _______ _____ _____    ______ ____
ROOT
ATOM      1  C   UNL     1       1.439   8.745  19.007  0.00  0.00    +0.000 A 
ATOM      2  C   UNL     1       2.103   9.193  17.873  0.00  0.00    +0.000 A 
ATOM      3  C   UNL     1       3.180   8.449  17.408  0.00  0.00    +0.000 A 
ATOM      4  C   UNL     1       3.558   7.282  18.084  0.00  0.00    +0.000 A 
ATOM      5  C   UNL     1       4.627   6.485  17.635  0.00  0.00    +0.000 A 
ATOM      6  C   UNL     1       4.972   5.322  18.323  0.00  0.00    +0.000 A 
ATOM      7  C   UNL     1       4.289   4.993  19.492  0.00  0.00    +0.000 A 
ATOM      8  C   UNL     1       3.216   5.777  19.924  0.00  0.00    +0.000 A 
ATOM      9  C   UNL     1       2.826   6.916  19.240  0.00  0.00    +0.000 A 
ATOM     10  N   UNL     1       1.780   7.625  19.699  0.00  0.00    +0.000 NA
ENDROOT
BRANCH   1  12
ATOM     11  N   UNL     1      -0.531  10.116  18.555  0.00  0.00    +0.000 N 
ATOM     12  C   UNL     1       0.268   9.527  19.520  0.00  0.00    +0.000 C 
ATOM     13  O   UNL     1       0.065   9.625  20.726  0.00  0.00    +0.000 OA
ATOM     14  H   UNL     1      -0.162  10.109  17.607  0.00  0.00    +0.000 HD
BRANCH  11  15
ATOM     15  C   UNL     1      -1.578  11.046  18.933  0.00  0.00    +0.000 C 
BRANCH  15  16
ATOM     16  C   UNL     1      -2.232  11.722  17.727  0.00  0.00    +0.000 C 
BRANCH  16  18
ATOM     17  C   UNL     1      -2.762  10.531  15.525  0.00  0.00    +0.000 C 
ATOM     18  C   UNL     1      -3.208  10.796  16.968  0.00  0.00    +0.000 C 
ATOM     19  C   UNL     1      -4.617  11.398  16.962  0.00  0.00    +0.000 C 
BRANCH  18  20
ATOM     20  O   UNL     1      -3.270   9.547  17.661  0.00  0.00    +0.000 OA
ATOM     21  H   UNL     1      -3.449   8.848  17.007  0.00  0.00    +0.000 HD
ENDBRANCH  18  20
ENDBRANCH  16  18
ENDBRANCH  15  16
ENDBRANCH  11  15
ENDBRANCH   1  12
BRANCH   6  22
ATOM     22  O   UNL     1       6.034   4.595  17.833  0.00  0.00    +0.000 OA
BRANCH  22  23
ATOM     23  C   UNL     1       6.107   4.388  16.460  0.00  0.00    +0.000 A 
ATOM     24  C   UNL     1       7.130   5.035  15.784  0.00  0.00    +0.000 A 
ATOM     25  C   UNL     1       7.243   4.834  14.409  0.00  0.00    +0.000 A 
ATOM     26  C   UNL     1       6.328   4.006  13.750  0.00  0.00    +0.000 A 
ATOM     27  C   UNL     1       5.327   3.424  14.513  0.00  0.00    +0.000 A 
ATOM     28  N   UNL     1       5.188   3.609  15.843  0.00  0.00    +0.000 NA
BRANCH  26  29
ATOM     29  C   UNL     1       6.386   3.725  12.281  0.00  0.00    +0.000 C 
ATOM     30  F   UNL     1       7.213   4.562  11.599  0.00  0.00    +0.000 F 
ATOM     31  F   UNL     1       6.823   2.465  12.010  0.00  0.00    +0.000 F 
ATOM     32  F   UNL     1       5.168   3.833  11.683  0.00  0.00    +0.000 F 
ENDBRANCH  26  29
ENDBRANCH  22  23
ENDBRANCH   6  22
TORSDOF 8
ENDMDL
MODEL 5
REMARK VINA RESULT:      -7.7      7.125     11.741
REMARK  Name = 
REMARK  10 active torsions:
REMARK  status: ('A' for Active; 'I' for Inactive)
REMARK    1  A    between atoms: C_1  and  C_2
REMARK    2  A    between atoms: C_2  and  C_3
REMARK    3  A    between atoms: C_2  and  O_4
REMARK    4  A    between atoms: C_2  and  C_5
REMARK    5  A    between atoms: C_5  and  C_6
REMARK    6  A    between atoms: C_6  and  N_7
REMARK    7  A    between atoms: C_8  and  C_10
REMARK    8  A    between atoms: C_15  and  O_16
REMARK    9  A    between atoms: O_16  and  C_17
REMARK   10  A    between atoms: C_20  and  C_21
REMARK                            x       y       z     vdW  Elec       q    Type
REMARK                         _______ _______ _______ _____ _____    ______ ____
ROOT
ATOM      1  C   UNL     1       1.546   9.087  19.021  0.00  0.00    +0.000 A 
ATOM      2  C   UNL     1       1.386  10.363  18.498  0.00  0.00    +0.000 A 
ATOM      3  C   UNL     1       0.703  11.303  19.259  0.00  0.00    +0.000 A 
ATOM      4  C   UNL     1       0.205  10.944  20.518  0.00  0.00    +0.000 A 
ATOM      5  C   UNL     1      -0.473  11.869  21.333  0.00  0.00    +0.000 A 
ATOM      6  C   UNL     1      -0.947  11.484  22.586  0.00  0.00    +0.000 A 
ATOM      7  C   UNL     1      -0.800  10.160  22.994  0.00  0.00    +0.000 A 
ATOM      8  C   UNL     1      -0.111   9.248  22.189  0.00  0.00    +0.000 A 
ATOM      9  C   UNL     1       0.406   9.612  20.957  0.00  0.00    +0.000 A 
ATOM     10  N   UNL     1       1.067   8.694  20.232  0.00  0.00    +0.000 NA
ENDROOT
BRANCH   1  12
ATOM     11  N   UNL     1       2.379   6.803  18.793  0.00  0.00    +0.000 N 
ATOM     12  C   UNL     1       2.287   8.060  18.220  0.00  0.00    +0.000 C 
ATOM     13  O   UNL     1       2.775   8.352  17.133  0.00  0.00    +0.000 OA
ATOM     14  H   UNL     1       2.089   6.735  19.765  0.00  0.00    +0.000 HD
BRANCH  11  15
ATOM     15  C   UNL     1       3.228   5.786  18.202  0.00  0.00    +0.000 C 
BRANCH  15  16
ATOM     16  C   UNL     1       3.150   4.449  18.942  0.00  0.00    +0.000 C 
BRANCH  16  18
ATOM     17  C   UNL     1       0.982   3.310  19.681  0.00  0.00    +0.000 C 
ATOM     18  C   UNL     1       1.940   3.589  18.517  0.00  0.00    +0.000 C 
ATOM     19  C   UNL     1       2.414   2.260  17.920  0.00  0.00    +0.000 C 
BRANCH  18  20
ATOM     20  O   UNL     1       1.225   4.294  17.499  0.00  0.00    +0.000 OA
ATOM     21  H   UNL     1       0.319   4.448  17.818  0.00  0.00    +0.000 HD
ENDBRANCH  18  20
ENDBRANCH  16  18
ENDBRANCH  15  16
ENDBRANCH  11  15
ENDBRANCH   1  12
BRANCH   6  22
ATOM     22  O   UNL     1      -1.608  12.439  23.327  0.00  0.00    +0.000 OA
BRANCH  22  23
ATOM     23  C   UNL     1      -2.986  12.546  23.175  0.00  0.00    +0.000 A 
ATOM     24  C   UNL     1      -3.746  12.502  24.334  0.00  0.00    +0.000 A 
ATOM     25  C   UNL     1      -5.131  12.625  24.219  0.00  0.00    +0.000 A 
ATOM     26  C   UNL     1      -5.713  12.776  22.956  0.00  0.00    +0.000 A 
ATOM     27  C   UNL     1      -4.866  12.784  21.858  0.00  0.00    +0.000 A 
ATOM     28  N   UNL     1      -3.525  12.658  21.939  0.00  0.00    +0.000 NA
BRANCH  26  29
ATOM     29  C   UNL     1      -7.187  12.929  22.745  0.00  0.00    +0.000 C 
ATOM     30  F   UNL     1      -7.591  14.225  22.644  0.00  0.00    +0.000 F 
ATOM     31  F   UNL     1      -7.615  12.315  21.608  0.00  0.00    +0.000 F 
ATOM     32  F   UNL     1      -7.916  12.387  23.758  0.00  0.00    +0.000 F 
ENDBRANCH  26  29
ENDBRANCH  22  23
ENDBRANCH   6  22
TORSDOF 8
ENDMDL
MODEL 6
REMARK VINA RESULT:      -7.6      6.560     11.148
REMARK  Name = 
REMARK  10 active torsions:
REMARK  status: ('A' for Active; 'I' for Inactive)
REMARK    1  A    between atoms: C_1  and  C_2
REMARK    2  A    between atoms: C_2  and  C_3
REMARK    3  A    between atoms: C_2  and  O_4
REMARK    4  A    between atoms: C_2  and  C_5
REMARK    5  A    between atoms: C_5  and  C_6
REMARK    6  A    between atoms: C_6  and  N_7
REMARK    7  A    between atoms: C_8  and  C_10
REMARK    8  A    between atoms: C_15  and  O_16
REMARK    9  A    between atoms: O_16  and  C_17
REMARK   10  A    between atoms: C_20  and  C_21
REMARK                            x       y       z     vdW  Elec       q    Type
REMARK                         _______ _______ _______ _____ _____    ______ ____
ROOT
ATOM      1  C   UNL     1       2.277   7.613  19.062  0.00  0.00    +0.000 A 
ATOM      2  C   UNL     1       2.203   8.456  17.962  0.00  0.00    +0.000 A 
ATOM      3  C   UNL     1       1.525   9.660  18.103  0.00  0.00    +0.000 A 
ATOM      4  C   UNL     1       0.946   9.988  19.335  0.00  0.00    +0.000 A 
ATOM      5  C   UNL     1       0.270  11.206  19.529  0.00  0.00    +0.000 A 
ATOM      6  C   UNL     1      -0.286  11.509  20.772  0.00  0.00    +0.000 A 
ATOM      7  C   UNL     1      -0.220  10.567  21.796  0.00  0.00    +0.000 A 
ATOM      8  C   UNL     1       0.468   9.366  21.605  0.00  0.00    +0.000 A 
ATOM      9  C   UNL     1       1.064   9.055  20.394  0.00  0.00    +0.000 A 
ATOM     10  N   UNL     1       1.719   7.888  20.272  0.00  0.00    +0.000 NA
ENDROOT
BRANCH   1  12
ATOM     11  N   UNL     1       2.809   5.621  17.754  0.00  0.00    +0.000 N 
ATOM     12  C   UNL     1       3.012   6.314  18.936  0.00  0.00    +0.000 C 
ATOM     13  O   UNL     1       3.734   5.915  19.844  0.00  0.00    +0.000 OA
ATOM     14  H   UNL     1       2.060   5.966  17.160  0.00  0.00    +0.000 HD
BRANCH  11  15
ATOM     15  C   UNL     1       3.317   4.272  17.595  0.00  0.00    +0.000 C 
BRANCH  15  16
ATOM     16  C   UNL     1       2.211   3.216  17.639  0.00  0.00    +0.000 C 
BRANCH  16  18
ATOM     17  C   UNL     1       1.004   3.416  19.886  0.00  0.00    +0.000 C 
ATOM     18  C   UNL     1       2.003   2.612  19.046  0.00  0.00    +0.000 C 
ATOM     19  C   UNL     1       3.340   2.525  19.790  0.00  0.00    +0.000 C 
BRANCH  18  20
ATOM     20  O   UNL     1       1.501   1.282  18.893  0.00  0.00    +0.000 OA
ATOM     21  H   UNL     1       1.344   1.126  17.946  0.00  0.00    +0.000 HD
ENDBRANCH  18  20
ENDBRANCH  16  18
ENDBRANCH  15  16
ENDBRANCH  11  15
ENDBRANCH   1  12
BRANCH   6  22
ATOM     22  O   UNL     1      -0.940  12.716  20.888  0.00  0.00    +0.000 OA
BRANCH  22  23
ATOM     23  C   UNL     1      -2.317  12.697  21.078  0.00  0.00    +0.000 A 
ATOM     24  C   UNL     1      -3.101  12.545  19.945  0.00  0.00    +0.000 A 
ATOM     25  C   UNL     1      -4.487  12.504  20.102  0.00  0.00    +0.000 A 
ATOM     26  C   UNL     1      -5.045  12.625  21.379  0.00  0.00    +0.000 A 
ATOM     27  C   UNL     1      -4.175  12.796  22.445  0.00  0.00    +0.000 A 
ATOM     28  N   UNL     1      -2.832  12.849  22.321  0.00  0.00    +0.000 NA
BRANCH  26  29
ATOM     29  C   UNL     1      -6.519  12.576  21.638  0.00  0.00    +0.000 C 
ATOM     30  F   UNL     1      -7.163  13.735  21.334  0.00  0.00    +0.000 F 
ATOM     31  F   UNL     1      -7.141  11.603  20.916  0.00  0.00    +0.000 F 
ATOM     32  F   UNL     1      -6.809  12.316  22.941  0.00  0.00    +0.000 F 
ENDBRANCH  26  29
ENDBRANCH  22  23
ENDBRANCH   6  22
TORSDOF 8
ENDMDL
MODEL 7
REMARK VINA RESULT:      -7.6      6.667     11.526
REMARK  Name = 
REMARK  10 active torsions:
REMARK  status: ('A' for Active; 'I' for Inactive)
REMARK    1  A    between atoms: C_1  and  C_2
REMARK    2  A    between atoms: C_2  and  C_3
REMARK    3  A    between atoms: C_2  and  O_4
REMARK    4  A    between atoms: C_2  and  C_5
REMARK    5  A    between atoms: C_5  and  C_6
REMARK    6  A    between atoms: C_6  and  N_7
REMARK    7  A    between atoms: C_8  and  C_10
REMARK    8  A    between atoms: C_15  and  O_16
REMARK    9  A    between atoms: O_16  and  C_17
REMARK   10  A    between atoms: C_20  and  C_21
REMARK                            x       y       z     vdW  Elec       q    Type
REMARK                         _______ _______ _______ _____ _____    ______ ____
ROOT
ATOM      1  C   UNL     1       2.372   7.277  18.925  0.00  0.00    +0.000 A 
ATOM      2  C   UNL     1       2.349   8.165  17.858  0.00  0.00    +0.000 A 
ATOM      3  C   UNL     1       1.785   9.418  18.059  0.00  0.00    +0.000 A 
ATOM      4  C   UNL     1       1.265   9.749  19.317  0.00  0.00    +0.000 A 
ATOM      5  C   UNL     1       0.706  11.014  19.572  0.00  0.00    +0.000 A 
ATOM      6  C   UNL     1       0.207  11.318  20.839  0.00  0.00    +0.000 A 
ATOM      7  C   UNL     1       0.211  10.335  21.827  0.00  0.00    +0.000 A 
ATOM      8  C   UNL     1       0.784   9.086  21.574  0.00  0.00    +0.000 A 
ATOM      9  C   UNL     1       1.322   8.770  20.339  0.00  0.00    +0.000 A 
ATOM     10  N   UNL     1       1.868   7.554  20.158  0.00  0.00    +0.000 NA
ENDROOT
BRANCH   1  12
ATOM     11  N   UNL     1       4.210   5.726  19.347  0.00  0.00    +0.000 N 
ATOM     12  C   UNL     1       2.984   5.924  18.733  0.00  0.00    +0.000 C 
ATOM     13  O   UNL     1       2.412   5.071  18.062  0.00  0.00    +0.000 OA
ATOM     14  H   UNL     1       4.657   6.557  19.724  0.00  0.00    +0.000 HD
BRANCH  11  15
ATOM     15  C   UNL     1       4.982   4.527  19.079  0.00  0.00    +0.000 C 
BRANCH  15  16
ATOM     16  C   UNL     1       6.472   4.815  18.887  0.00  0.00    +0.000 C 
BRANCH  16  18
ATOM     17  C   UNL     1       7.068   6.406  16.974  0.00  0.00    +0.000 C 
ATOM     18  C   UNL     1       6.879   4.946  17.403  0.00  0.00    +0.000 C 
ATOM     19  C   UNL     1       5.830   4.284  16.503  0.00  0.00    +0.000 C 
BRANCH  18  20
ATOM     20  O   UNL     1       8.115   4.253  17.214  0.00  0.00    +0.000 OA
ATOM     21  H   UNL     1       8.333   3.794  18.044  0.00  0.00    +0.000 HD
ENDBRANCH  18  20
ENDBRANCH  16  18
ENDBRANCH  15  16
ENDBRANCH  11  15
ENDBRANCH   1  12
BRANCH   6  22
ATOM     22  O   UNL     1      -0.334  12.572  21.015  0.00  0.00    +0.000 OA
BRANCH  22  23
ATOM     23  C   UNL     1      -1.551  12.672  21.680  0.00  0.00    +0.000 A 
ATOM     24  C   UNL     1      -2.696  12.546  20.908  0.00  0.00    +0.000 A 
ATOM     25  C   UNL     1      -3.934  12.622  21.546  0.00  0.00    +0.000 A 
ATOM     26  C   UNL     1      -3.991  12.832  22.928  0.00  0.00    +0.000 A 
ATOM     27  C   UNL     1      -2.789  12.968  23.605  0.00  0.00    +0.000 A 
ATOM     28  N   UNL     1      -1.578  12.908  23.012  0.00  0.00    +0.000 NA
BRANCH  26  29
ATOM     29  C   UNL     1      -5.276  12.912  23.693  0.00  0.00    +0.000 C 
ATOM     30  F   UNL     1      -5.601  14.176  24.079  0.00  0.00    +0.000 F 
ATOM     31  F   UNL     1      -6.338  12.457  22.973  0.00  0.00    +0.000 F 
ATOM     32  F   UNL     1      -5.250  12.167  24.832  0.00  0.00    +0.000 F 
ENDBRANCH  26  29
ENDBRANCH  22  23
ENDBRANCH   6  22
TORSDOF 8
ENDMDL
MODEL 8
REMARK VINA RESULT:      -7.6      6.605     11.500
REMARK  Name = 
REMARK  10 active torsions:
REMARK  status: ('A' for Active; 'I' for Inactive)
REMARK    1  A    between atoms: C_1  and  C_2
REMARK    2  A    between atoms: C_2  and  C_3
REMARK    3  A    between atoms: C_2  and  O_4
REMARK    4  A    between atoms: C_2  and  C_5
REMARK    5  A    between atoms: C_5  and  C_6
REMARK    6  A    between atoms: C_6  and  N_7
REMARK    7  A    between atoms: C_8  and  C_10
REMARK    8  A    between atoms: C_15  and  O_16
REMARK    9  A    between atoms: O_16  and  C_17
REMARK   10  A    between atoms: C_20  and  C_21
REMARK                            x       y       z     vdW  Elec       q    Type
REMARK                         _______ _______ _______ _____ _____    ______ ____
ROOT
ATOM      1  C   UNL     1       2.549   7.382  18.914  0.00  0.00    +0.000 A 
ATOM      2  C   UNL     1       2.556   8.217  17.805  0.00  0.00    +0.000 A 
ATOM      3  C   UNL     1       1.859   9.416  17.883  0.00  0.00    +0.000 A 
ATOM      4  C   UNL     1       1.184   9.748  19.064  0.00  0.00    +0.000 A 
ATOM      5  C   UNL     1       0.486  10.963  19.196  0.00  0.00    +0.000 A 
ATOM      6  C   UNL     1      -0.167  11.270  20.390  0.00  0.00    +0.000 A 
ATOM      7  C   UNL     1      -0.175  10.335  21.423  0.00  0.00    +0.000 A 
ATOM      8  C   UNL     1       0.534   9.139  21.294  0.00  0.00    +0.000 A 
ATOM      9  C   UNL     1       1.225   8.824  20.137  0.00  0.00    +0.000 A 
ATOM     10  N   UNL     1       1.897   7.661  20.075  0.00  0.00    +0.000 NA
ENDROOT
BRANCH   1  12
ATOM     11  N   UNL     1       3.745   5.707  17.600  0.00  0.00    +0.000 N 
ATOM     12  C   UNL     1       3.301   6.088  18.855  0.00  0.00    +0.000 C 
ATOM     13  O   UNL     1       3.487   5.429  19.873  0.00  0.00    +0.000 OA
ATOM     14  H   UNL     1       3.379   6.245  16.817  0.00  0.00    +0.000 HD
BRANCH  11  15
ATOM     15  C   UNL     1       4.318   4.392  17.389  0.00  0.00    +0.000 C 
BRANCH  15  16
ATOM     16  C   UNL     1       4.990   4.252  16.021  0.00  0.00    +0.000 C 
BRANCH  16  18
ATOM     17  C   UNL     1       7.033   4.792  14.579  0.00  0.00    +0.000 C 
ATOM     18  C   UNL     1       6.325   5.022  15.920  0.00  0.00    +0.000 C 
ATOM     19  C   UNL     1       7.260   4.620  17.065  0.00  0.00    +0.000 C 
BRANCH  18  20
ATOM     20  O   UNL     1       6.048   6.418  16.053  0.00  0.00    +0.000 OA
ATOM     21  H   UNL     1       6.424   6.721  16.898  0.00  0.00    +0.000 HD
ENDBRANCH  18  20
ENDBRANCH  16  18
ENDBRANCH  15  16
ENDBRANCH  11  15
ENDBRANCH   1  12
BRANCH   6  22
ATOM     22  O   UNL     1      -0.838  12.472  20.446  0.00  0.00    +0.000 OA
BRANCH  22  23
ATOM     23  C   UNL     1      -1.948  12.563  21.277  0.00  0.00    +0.000 A 
ATOM     24  C   UNL     1      -1.704  12.609  22.641  0.00  0.00    +0.000 A 
ATOM     25  C   UNL     1      -2.795  12.719  23.504  0.00  0.00    +0.000 A 
ATOM     26  C   UNL     1      -4.091  12.770  22.981  0.00  0.00    +0.000 A 
ATOM     27  C   UNL     1      -4.230  12.694  21.603  0.00  0.00    +0.000 A 
ATOM     28  N   UNL     1      -3.193  12.577  20.746  0.00  0.00    +0.000 NA
BRANCH  26  29
ATOM     29  C   UNL     1      -5.315  12.903  23.833  0.00  0.00    +0.000 C 
ATOM     30  F   UNL     1      -5.617  14.190  24.154  0.00  0.00    +0.000 F 
ATOM     31  F   UNL     1      -6.425  12.398  23.228  0.00  0.00    +0.000 F 
ATOM     32  F   UNL     1      -5.200  12.239  25.015  0.00  0.00    +0.000 F 
ENDBRANCH  26  29
ENDBRANCH  22  23
ENDBRANCH   6  22
TORSDOF 8
ENDMDL
MODEL 9
REMARK VINA RESULT:      -7.6      5.590     10.701
REMARK  Name = 
REMARK  10 active torsions:
REMARK  status: ('A' for Active; 'I' for Inactive)
REMARK    1  A    between atoms: C_1  and  C_2
REMARK    2  A    between atoms: C_2  and  C_3
REMARK    3  A    between atoms: C_2  and  O_4
REMARK    4  A    between atoms: C_2  and  C_5
REMARK    5  A    between atoms: C_5  and  C_6
REMARK    6  A    between atoms: C_6  and  N_7
REMARK    7  A    between atoms: C_8  and  C_10
REMARK    8  A    between atoms: C_15  and  O_16
REMARK    9  A    between atoms: O_16  and  C_17
REMARK   10  A    between atoms: C_20  and  C_21
REMARK                            x       y       z     vdW  Elec       q    Type
REMARK                         _______ _______ _______ _____ _____    ______ ____
ROOT
ATOM      1  C   UNL     1       2.549   7.188  19.300  0.00  0.00    +0.000 A 
ATOM      2  C   UNL     1       2.594   7.765  18.038  0.00  0.00    +0.000 A 
ATOM      3  C   UNL     1       1.832   8.904  17.810  0.00  0.00    +0.000 A 
ATOM      4  C   UNL     1       1.054   9.434  18.847  0.00  0.00    +0.000 A 
ATOM      5  C   UNL     1       0.286  10.599  18.668  0.00  0.00    +0.000 A 
ATOM      6  C   UNL     1      -0.470  11.110  19.723  0.00  0.00    +0.000 A 
ATOM      7  C   UNL     1      -0.506  10.419  20.933  0.00  0.00    +0.000 A 
ATOM      8  C   UNL     1       0.272   9.273  21.112  0.00  0.00    +0.000 A 
ATOM      9  C   UNL     1       1.063   8.765  20.095  0.00  0.00    +0.000 A 
ATOM     10  N   UNL     1       1.797   7.664  20.329  0.00  0.00    +0.000 NA
ENDROOT
BRANCH   1  12
ATOM     11  N   UNL     1       4.627   5.944  18.992  0.00  0.00    +0.000 N 
ATOM     12  C   UNL     1       3.369   5.964  19.570  0.00  0.00    +0.000 C 
ATOM     13  O   UNL     1       2.921   5.053  20.258  0.00  0.00    +0.000 OA
ATOM     14  H   UNL     1       4.813   6.673  18.306  0.00  0.00    +0.000 HD
BRANCH  11  15
ATOM     15  C   UNL     1       5.435   4.740  19.028  0.00  0.00    +0.000 C 
BRANCH  15  16
ATOM     16  C   UNL     1       6.506   4.715  17.936  0.00  0.00    +0.000 C 
BRANCH  16  18
ATOM     17  C   UNL     1       4.724   3.943  16.271  0.00  0.00    +0.000 C 
ATOM     18  C   UNL     1       5.926   4.863  16.512  0.00  0.00    +0.000 C 
ATOM     19  C   UNL     1       7.006   4.574  15.464  0.00  0.00    +0.000 C 
BRANCH  18  20
ATOM     20  O   UNL     1       5.504   6.218  16.340  0.00  0.00    +0.000 OA
ATOM     21  H   UNL     1       6.237   6.799  16.608  0.00  0.00    +0.000 HD
ENDBRANCH  18  20
ENDBRANCH  16  18
ENDBRANCH  15  16
ENDBRANCH  11  15
ENDBRANCH   1  12
BRANCH   6  22
ATOM     22  O   UNL     1      -1.205  12.248  19.475  0.00  0.00    +0.000 OA
BRANCH  22  23
ATOM     23  C   UNL     1      -2.580  12.118  19.318  0.00  0.00    +0.000 A 
ATOM     24  C   UNL     1      -3.017  11.394  18.219  0.00  0.00    +0.000 A 
ATOM     25  C   UNL     1      -4.390  11.228  18.041  0.00  0.00    +0.000 A 
ATOM     26  C   UNL     1      -5.283  11.796  18.957  0.00  0.00    +0.000 A 
ATOM     27  C   UNL     1      -4.745  12.522  20.009  0.00  0.00    +0.000 A 
ATOM     28  N   UNL     1      -3.421  12.706  20.200  0.00  0.00    +0.000 NA
BRANCH  26  29
ATOM     29  C   UNL     1      -6.769  11.655  18.849  0.00  0.00    +0.000 C 
ATOM     30  F   UNL     1      -7.363  12.666  18.160  0.00  0.00    +0.000 F 
ATOM     31  F   UNL     1      -7.137  10.506  18.218  0.00  0.00    +0.000 F 
ATOM     32  F   UNL     1      -7.377  11.622  20.066  0.00  0.00    +0.000 F 
ENDBRANCH  26  29
ENDBRANCH  22  23
ENDBRANCH   6  22
TORSDOF 8
ENDMDL
