MODEL 1
REMARK VINA RESULT:      -6.7      0.000      0.000
REMARK  Name = 
REMARK  6 active torsions:
REMARK  status: ('A' for Active; 'I' for Inactive)
REMARK    1  A    between atoms: C_1  and  C_2
REMARK    2  A    between atoms: C_2  and  O_3
REMARK    3  A    between atoms: O_3  and  C_4
REMARK    4  A    between atoms: C_4  and  C_6
REMARK    5  A    between atoms: C_6  and  N_7
REMARK    6  A    between atoms: C_11  and  C_12
REMARK                            x       y       z     vdW  Elec       q    Type
REMARK                         _______ _______ _______ _____ _____    ______ ____
ROOT
ATOM      1  N   UNL     1       6.361   4.381  17.324  0.00  0.00    +0.000 N 
ATOM      2  C   UNL     1       7.546   4.908  17.771  0.00  0.00    +0.000 A 
ATOM      3  N   UNL     1       7.428   5.414  18.973  0.00  0.00    +0.000 NA
ATOM      4  C   UNL     1       6.127   5.167  19.331  0.00  0.00    +0.000 A 
ATOM      5  C   UNL     1       5.425   4.507  18.336  0.00  0.00    +0.000 A 
ENDROOT
BRANCH   5   6
ATOM      6  C   UNL     1       4.027   4.065  18.319  0.00  0.00    +0.000 A 
ATOM      7  C   UNL     1       3.689   2.805  18.837  0.00  0.00    +0.000 A 
ATOM      8  C   UNL     1       2.368   2.346  18.807  0.00  0.00    +0.000 A 
ATOM      9  C   UNL     1       1.362   3.145  18.274  0.00  0.00    +0.000 A 
ATOM     10  C   UNL     1       1.679   4.393  17.748  0.00  0.00    +0.000 A 
ATOM     11  C   UNL     1       3.005   4.836  17.752  0.00  0.00    +0.000 A 
ENDBRANCH   5   6
BRANCH   1  12
ATOM     12  C   UNL     1       6.187   3.852  15.988  0.00  0.00    +0.000 C 
BRANCH  12  13
ATOM     13  C   UNL     1       5.677   4.899  15.035  0.00  0.00    +0.000 C 
ATOM     14  O   UNL     1       5.590   6.098  15.260  0.00  0.00    +0.000 OA
BRANCH  13  15
ATOM     15  O   UNL     1       5.253   4.295  13.886  0.00  0.00    +0.000 OA
BRANCH  15  17
ATOM     16  C   UNL     1       5.669   2.965  11.950  0.00  0.00    +0.000 C 
ATOM     17  C   UNL     1       6.308   3.780  13.059  0.00  0.00    +0.000 C 
ENDBRANCH  15  17
ENDBRANCH  13  15
ENDBRANCH  12  13
ENDBRANCH   1  12
TORSDOF 5
ENDMDL
MODEL 2
REMARK VINA RESULT:      -6.7      0.344      1.173
REMARK  Name = 
REMARK  6 active torsions:
REMARK  status: ('A' for Active; 'I' for Inactive)
REMARK    1  A    between atoms: C_1  and  C_2
REMARK    2  A    between atoms: C_2  and  O_3
REMARK    3  A    between atoms: O_3  and  C_4
REMARK    4  A    between atoms: C_4  and  C_6
REMARK    5  A    between atoms: C_6  and  N_7
REMARK    6  A    between atoms: C_11  and  C_12
REMARK                            x       y       z     vdW  Elec       q    Type
REMARK                         _______ _______ _______ _____ _____    ______ ____
ROOT
ATOM      1  N   UNL     1       6.527   4.496  17.319  0.00  0.00    +0.000 N 
ATOM      2  C   UNL     1       7.683   4.979  17.877  0.00  0.00    +0.000 A 
ATOM      3  N   UNL     1       7.485   5.420  19.093  0.00  0.00    +0.000 NA
ATOM      4  C   UNL     1       6.160   5.173  19.345  0.00  0.00    +0.000 A 
ATOM      5  C   UNL     1       5.523   4.579  18.267  0.00  0.00    +0.000 A 
ENDROOT
BRANCH   5   6
ATOM      6  C   UNL     1       4.125   4.160  18.126  0.00  0.00    +0.000 A 
ATOM      7  C   UNL     1       3.120   5.129  17.979  0.00  0.00    +0.000 A 
ATOM      8  C   UNL     1       1.775   4.759  17.871  0.00  0.00    +0.000 A 
ATOM      9  C   UNL     1       1.415   3.415  17.893  0.00  0.00    +0.000 A 
ATOM     10  C   UNL     1       2.397   2.442  18.046  0.00  0.00    +0.000 A 
ATOM     11  C   UNL     1       3.736   2.816  18.184  0.00  0.00    +0.000 A 
ENDBRANCH   5   6
BRANCH   1  12
ATOM     12  C   UNL     1       6.443   4.044  15.946  0.00  0.00    +0.000 C 
BRANCH  12  13
ATOM     13  C   UNL     1       5.749   5.051  15.068  0.00  0.00    +0.000 C 
ATOM     14  O   UNL     1       5.597   6.239  15.315  0.00  0.00    +0.000 OA
BRANCH  13  15
ATOM     15  O   UNL     1       5.244   4.418  13.969  0.00  0.00    +0.000 OA
BRANCH  15  17
ATOM     16  C   UNL     1       5.527   3.158  11.963  0.00  0.00    +0.000 C 
ATOM     17  C   UNL     1       6.206   3.653  13.227  0.00  0.00    +0.000 C 
ENDBRANCH  15  17
ENDBRANCH  13  15
ENDBRANCH  12  13
ENDBRANCH   1  12
TORSDOF 5
ENDMDL
MODEL 3
REMARK VINA RESULT:      -6.6      2.828      4.015
REMARK  Name = 
REMARK  6 active torsions:
REMARK  status: ('A' for Active; 'I' for Inactive)
REMARK    1  A    between atoms: C_1  and  C_2
REMARK    2  A    between atoms: C_2  and  O_3
REMARK    3  A    between atoms: O_3  and  C_4
REMARK    4  A    between atoms: C_4  and  C_6
REMARK    5  A    between atoms: C_6  and  N_7
REMARK    6  A    between atoms: C_11  and  C_12
REMARK                            x       y       z     vdW  Elec       q    Type
REMARK                         _______ _______ _______ _____ _____    ______ ____
ROOT
ATOM      1  N   UNL     1       3.868   5.950  17.744  0.00  0.00    +0.000 N 
ATOM      2  C   UNL     1       4.035   7.219  17.252  0.00  0.00    +0.000 A 
ATOM      3  N   UNL     1       3.126   8.041  17.715  0.00  0.00    +0.000 NA
ATOM      4  C   UNL     1       2.370   7.281  18.571  0.00  0.00    +0.000 A 
ATOM      5  C   UNL     1       2.809   5.969  18.635  0.00  0.00    +0.000 A 
ENDROOT
BRANCH   5   6
ATOM      6  C   UNL     1       2.282   4.846  19.418  0.00  0.00    +0.000 A 
ATOM      7  C   UNL     1       1.419   3.920  18.813  0.00  0.00    +0.000 A 
ATOM      8  C   UNL     1       0.879   2.857  19.543  0.00  0.00    +0.000 A 
ATOM      9  C   UNL     1       1.205   2.693  20.886  0.00  0.00    +0.000 A 
ATOM     10  C   UNL     1       2.052   3.606  21.504  0.00  0.00    +0.000 A 
ATOM     11  C   UNL     1       2.566   4.685  20.780  0.00  0.00    +0.000 A 
ENDBRANCH   5   6
BRANCH   1  12
ATOM     12  C   UNL     1       4.672   4.826  17.314  0.00  0.00    +0.000 C 
BRANCH  12  13
ATOM     13  C   UNL     1       5.840   4.589  18.234  0.00  0.00    +0.000 C 
ATOM     14  O   UNL     1       5.794   4.063  19.337  0.00  0.00    +0.000 OA
BRANCH  13  15
ATOM     15  O   UNL     1       6.968   5.122  17.677  0.00  0.00    +0.000 OA
BRANCH  15  17
ATOM     16  C   UNL     1       7.654   7.406  17.620  0.00  0.00    +0.000 C 
ATOM     17  C   UNL     1       7.595   6.145  18.463  0.00  0.00    +0.000 C 
ENDBRANCH  15  17
ENDBRANCH  13  15
ENDBRANCH  12  13
ENDBRANCH   1  12
TORSDOF 5
ENDMDL
MODEL 4
REMARK VINA RESULT:      -6.5      1.080      1.101
REMARK  Name = 
REMARK  6 active torsions:
REMARK  status: ('A' for Active; 'I' for Inactive)
REMARK    1  A    between atoms: C_1  and  C_2
REMARK    2  A    between atoms: C_2  and  O_3
REMARK    3  A    between atoms: O_3  and  C_4
REMARK    4  A    between atoms: C_4  and  C_6
REMARK    5  A    between atoms: C_6  and  N_7
REMARK    6  A    between atoms: C_11  and  C_12
REMARK                            x       y       z     vdW  Elec       q    Type
REMARK                         _______ _______ _______ _____ _____    ______ ____
ROOT
ATOM      1  N   UNL     1       6.180   5.581  17.120  0.00  0.00    +0.000 N 
ATOM      2  C   UNL     1       7.360   6.050  17.638  0.00  0.00    +0.000 A 
ATOM      3  N   UNL     1       7.401   5.925  18.940  0.00  0.00    +0.000 NA
ATOM      4  C   UNL     1       6.218   5.313  19.271  0.00  0.00    +0.000 A 
ATOM      5  C   UNL     1       5.429   5.064  18.160  0.00  0.00    +0.000 A 
ENDROOT
BRANCH   5   6
ATOM      6  C   UNL     1       4.105   4.436  18.079  0.00  0.00    +0.000 A 
ATOM      7  C   UNL     1       4.002   3.038  18.009  0.00  0.00    +0.000 A 
ATOM      8  C   UNL     1       2.755   2.414  17.902  0.00  0.00    +0.000 A 
ATOM      9  C   UNL     1       1.591   3.176  17.881  0.00  0.00    +0.000 A 
ATOM     10  C   UNL     1       1.675   4.562  17.941  0.00  0.00    +0.000 A 
ATOM     11  C   UNL     1       2.924   5.185  18.017  0.00  0.00    +0.000 A 
ENDBRANCH   5   6
BRANCH   1  12
ATOM     12  C   UNL     1       5.833   5.696  15.719  0.00  0.00    +0.000 C 
BRANCH  12  13
ATOM     13  C   UNL     1       6.839   5.007  14.836  0.00  0.00    +0.000 C 
ATOM     14  O   UNL     1       7.880   5.491  14.417  0.00  0.00    +0.000 OA
BRANCH  13  15
ATOM     15  O   UNL     1       6.376   3.765  14.509  0.00  0.00    +0.000 OA
BRANCH  15  17
ATOM     16  C   UNL     1       6.334   3.348  12.161  0.00  0.00    +0.000 C 
ATOM     17  C   UNL     1       5.503   3.735  13.371  0.00  0.00    +0.000 C 
ENDBRANCH  15  17
ENDBRANCH  13  15
ENDBRANCH  12  13
ENDBRANCH   1  12
TORSDOF 5
ENDMDL
MODEL 5
REMARK VINA RESULT:      -6.4      2.963      4.117
REMARK  Name = 
REMARK  6 active torsions:
REMARK  status: ('A' for Active; 'I' for Inactive)
REMARK    1  A    between atoms: C_1  and  C_2
REMARK    2  A    between atoms: C_2  and  O_3
REMARK    3  A    between atoms: O_3  and  C_4
REMARK    4  A    between atoms: C_4  and  C_6
REMARK    5  A    between atoms: C_6  and  N_7
REMARK    6  A    between atoms: C_11  and  C_12
REMARK                            x       y       z     vdW  Elec       q    Type
REMARK                         _______ _______ _______ _____ _____    ______ ____
ROOT
ATOM      1  N   UNL     1       4.036   5.996  17.931  0.00  0.00    +0.000 N 
ATOM      2  C   UNL     1       4.179   7.228  17.346  0.00  0.00    +0.000 A 
ATOM      3  N   UNL     1       3.126   7.981  17.542  0.00  0.00    +0.000 NA
ATOM      4  C   UNL     1       2.290   7.221  18.319  0.00  0.00    +0.000 A 
ATOM      5  C   UNL     1       2.826   5.975  18.602  0.00  0.00    +0.000 A 
ENDROOT
BRANCH   5   6
ATOM      6  C   UNL     1       2.260   4.874  19.389  0.00  0.00    +0.000 A 
ATOM      7  C   UNL     1       2.614   4.731  20.739  0.00  0.00    +0.000 A 
ATOM      8  C   UNL     1       2.113   3.674  21.506  0.00  0.00    +0.000 A 
ATOM      9  C   UNL     1       1.237   2.754  20.940  0.00  0.00    +0.000 A 
ATOM     10  C   UNL     1       0.881   2.875  19.601  0.00  0.00    +0.000 A 
ATOM     11  C   UNL     1       1.408   3.914  18.830  0.00  0.00    +0.000 A 
ENDBRANCH   5   6
BRANCH   1  12
ATOM     12  C   UNL     1       5.008   4.934  17.780  0.00  0.00    +0.000 C 
BRANCH  12  13
ATOM     13  C   UNL     1       6.237   5.178  18.615  0.00  0.00    +0.000 C 
ATOM     14  O   UNL     1       6.343   4.979  19.816  0.00  0.00    +0.000 OA
BRANCH  13  15
ATOM     15  O   UNL     1       7.210   5.731  17.833  0.00  0.00    +0.000 OA
BRANCH  15  17
ATOM     16  C   UNL     1       7.799   8.030  17.595  0.00  0.00    +0.000 C 
ATOM     17  C   UNL     1       7.947   6.791  18.459  0.00  0.00    +0.000 C 
ENDBRANCH  15  17
ENDBRANCH  13  15
ENDBRANCH  12  13
ENDBRANCH   1  12
TORSDOF 5
ENDMDL
MODEL 6
REMARK VINA RESULT:      -6.3      2.105      2.661
REMARK  Name = 
REMARK  6 active torsions:
REMARK  status: ('A' for Active; 'I' for Inactive)
REMARK    1  A    between atoms: C_1  and  C_2
REMARK    2  A    between atoms: C_2  and  O_3
REMARK    3  A    between atoms: O_3  and  C_4
REMARK    4  A    between atoms: C_4  and  C_6
REMARK    5  A    between atoms: C_6  and  N_7
REMARK    6  A    between atoms: C_11  and  C_12
REMARK                            x       y       z     vdW  Elec       q    Type
REMARK                         _______ _______ _______ _____ _____    ______ ____
ROOT
ATOM      1  N   UNL     1       4.701   5.568  18.041  0.00  0.00    +0.000 N 
ATOM      2  C   UNL     1       5.071   6.720  17.395  0.00  0.00    +0.000 A 
ATOM      3  N   UNL     1       4.068   7.553  17.279  0.00  0.00    +0.000 NA
ATOM      4  C   UNL     1       3.021   6.933  17.913  0.00  0.00    +0.000 A 
ATOM      5  C   UNL     1       3.375   5.694  18.420  0.00  0.00    +0.000 A 
ENDROOT
BRANCH   5   6
ATOM      6  C   UNL     1       2.561   4.720  19.155  0.00  0.00    +0.000 A 
ATOM      7  C   UNL     1       2.650   4.654  20.554  0.00  0.00    +0.000 A 
ATOM      8  C   UNL     1       1.907   3.716  21.278  0.00  0.00    +0.000 A 
ATOM      9  C   UNL     1       1.051   2.841  20.617  0.00  0.00    +0.000 A 
ATOM     10  C   UNL     1       0.956   2.887  19.231  0.00  0.00    +0.000 A 
ATOM     11  C   UNL     1       1.722   3.805  18.507  0.00  0.00    +0.000 A 
ENDBRANCH   5   6
BRANCH   1  12
ATOM     12  C   UNL     1       5.589   4.438  18.209  0.00  0.00    +0.000 C 
BRANCH  12  13
ATOM     13  C   UNL     1       6.631   4.380  17.125  0.00  0.00    +0.000 C 
ATOM     14  O   UNL     1       7.813   4.671  17.245  0.00  0.00    +0.000 OA
BRANCH  13  15
ATOM     15  O   UNL     1       6.039   4.017  15.949  0.00  0.00    +0.000 OA
BRANCH  15  17
ATOM     16  C   UNL     1       6.077   3.814  13.573  0.00  0.00    +0.000 C 
ATOM     17  C   UNL     1       6.703   4.501  14.773  0.00  0.00    +0.000 C 
ENDBRANCH  15  17
ENDBRANCH  13  15
ENDBRANCH  12  13
ENDBRANCH   1  12
TORSDOF 5
ENDMDL
MODEL 7
REMARK VINA RESULT:      -6.3      2.029      2.575
REMARK  Name = 
REMARK  6 active torsions:
REMARK  status: ('A' for Active; 'I' for Inactive)
REMARK    1  A    between atoms: C_1  and  C_2
REMARK    2  A    between atoms: C_2  and  O_3
REMARK    3  A    between atoms: O_3  and  C_4
REMARK    4  A    between atoms: C_4  and  C_6
REMARK    5  A    between atoms: C_6  and  N_7
REMARK    6  A    between atoms: C_11  and  C_12
REMARK                            x       y       z     vdW  Elec       q    Type
REMARK                         _______ _______ _______ _____ _____    ______ ____
ROOT
ATOM      1  N   UNL     1       4.535   5.445  17.760  0.00  0.00    +0.000 N 
ATOM      2  C   UNL     1       4.890   6.629  17.166  0.00  0.00    +0.000 A 
ATOM      3  N   UNL     1       3.963   7.541  17.312  0.00  0.00    +0.000 NA
ATOM      4  C   UNL     1       2.989   6.934  18.065  0.00  0.00    +0.000 A 
ATOM      5  C   UNL     1       3.313   5.626  18.383  0.00  0.00    +0.000 A 
ENDROOT
BRANCH   5   6
ATOM      6  C   UNL     1       2.553   4.641  19.160  0.00  0.00    +0.000 A 
ATOM      7  C   UNL     1       1.712   3.732  18.500  0.00  0.00    +0.000 A 
ATOM      8  C   UNL     1       0.954   2.801  19.217  0.00  0.00    +0.000 A 
ATOM      9  C   UNL     1       1.037   2.753  20.605  0.00  0.00    +0.000 A 
ATOM     10  C   UNL     1       1.859   3.651  21.277  0.00  0.00    +0.000 A 
ATOM     11  C   UNL     1       2.591   4.600  20.560  0.00  0.00    +0.000 A 
ENDBRANCH   5   6
BRANCH   1  12
ATOM     12  C   UNL     1       5.333   4.241  17.659  0.00  0.00    +0.000 C 
BRANCH  12  13
ATOM     13  C   UNL     1       6.367   4.347  16.570  0.00  0.00    +0.000 C 
ATOM     14  O   UNL     1       7.529   4.699  16.712  0.00  0.00    +0.000 OA
BRANCH  13  15
ATOM     15  O   UNL     1       5.789   4.053  15.369  0.00  0.00    +0.000 OA
BRANCH  15  17
ATOM     16  C   UNL     1       6.062   3.620  13.039  0.00  0.00    +0.000 C 
ATOM     17  C   UNL     1       6.574   4.418  14.224  0.00  0.00    +0.000 C 
ENDBRANCH  15  17
ENDBRANCH  13  15
ENDBRANCH  12  13
ENDBRANCH   1  12
TORSDOF 5
ENDMDL
MODEL 8
REMARK VINA RESULT:      -6.3      2.498      3.213
REMARK  Name = 
REMARK  6 active torsions:
REMARK  status: ('A' for Active; 'I' for Inactive)
REMARK    1  A    between atoms: C_1  and  C_2
REMARK    2  A    between atoms: C_2  and  O_3
REMARK    3  A    between atoms: O_3  and  C_4
REMARK    4  A    between atoms: C_4  and  C_6
REMARK    5  A    between atoms: C_6  and  N_7
REMARK    6  A    between atoms: C_11  and  C_12
REMARK                            x       y       z     vdW  Elec       q    Type
REMARK                         _______ _______ _______ _____ _____    ______ ____
ROOT
ATOM      1  N   UNL     1       3.734   5.888  17.680  0.00  0.00    +0.000 N 
ATOM      2  C   UNL     1       3.970   7.162  17.231  0.00  0.00    +0.000 A 
ATOM      3  N   UNL     1       3.190   8.034  17.817  0.00  0.00    +0.000 NA
ATOM      4  C   UNL     1       2.451   7.300  18.710  0.00  0.00    +0.000 A 
ATOM      5  C   UNL     1       2.770   5.953  18.670  0.00  0.00    +0.000 A 
ENDROOT
BRANCH   5   6
ATOM      6  C   UNL     1       2.217   4.841  19.452  0.00  0.00    +0.000 A 
ATOM      7  C   UNL     1       2.577   4.692  20.800  0.00  0.00    +0.000 A 
ATOM      8  C   UNL     1       2.088   3.625  21.561  0.00  0.00    +0.000 A 
ATOM      9  C   UNL     1       1.219   2.700  20.991  0.00  0.00    +0.000 A 
ATOM     10  C   UNL     1       0.859   2.827  19.654  0.00  0.00    +0.000 A 
ATOM     11  C   UNL     1       1.373   3.876  18.888  0.00  0.00    +0.000 A 
ENDBRANCH   5   6
BRANCH   1  12
ATOM     12  C   UNL     1       4.386   4.722  17.122  0.00  0.00    +0.000 C 
BRANCH  12  13
ATOM     13  C   UNL     1       5.770   4.533  17.684  0.00  0.00    +0.000 C 
ATOM     14  O   UNL     1       6.085   4.604  18.863  0.00  0.00    +0.000 OA
BRANCH  13  15
ATOM     15  O   UNL     1       6.649   4.336  16.658  0.00  0.00    +0.000 OA
BRANCH  15  17
ATOM     16  C   UNL     1       6.407   3.998  14.309  0.00  0.00    +0.000 C 
ATOM     17  C   UNL     1       6.301   5.007  15.438  0.00  0.00    +0.000 C 
ENDBRANCH  15  17
ENDBRANCH  13  15
ENDBRANCH  12  13
ENDBRANCH   1  12
TORSDOF 5
ENDMDL
MODEL 9
REMARK VINA RESULT:      -6.2      2.507      3.359
REMARK  Name = 
REMARK  6 active torsions:
REMARK  status: ('A' for Active; 'I' for Inactive)
REMARK    1  A    between atoms: C_1  and  C_2
REMARK    2  A    between atoms: C_2  and  O_3
REMARK    3  A    between atoms: O_3  and  C_4
REMARK    4  A    between atoms: C_4  and  C_6
REMARK    5  A    between atoms: C_6  and  N_7
REMARK    6  A    between atoms: C_11  and  C_12
REMARK                            x       y       z     vdW  Elec       q    Type
REMARK                         _______ _______ _______ _____ _____    ______ ____
ROOT
ATOM      1  N   UNL     1       3.812   5.868  17.771  0.00  0.00    +0.000 N 
ATOM      2  C   UNL     1       3.998   7.133  17.278  0.00  0.00    +0.000 A 
ATOM      3  N   UNL     1       3.143   7.983  17.789  0.00  0.00    +0.000 NA
ATOM      4  C   UNL     1       2.403   7.244  18.678  0.00  0.00    +0.000 A 
ATOM      5  C   UNL     1       2.799   5.917  18.713  0.00  0.00    +0.000 A 
ENDROOT
BRANCH   5   6
ATOM      6  C   UNL     1       2.272   4.808  19.516  0.00  0.00    +0.000 A 
ATOM      7  C   UNL     1       1.363   3.905  18.943  0.00  0.00    +0.000 A 
ATOM      8  C   UNL     1       0.823   2.856  19.693  0.00  0.00    +0.000 A 
ATOM      9  C   UNL     1       1.194   2.683  21.023  0.00  0.00    +0.000 A 
ATOM     10  C   UNL     1       2.086   3.574  21.610  0.00  0.00    +0.000 A 
ATOM     11  C   UNL     1       2.601   4.639  20.866  0.00  0.00    +0.000 A 
ENDBRANCH   5   6
BRANCH   1  12
ATOM     12  C   UNL     1       4.554   4.719  17.296  0.00  0.00    +0.000 C 
BRANCH  12  13
ATOM     13  C   UNL     1       5.956   4.694  17.844  0.00  0.00    +0.000 C 
ATOM     14  O   UNL     1       6.278   4.399  18.986  0.00  0.00    +0.000 OA
BRANCH  13  15
ATOM     15  O   UNL     1       6.823   5.124  16.882  0.00  0.00    +0.000 OA
BRANCH  15  17
ATOM     16  C   UNL     1       6.839   4.933  14.504  0.00  0.00    +0.000 C 
ATOM     17  C   UNL     1       7.039   4.191  15.813  0.00  0.00    +0.000 C 
ENDBRANCH  15  17
ENDBRANCH  13  15
ENDBRANCH  12  13
ENDBRANCH   1  12
TORSDOF 5
ENDMDL
