MODEL 1
REMARK VINA RESULT:      -7.4      0.000      0.000
REMARK  Name = 
REMARK  8 active torsions:
REMARK  status: ('A' for Active; 'I' for Inactive)
REMARK    1  A    between atoms: C_1  and  C_2
REMARK    2  A    between atoms: C_2  and  C_3
REMARK    3  A    between atoms: C_2  and  C_4
REMARK    4  A    between atoms: C_4  and  C_6
REMARK    5  A    between atoms: C_10  and  C_11
REMARK    6  A    between atoms: C_11  and  C_12
REMARK    7  A    between atoms: C_11  and  C_13
REMARK    8  A    between atoms: C_13  and  O_15
REMARK                            x       y       z     vdW  Elec       q    Type
REMARK                         _______ _______ _______ _____ _____    ______ ____
ROOT
ATOM      1  C   UNL     1       2.683   4.917  18.075  0.00  0.00    +0.000 A 
ATOM      2  C   UNL     1       2.687   6.310  18.169  0.00  0.00    +0.000 A 
ATOM      3  C   UNL     1       3.695   7.044  17.538  0.00  0.00    +0.000 A 
ATOM      4  C   UNL     1       4.705   6.398  16.814  0.00  0.00    +0.000 A 
ATOM      5  C   UNL     1       4.730   5.000  16.726  0.00  0.00    +0.000 A 
ATOM      6  C   UNL     1       3.704   4.275  17.357  0.00  0.00    +0.000 A 
ENDROOT
BRANCH   1   7
ATOM      7  C   UNL     1       1.606   4.057  18.658  0.00  0.00    +0.000 C 
ATOM      8  O   UNL     1       1.024   3.282  17.898  0.00  0.00    +0.000 OA
BRANCH   7  10
ATOM      9  C   UNL     1       1.141   2.727  20.729  0.00  0.00    +0.000 C 
ATOM     10  C   UNL     1       1.256   4.141  20.145  0.00  0.00    +0.000 C 
ATOM     11  C   UNL     1       2.318   4.918  20.921  0.00  0.00    +0.000 C 
ENDBRANCH   7  10
ENDBRANCH   1   7
BRANCH   5  12
ATOM     12  C   UNL     1       5.772   4.247  15.912  0.00  0.00    +0.000 C 
ATOM     13  C   UNL     1       5.421   4.308  14.425  0.00  0.00    +0.000 C 
BRANCH  12  14
ATOM     14  C   UNL     1       7.211   4.698  16.153  0.00  0.00    +0.000 C 
ATOM     15  O   UNL     1       7.846   4.499  17.176  0.00  0.00    +0.000 OA
BRANCH  14  16
ATOM     16  O   UNL     1       7.738   5.396  15.115  0.00  0.00    +0.000 OA
ATOM     17  H   UNL     1       8.136   4.830  14.427  0.00  0.00    +0.000 HD
ENDBRANCH  14  16
ENDBRANCH  12  14
ENDBRANCH   5  12
TORSDOF 5
ENDMDL
MODEL 2
REMARK VINA RESULT:      -7.4      0.847      1.288
REMARK  Name = 
REMARK  8 active torsions:
REMARK  status: ('A' for Active; 'I' for Inactive)
REMARK    1  A    between atoms: C_1  and  C_2
REMARK    2  A    between atoms: C_2  and  C_3
REMARK    3  A    between atoms: C_2  and  C_4
REMARK    4  A    between atoms: C_4  and  C_6
REMARK    5  A    between atoms: C_10  and  C_11
REMARK    6  A    between atoms: C_11  and  C_12
REMARK    7  A    between atoms: C_11  and  C_13
REMARK    8  A    between atoms: C_13  and  O_15
REMARK                            x       y       z     vdW  Elec       q    Type
REMARK                         _______ _______ _______ _____ _____    ______ ____
ROOT
ATOM      1  C   UNL     1       2.801   4.192  18.157  0.00  0.00    +0.000 A 
ATOM      2  C   UNL     1       2.636   5.557  18.401  0.00  0.00    +0.000 A 
ATOM      3  C   UNL     1       3.524   6.474  17.834  0.00  0.00    +0.000 A 
ATOM      4  C   UNL     1       4.582   6.041  17.027  0.00  0.00    +0.000 A 
ATOM      5  C   UNL     1       4.778   4.675  16.787  0.00  0.00    +0.000 A 
ATOM      6  C   UNL     1       3.870   3.763  17.354  0.00  0.00    +0.000 A 
ENDROOT
BRANCH   1   7
ATOM      7  C   UNL     1       1.859   3.146  18.664  0.00  0.00    +0.000 C 
ATOM      8  O   UNL     1       0.917   2.828  17.935  0.00  0.00    +0.000 OA
BRANCH   7  10
ATOM      9  C   UNL     1       3.559   2.544  20.402  0.00  0.00    +0.000 C 
ATOM     10  C   UNL     1       2.070   2.498  20.033  0.00  0.00    +0.000 C 
ATOM     11  C   UNL     1       1.264   3.215  21.115  0.00  0.00    +0.000 C 
ENDBRANCH   7  10
ENDBRANCH   1   7
BRANCH   5  12
ATOM     12  C   UNL     1       5.878   4.149  15.877  0.00  0.00    +0.000 C 
ATOM     13  C   UNL     1       5.453   4.276  14.413  0.00  0.00    +0.000 C 
BRANCH  12  14
ATOM     14  C   UNL     1       7.247   4.786  16.106  0.00  0.00    +0.000 C 
ATOM     15  O   UNL     1       7.681   5.752  15.497  0.00  0.00    +0.000 OA
BRANCH  14  16
ATOM     16  O   UNL     1       7.987   4.151  17.048  0.00  0.00    +0.000 OA
ATOM     17  H   UNL     1       8.390   3.319  16.732  0.00  0.00    +0.000 HD
ENDBRANCH  14  16
ENDBRANCH  12  14
ENDBRANCH   5  12
TORSDOF 5
ENDMDL
MODEL 3
REMARK VINA RESULT:      -7.3      1.286      1.427
REMARK  Name = 
REMARK  8 active torsions:
REMARK  status: ('A' for Active; 'I' for Inactive)
REMARK    1  A    between atoms: C_1  and  C_2
REMARK    2  A    between atoms: C_2  and  C_3
REMARK    3  A    between atoms: C_2  and  C_4
REMARK    4  A    between atoms: C_4  and  C_6
REMARK    5  A    between atoms: C_10  and  C_11
REMARK    6  A    between atoms: C_11  and  C_12
REMARK    7  A    between atoms: C_11  and  C_13
REMARK    8  A    between atoms: C_13  and  O_15
REMARK                            x       y       z     vdW  Elec       q    Type
REMARK                         _______ _______ _______ _____ _____    ______ ____
ROOT
ATOM      1  C   UNL     1       3.509   4.399  18.924  0.00  0.00    +0.000 A 
ATOM      2  C   UNL     1       3.086   5.728  18.873  0.00  0.00    +0.000 A 
ATOM      3  C   UNL     1       3.564   6.569  17.865  0.00  0.00    +0.000 A 
ATOM      4  C   UNL     1       4.467   6.096  16.905  0.00  0.00    +0.000 A 
ATOM      5  C   UNL     1       4.920   4.771  16.952  0.00  0.00    +0.000 A 
ATOM      6  C   UNL     1       4.422   3.932  17.965  0.00  0.00    +0.000 A 
ENDROOT
BRANCH   1   7
ATOM      7  C   UNL     1       2.996   3.410  19.923  0.00  0.00    +0.000 C 
ATOM      8  O   UNL     1       3.803   2.605  20.391  0.00  0.00    +0.000 OA
BRANCH   7  10
ATOM      9  C   UNL     1       0.672   2.765  19.247  0.00  0.00    +0.000 C 
ATOM     10  C   UNL     1       1.526   3.414  20.345  0.00  0.00    +0.000 C 
ATOM     11  C   UNL     1       1.324   2.652  21.653  0.00  0.00    +0.000 C 
ENDBRANCH   7  10
ENDBRANCH   1   7
BRANCH   5  12
ATOM     12  C   UNL     1       5.859   4.187  15.907  0.00  0.00    +0.000 C 
ATOM     13  C   UNL     1       5.328   4.477  14.503  0.00  0.00    +0.000 C 
BRANCH  12  14
ATOM     14  C   UNL     1       7.314   4.632  16.044  0.00  0.00    +0.000 C 
ATOM     15  O   UNL     1       8.040   4.373  16.991  0.00  0.00    +0.000 OA
BRANCH  14  16
ATOM     16  O   UNL     1       7.743   5.397  15.009  0.00  0.00    +0.000 OA
ATOM     17  H   UNL     1       7.941   6.319  15.262  0.00  0.00    +0.000 HD
ENDBRANCH  14  16
ENDBRANCH  12  14
ENDBRANCH   5  12
TORSDOF 5
ENDMDL
MODEL 4
REMARK VINA RESULT:      -7.3      1.940      2.275
REMARK  Name = 
REMARK  8 active torsions:
REMARK  status: ('A' for Active; 'I' for Inactive)
REMARK    1  A    between atoms: C_1  and  C_2
REMARK    2  A    between atoms: C_2  and  C_3
REMARK    3  A    between atoms: C_2  and  C_4
REMARK    4  A    between atoms: C_4  and  C_6
REMARK    5  A    between atoms: C_10  and  C_11
REMARK    6  A    between atoms: C_11  and  C_12
REMARK    7  A    between atoms: C_11  and  C_13
REMARK    8  A    between atoms: C_13  and  O_15
REMARK                            x       y       z     vdW  Elec       q    Type
REMARK                         _______ _______ _______ _____ _____    ______ ____
ROOT
ATOM      1  C   UNL     1       3.489   4.838  18.823  0.00  0.00    +0.000 A 
ATOM      2  C   UNL     1       2.642   5.878  18.436  0.00  0.00    +0.000 A 
ATOM      3  C   UNL     1       3.161   6.972  17.739  0.00  0.00    +0.000 A 
ATOM      4  C   UNL     1       4.524   7.041  17.427  0.00  0.00    +0.000 A 
ATOM      5  C   UNL     1       5.395   6.019  17.826  0.00  0.00    +0.000 A 
ATOM      6  C   UNL     1       4.857   4.918  18.517  0.00  0.00    +0.000 A 
ENDROOT
BRANCH   1   7
ATOM      7  C   UNL     1       3.009   3.598  19.509  0.00  0.00    +0.000 C 
ATOM      8  O   UNL     1       3.848   2.735  19.775  0.00  0.00    +0.000 OA
BRANCH   7  10
ATOM      9  C   UNL     1       0.859   2.500  18.842  0.00  0.00    +0.000 C 
ATOM     10  C   UNL     1       1.532   3.422  19.867  0.00  0.00    +0.000 C 
ATOM     11  C   UNL     1       1.369   2.824  21.263  0.00  0.00    +0.000 C 
ENDBRANCH   7  10
ENDBRANCH   1   7
BRANCH   5  12
ATOM     12  C   UNL     1       6.875   6.015  17.471  0.00  0.00    +0.000 C 
ATOM     13  C   UNL     1       7.421   7.443  17.483  0.00  0.00    +0.000 C 
BRANCH  12  14
ATOM     14  C   UNL     1       7.731   5.095  18.339  0.00  0.00    +0.000 C 
ATOM     15  O   UNL     1       7.997   5.288  19.515  0.00  0.00    +0.000 OA
BRANCH  14  16
ATOM     16  O   UNL     1       8.222   4.023  17.667  0.00  0.00    +0.000 OA
ATOM     17  H   UNL     1       9.129   4.156  17.332  0.00  0.00    +0.000 HD
ENDBRANCH  14  16
ENDBRANCH  12  14
ENDBRANCH   5  12
TORSDOF 5
ENDMDL
MODEL 5
REMARK VINA RESULT:      -7.2      0.491      1.270
REMARK  Name = 
REMARK  8 active torsions:
REMARK  status: ('A' for Active; 'I' for Inactive)
REMARK    1  A    between atoms: C_1  and  C_2
REMARK    2  A    between atoms: C_2  and  C_3
REMARK    3  A    between atoms: C_2  and  C_4
REMARK    4  A    between atoms: C_4  and  C_6
REMARK    5  A    between atoms: C_10  and  C_11
REMARK    6  A    between atoms: C_11  and  C_12
REMARK    7  A    between atoms: C_11  and  C_13
REMARK    8  A    between atoms: C_13  and  O_15
REMARK                            x       y       z     vdW  Elec       q    Type
REMARK                         _______ _______ _______ _____ _____    ______ ____
ROOT
ATOM      1  C   UNL     1       3.006   4.996  17.898  0.00  0.00    +0.000 A 
ATOM      2  C   UNL     1       3.041   6.389  17.989  0.00  0.00    +0.000 A 
ATOM      3  C   UNL     1       4.009   7.106  17.280  0.00  0.00    +0.000 A 
ATOM      4  C   UNL     1       4.949   6.443  16.482  0.00  0.00    +0.000 A 
ATOM      5  C   UNL     1       4.944   5.045  16.394  0.00  0.00    +0.000 A 
ATOM      6  C   UNL     1       3.957   4.337  17.103  0.00  0.00    +0.000 A 
ENDROOT
BRANCH   1   7
ATOM      7  C   UNL     1       1.963   4.154  18.563  0.00  0.00    +0.000 C 
ATOM      8  O   UNL     1       1.096   3.652  17.847  0.00  0.00    +0.000 OA
BRANCH   7  10
ATOM      9  C   UNL     1       1.525   5.199  20.798  0.00  0.00    +0.000 C 
ATOM     10  C   UNL     1       1.989   3.927  20.076  0.00  0.00    +0.000 C 
ATOM     11  C   UNL     1       1.082   2.764  20.476  0.00  0.00    +0.000 C 
ENDBRANCH   7  10
ENDBRANCH   1   7
BRANCH   5  12
ATOM     12  C   UNL     1       5.907   4.275  15.503  0.00  0.00    +0.000 C 
ATOM     13  C   UNL     1       5.377   4.235  14.069  0.00  0.00    +0.000 C 
BRANCH  12  14
ATOM     14  C   UNL     1       7.347   4.782  15.540  0.00  0.00    +0.000 C 
ATOM     15  O   UNL     1       7.894   5.406  14.644  0.00  0.00    +0.000 OA
BRANCH  14  16
ATOM     16  O   UNL     1       8.009   4.441  16.674  0.00  0.00    +0.000 OA
ATOM     17  H   UNL     1       8.893   4.851  16.747  0.00  0.00    +0.000 HD
ENDBRANCH  14  16
ENDBRANCH  12  14
ENDBRANCH   5  12
TORSDOF 5
ENDMDL
MODEL 6
REMARK VINA RESULT:      -7.2      1.285      1.693
REMARK  Name = 
REMARK  8 active torsions:
REMARK  status: ('A' for Active; 'I' for Inactive)
REMARK    1  A    between atoms: C_1  and  C_2
REMARK    2  A    between atoms: C_2  and  C_3
REMARK    3  A    between atoms: C_2  and  C_4
REMARK    4  A    between atoms: C_4  and  C_6
REMARK    5  A    between atoms: C_10  and  C_11
REMARK    6  A    between atoms: C_11  and  C_12
REMARK    7  A    between atoms: C_11  and  C_13
REMARK    8  A    between atoms: C_13  and  O_15
REMARK                            x       y       z     vdW  Elec       q    Type
REMARK                         _______ _______ _______ _____ _____    ______ ____
ROOT
ATOM      1  C   UNL     1       2.764   5.491  18.971  0.00  0.00    +0.000 A 
ATOM      2  C   UNL     1       2.661   6.850  18.670  0.00  0.00    +0.000 A 
ATOM      3  C   UNL     1       3.471   7.402  17.673  0.00  0.00    +0.000 A 
ATOM      4  C   UNL     1       4.389   6.608  16.976  0.00  0.00    +0.000 A 
ATOM      5  C   UNL     1       4.523   5.247  17.278  0.00  0.00    +0.000 A 
ATOM      6  C   UNL     1       3.694   4.702  18.275  0.00  0.00    +0.000 A 
ENDROOT
BRANCH   1   7
ATOM      7  C   UNL     1       1.890   4.802  19.971  0.00  0.00    +0.000 C 
ATOM      8  O   UNL     1       1.250   5.510  20.750  0.00  0.00    +0.000 OA
BRANCH   7  10
ATOM      9  C   UNL     1       1.512   2.811  21.444  0.00  0.00    +0.000 C 
ATOM     10  C   UNL     1       1.797   3.275  20.010  0.00  0.00    +0.000 C 
ATOM     11  C   UNL     1       0.691   2.765  19.088  0.00  0.00    +0.000 C 
ENDBRANCH   7  10
ENDBRANCH   1   7
BRANCH   5  12
ATOM     12  C   UNL     1       5.466   4.325  16.519  0.00  0.00    +0.000 C 
ATOM     13  C   UNL     1       5.336   4.565  15.015  0.00  0.00    +0.000 C 
BRANCH  12  14
ATOM     14  C   UNL     1       6.925   4.408  16.962  0.00  0.00    +0.000 C 
ATOM     15  O   UNL     1       7.877   4.560  16.212  0.00  0.00    +0.000 OA
BRANCH  14  16
ATOM     16  O   UNL     1       7.092   4.259  18.299  0.00  0.00    +0.000 OA
ATOM     17  H   UNL     1       8.014   4.070  18.558  0.00  0.00    +0.000 HD
ENDBRANCH  14  16
ENDBRANCH  12  14
ENDBRANCH   5  12
TORSDOF 5
ENDMDL
MODEL 7
REMARK VINA RESULT:      -7.1      1.774      5.382
REMARK  Name = 
REMARK  8 active torsions:
REMARK  status: ('A' for Active; 'I' for Inactive)
REMARK    1  A    between atoms: C_1  and  C_2
REMARK    2  A    between atoms: C_2  and  C_3
REMARK    3  A    between atoms: C_2  and  C_4
REMARK    4  A    between atoms: C_4  and  C_6
REMARK    5  A    between atoms: C_10  and  C_11
REMARK    6  A    between atoms: C_11  and  C_12
REMARK    7  A    between atoms: C_11  and  C_13
REMARK    8  A    between atoms: C_13  and  O_15
REMARK                            x       y       z     vdW  Elec       q    Type
REMARK                         _______ _______ _______ _____ _____    ______ ____
ROOT
ATOM      1  C   UNL     1       4.587   5.712  17.103  0.00  0.00    +0.000 A 
ATOM      2  C   UNL     1       3.819   6.735  17.662  0.00  0.00    +0.000 A 
ATOM      3  C   UNL     1       2.596   6.431  18.268  0.00  0.00    +0.000 A 
ATOM      4  C   UNL     1       2.130   5.112  18.317  0.00  0.00    +0.000 A 
ATOM      5  C   UNL     1       2.876   4.075  17.742  0.00  0.00    +0.000 A 
ATOM      6  C   UNL     1       4.109   4.393  17.147  0.00  0.00    +0.000 A 
ENDROOT
BRANCH   1   7
ATOM      7  C   UNL     1       5.938   5.935  16.499  0.00  0.00    +0.000 C 
ATOM      8  O   UNL     1       6.011   5.975  15.270  0.00  0.00    +0.000 OA
BRANCH   7  10
ATOM      9  C   UNL     1       7.480   7.606  17.551  0.00  0.00    +0.000 C 
ATOM     10  C   UNL     1       7.173   6.112  17.385  0.00  0.00    +0.000 C 
ATOM     11  C   UNL     1       6.959   5.488  18.763  0.00  0.00    +0.000 C 
ENDBRANCH   7  10
ENDBRANCH   1   7
BRANCH   5  12
ATOM     12  C   UNL     1       2.445   2.617  17.811  0.00  0.00    +0.000 C 
ATOM     13  C   UNL     1       3.653   1.725  18.100  0.00  0.00    +0.000 C 
BRANCH  12  14
ATOM     14  C   UNL     1       1.311   2.338  18.795  0.00  0.00    +0.000 C 
ATOM     15  O   UNL     1       0.126   2.286  18.503  0.00  0.00    +0.000 OA
BRANCH  14  16
ATOM     16  O   UNL     1       1.734   2.181  20.074  0.00  0.00    +0.000 OA
ATOM     17  H   UNL     1       2.706   2.177  20.165  0.00  0.00    +0.000 HD
ENDBRANCH  14  16
ENDBRANCH  12  14
ENDBRANCH   5  12
TORSDOF 5
ENDMDL
MODEL 8
REMARK VINA RESULT:      -7.0      2.016      5.014
REMARK  Name = 
REMARK  8 active torsions:
REMARK  status: ('A' for Active; 'I' for Inactive)
REMARK    1  A    between atoms: C_1  and  C_2
REMARK    2  A    between atoms: C_2  and  C_3
REMARK    3  A    between atoms: C_2  and  C_4
REMARK    4  A    between atoms: C_4  and  C_6
REMARK    5  A    between atoms: C_10  and  C_11
REMARK    6  A    between atoms: C_11  and  C_12
REMARK    7  A    between atoms: C_11  and  C_13
REMARK    8  A    between atoms: C_13  and  O_15
REMARK                            x       y       z     vdW  Elec       q    Type
REMARK                         _______ _______ _______ _____ _____    ______ ____
ROOT
ATOM      1  C   UNL     1       4.179   5.738  17.168  0.00  0.00    +0.000 A 
ATOM      2  C   UNL     1       3.602   6.893  17.700  0.00  0.00    +0.000 A 
ATOM      3  C   UNL     1       2.723   6.793  18.782  0.00  0.00    +0.000 A 
ATOM      4  C   UNL     1       2.409   5.547  19.337  0.00  0.00    +0.000 A 
ATOM      5  C   UNL     1       2.960   4.374  18.803  0.00  0.00    +0.000 A 
ATOM      6  C   UNL     1       3.852   4.490  17.723  0.00  0.00    +0.000 A 
ENDROOT
BRANCH   1   7
ATOM      7  C   UNL     1       5.183   5.757  16.059  0.00  0.00    +0.000 C 
ATOM      8  O   UNL     1       5.267   6.785  15.386  0.00  0.00    +0.000 OA
BRANCH   7  10
ATOM      9  C   UNL     1       6.468   4.513  14.305  0.00  0.00    +0.000 C 
ATOM     10  C   UNL     1       6.071   4.541  15.786  0.00  0.00    +0.000 C 
ATOM     11  C   UNL     1       7.335   4.575  16.643  0.00  0.00    +0.000 C 
ENDBRANCH   7  10
ENDBRANCH   1   7
BRANCH   5  12
ATOM     12  C   UNL     1       2.696   2.998  19.397  0.00  0.00    +0.000 C 
ATOM     13  C   UNL     1       1.527   2.330  18.672  0.00  0.00    +0.000 C 
BRANCH  12  14
ATOM     14  C   UNL     1       3.915   2.079  19.431  0.00  0.00    +0.000 C 
ATOM     15  O   UNL     1       4.840   2.171  20.223  0.00  0.00    +0.000 OA
BRANCH  14  16
ATOM     16  O   UNL     1       3.910   1.139  18.453  0.00  0.00    +0.000 OA
ATOM     17  H   UNL     1       4.349   1.430  17.631  0.00  0.00    +0.000 HD
ENDBRANCH  14  16
ENDBRANCH  12  14
ENDBRANCH   5  12
TORSDOF 5
ENDMDL
MODEL 9
REMARK VINA RESULT:      -7.0      1.892      5.590
REMARK  Name = 
REMARK  8 active torsions:
REMARK  status: ('A' for Active; 'I' for Inactive)
REMARK    1  A    between atoms: C_1  and  C_2
REMARK    2  A    between atoms: C_2  and  C_3
REMARK    3  A    between atoms: C_2  and  C_4
REMARK    4  A    between atoms: C_4  and  C_6
REMARK    5  A    between atoms: C_10  and  C_11
REMARK    6  A    between atoms: C_11  and  C_12
REMARK    7  A    between atoms: C_11  and  C_13
REMARK    8  A    between atoms: C_13  and  O_15
REMARK                            x       y       z     vdW  Elec       q    Type
REMARK                         _______ _______ _______ _____ _____    ______ ____
ROOT
ATOM      1  C   UNL     1       4.083   5.735  17.329  0.00  0.00    +0.000 A 
ATOM      2  C   UNL     1       3.489   6.903  17.809  0.00  0.00    +0.000 A 
ATOM      3  C   UNL     1       2.641   6.845  18.919  0.00  0.00    +0.000 A 
ATOM      4  C   UNL     1       2.375   5.626  19.553  0.00  0.00    +0.000 A 
ATOM      5  C   UNL     1       2.944   4.438  19.074  0.00  0.00    +0.000 A 
ATOM      6  C   UNL     1       3.804   4.513  17.964  0.00  0.00    +0.000 A 
ENDROOT
BRANCH   1   7
ATOM      7  C   UNL     1       5.057   5.713  16.194  0.00  0.00    +0.000 C 
ATOM      8  O   UNL     1       5.194   6.750  15.543  0.00  0.00    +0.000 OA
BRANCH   7  10
ATOM      9  C   UNL     1       5.956   4.280  14.346  0.00  0.00    +0.000 C 
ATOM     10  C   UNL     1       5.852   4.447  15.868  0.00  0.00    +0.000 C 
ATOM     11  C   UNL     1       7.257   4.508  16.463  0.00  0.00    +0.000 C 
ENDBRANCH   7  10
ENDBRANCH   1   7
BRANCH   5  12
ATOM     12  C   UNL     1       2.733   3.093  19.753  0.00  0.00    +0.000 C 
ATOM     13  C   UNL     1       4.082   2.446  20.065  0.00  0.00    +0.000 C 
BRANCH  12  14
ATOM     14  C   UNL     1       1.850   3.145  20.998  0.00  0.00    +0.000 C 
ATOM     15  O   UNL     1       2.259   3.267  22.143  0.00  0.00    +0.000 OA
BRANCH  14  16
ATOM     16  O   UNL     1       0.529   3.003  20.728  0.00  0.00    +0.000 OA
ATOM     17  H   UNL     1       0.345   2.399  19.984  0.00  0.00    +0.000 HD
ENDBRANCH  14  16
ENDBRANCH  12  14
ENDBRANCH   5  12
TORSDOF 5
ENDMDL
