MODEL 1
REMARK VINA RESULT:      -7.6      0.000      0.000
REMARK  Name = 
REMARK  7 active torsions:
REMARK  status: ('A' for Active; 'I' for Inactive)
REMARK    1  A    between atoms: C_2  and  C_3
REMARK    2  A    between atoms: C_3  and  N_4
REMARK    3  A    between atoms: C_5  and  S_6
REMARK    4  A    between atoms: S_6  and  C_7
REMARK    5  A    between atoms: C_7  and  C_8
REMARK    6  A    between atoms: C_17  and  C_18
REMARK    7  A    between atoms: C_18  and  C_19
REMARK                            x       y       z     vdW  Elec       q    Type
REMARK                         _______ _______ _______ _____ _____    ______ ____
ROOT
ATOM      1  N   UNL     1       3.118   4.461  19.297  0.00  0.00    +0.000 N 
ATOM      2  C   UNL     1       3.566   4.965  18.065  0.00  0.00    +0.000 A 
ATOM      3  N   UNL     1       3.388   6.185  17.657  0.00  0.00    +0.000 NA
ATOM      4  C   UNL     1       2.703   6.987  18.505  0.00  0.00    +0.000 A 
ATOM      5  S   UNL     1       2.389   8.627  18.148  0.00  0.00    +0.000 S 
ATOM      6  C   UNL     1       1.517   8.854  19.605  0.00  0.00    +0.000 A 
ATOM      7  C   UNL     1       1.477   7.696  20.355  0.00  0.00    +0.000 A 
ATOM      8  C   UNL     1       2.179   6.630  19.719  0.00  0.00    +0.000 A 
ATOM      9  C   UNL     1       2.400   5.280  20.185  0.00  0.00    +0.000 A 
ATOM     10  O   UNL     1       1.987   4.919  21.288  0.00  0.00    +0.000 OA
ENDROOT
BRANCH   6  11
ATOM     11  C   UNL     1       0.920  10.190  19.945  0.00  0.00    +0.000 C 
ATOM     12  C   UNL     1      -0.600  10.160  19.899  0.00  0.00    +0.000 C 
ENDBRANCH   6  11
BRANCH   1  13
ATOM     13  C   UNL     1       3.439   3.136  19.823  0.00  0.00    +0.000 C 
BRANCH  13  15
ATOM     14  C   UNL     1       1.330   2.341  18.681  0.00  0.00    +0.000 C 
ATOM     15  C   UNL     1       2.305   2.178  19.585  0.00  0.00    +0.000 C 
ENDBRANCH  13  15
ENDBRANCH   1  13
BRANCH   2  16
ATOM     16  S   UNL     1       4.383   3.890  16.917  0.00  0.00    +0.000 S 
BRANCH  16  17
ATOM     17  C   UNL     1       5.478   5.079  16.046  0.00  0.00    +0.000 C 
BRANCH  17  18
ATOM     18  C   UNL     1       6.984   5.230  16.417  0.00  0.00    +0.000 C 
ATOM     19  C   UNL     1       7.515   4.594  17.711  0.00  0.00    +0.000 C 
ATOM     20  C   UNL     1       7.488   5.508  18.926  0.00  0.00    +0.000 C 
ATOM     21  C   UNL     1       8.022   6.890  18.584  0.00  0.00    +0.000 C 
ATOM     22  C   UNL     1       7.375   7.431  17.319  0.00  0.00    +0.000 C 
ATOM     23  O   UNL     1       7.510   6.545  16.212  0.00  0.00    +0.000 OA
ENDBRANCH  17  18
ENDBRANCH  16  17
ENDBRANCH   2  16
TORSDOF 6
ENDMDL
MODEL 2
REMARK VINA RESULT:      -7.3      3.466      5.843
REMARK  Name = 
REMARK  7 active torsions:
REMARK  status: ('A' for Active; 'I' for Inactive)
REMARK    1  A    between atoms: C_2  and  C_3
REMARK    2  A    between atoms: C_3  and  N_4
REMARK    3  A    between atoms: C_5  and  S_6
REMARK    4  A    between atoms: S_6  and  C_7
REMARK    5  A    between atoms: C_7  and  C_8
REMARK    6  A    between atoms: C_17  and  C_18
REMARK    7  A    between atoms: C_18  and  C_19
REMARK                            x       y       z     vdW  Elec       q    Type
REMARK                         _______ _______ _______ _____ _____    ______ ____
ROOT
ATOM      1  N   UNL     1       6.324   5.013  17.591  0.00  0.00    +0.000 N 
ATOM      2  C   UNL     1       5.717   4.527  16.422  0.00  0.00    +0.000 A 
ATOM      3  N   UNL     1       4.550   3.958  16.376  0.00  0.00    +0.000 NA
ATOM      4  C   UNL     1       3.918   3.832  17.566  0.00  0.00    +0.000 A 
ATOM      5  S   UNL     1       2.368   3.129  17.700  0.00  0.00    +0.000 S 
ATOM      6  C   UNL     1       2.348   3.319  19.402  0.00  0.00    +0.000 A 
ATOM      7  C   UNL     1       3.505   3.921  19.857  0.00  0.00    +0.000 A 
ATOM      8  C   UNL     1       4.396   4.228  18.787  0.00  0.00    +0.000 A 
ATOM      9  C   UNL     1       5.682   4.885  18.835  0.00  0.00    +0.000 A 
ATOM     10  O   UNL     1       6.139   5.298  19.901  0.00  0.00    +0.000 OA
ENDROOT
BRANCH   6  11
ATOM     11  C   UNL     1       1.166   2.871  20.214  0.00  0.00    +0.000 C 
ATOM     12  C   UNL     1       1.532   2.643  21.673  0.00  0.00    +0.000 C 
ENDBRANCH   6  11
BRANCH   1  13
ATOM     13  C   UNL     1       7.567   5.780  17.629  0.00  0.00    +0.000 C 
BRANCH  13  15
ATOM     14  C   UNL     1       8.081   8.241  17.885  0.00  0.00    +0.000 C 
ATOM     15  C   UNL     1       7.293   7.249  17.452  0.00  0.00    +0.000 C 
ENDBRANCH  13  15
ENDBRANCH   1  13
BRANCH   2  16
ATOM     16  S   UNL     1       6.585   4.609  14.878  0.00  0.00    +0.000 S 
BRANCH  16  17
ATOM     17  C   UNL     1       5.375   3.804  13.756  0.00  0.00    +0.000 C 
BRANCH  17  18
ATOM     18  C   UNL     1       5.604   3.734  12.217  0.00  0.00    +0.000 C 
ATOM     19  C   UNL     1       4.888   2.655  11.391  0.00  0.00    +0.000 C 
ATOM     20  C   UNL     1       5.676   1.367  11.209  0.00  0.00    +0.000 C 
ATOM     21  C   UNL     1       7.122   1.658  10.835  0.00  0.00    +0.000 C 
ATOM     22  C   UNL     1       7.731   2.695  11.763  0.00  0.00    +0.000 C 
ATOM     23  O   UNL     1       6.968   3.897  11.818  0.00  0.00    +0.000 OA
ENDBRANCH  17  18
ENDBRANCH  16  17
ENDBRANCH   2  16
TORSDOF 6
ENDMDL
MODEL 3
REMARK VINA RESULT:      -6.9      2.612      6.059
REMARK  Name = 
REMARK  7 active torsions:
REMARK  status: ('A' for Active; 'I' for Inactive)
REMARK    1  A    between atoms: C_2  and  C_3
REMARK    2  A    between atoms: C_3  and  N_4
REMARK    3  A    between atoms: C_5  and  S_6
REMARK    4  A    between atoms: S_6  and  C_7
REMARK    5  A    between atoms: C_7  and  C_8
REMARK    6  A    between atoms: C_17  and  C_18
REMARK    7  A    between atoms: C_18  and  C_19
REMARK                            x       y       z     vdW  Elec       q    Type
REMARK                         _______ _______ _______ _____ _____    ______ ____
ROOT
ATOM      1  N   UNL     1       2.073   4.208  19.067  0.00  0.00    +0.000 N 
ATOM      2  C   UNL     1       2.348   5.567  19.291  0.00  0.00    +0.000 A 
ATOM      3  N   UNL     1       3.240   6.257  18.645  0.00  0.00    +0.000 NA
ATOM      4  C   UNL     1       3.939   5.572  17.710  0.00  0.00    +0.000 A 
ATOM      5  S   UNL     1       5.137   6.317  16.749  0.00  0.00    +0.000 S 
ATOM      6  C   UNL     1       5.506   4.851  15.943  0.00  0.00    +0.000 A 
ATOM      7  C   UNL     1       4.716   3.812  16.396  0.00  0.00    +0.000 A 
ATOM      8  C   UNL     1       3.804   4.245  17.404  0.00  0.00    +0.000 A 
ATOM      9  C   UNL     1       2.795   3.483  18.103  0.00  0.00    +0.000 A 
ATOM     10  O   UNL     1       2.603   2.296  17.837  0.00  0.00    +0.000 OA
ENDROOT
BRANCH   6  11
ATOM     11  C   UNL     1       6.563   4.802  14.876  0.00  0.00    +0.000 C 
ATOM     12  C   UNL     1       6.145   3.929  13.703  0.00  0.00    +0.000 C 
ENDBRANCH   6  11
BRANCH   1  13
ATOM     13  C   UNL     1       0.977   3.466  19.686  0.00  0.00    +0.000 C 
BRANCH  13  15
ATOM     14  C   UNL     1       2.482   2.642  21.541  0.00  0.00    +0.000 C 
ATOM     15  C   UNL     1       1.306   3.118  21.112  0.00  0.00    +0.000 C 
ENDBRANCH  13  15
ENDBRANCH   1  13
BRANCH   2  16
ATOM     16  S   UNL     1       1.496   6.439  20.578  0.00  0.00    +0.000 S 
BRANCH  16  17
ATOM     17  C   UNL     1       1.925   8.176  20.163  0.00  0.00    +0.000 C 
BRANCH  17  18
ATOM     18  C   UNL     1       1.017   9.047  19.244  0.00  0.00    +0.000 C 
ATOM     19  C   UNL     1       1.600   9.658  17.961  0.00  0.00    +0.000 C 
ATOM     20  C   UNL     1       2.172  11.058  18.126  0.00  0.00    +0.000 C 
ATOM     21  C   UNL     1       1.231  11.942  18.930  0.00  0.00    +0.000 C 
ATOM     22  C   UNL     1       0.775  11.247  20.201  0.00  0.00    +0.000 C 
ATOM     23  O   UNL     1       0.186   9.974  19.949  0.00  0.00    +0.000 OA
ENDBRANCH  17  18
ENDBRANCH  16  17
ENDBRANCH   2  16
TORSDOF 6
ENDMDL
MODEL 4
REMARK VINA RESULT:      -6.8      0.927      1.262
REMARK  Name = 
REMARK  7 active torsions:
REMARK  status: ('A' for Active; 'I' for Inactive)
REMARK    1  A    between atoms: C_2  and  C_3
REMARK    2  A    between atoms: C_3  and  N_4
REMARK    3  A    between atoms: C_5  and  S_6
REMARK    4  A    between atoms: S_6  and  C_7
REMARK    5  A    between atoms: C_7  and  C_8
REMARK    6  A    between atoms: C_17  and  C_18
REMARK    7  A    between atoms: C_18  and  C_19
REMARK                            x       y       z     vdW  Elec       q    Type
REMARK                         _______ _______ _______ _____ _____    ______ ____
ROOT
ATOM      1  N   UNL     1       3.026   3.750  18.847  0.00  0.00    +0.000 N 
ATOM      2  C   UNL     1       3.528   4.589  17.838  0.00  0.00    +0.000 A 
ATOM      3  N   UNL     1       3.382   5.880  17.810  0.00  0.00    +0.000 NA
ATOM      4  C   UNL     1       2.678   6.407  18.838  0.00  0.00    +0.000 A 
ATOM      5  S   UNL     1       2.402   8.087  18.980  0.00  0.00    +0.000 S 
ATOM      6  C   UNL     1       1.480   7.888  20.410  0.00  0.00    +0.000 A 
ATOM      7  C   UNL     1       1.395   6.559  20.777  0.00  0.00    +0.000 A 
ATOM      8  C   UNL     1       2.105   5.716  19.871  0.00  0.00    +0.000 A 
ATOM      9  C   UNL     1       2.288   4.283  19.917  0.00  0.00    +0.000 A 
ATOM     10  O   UNL     1       1.829   3.619  20.847  0.00  0.00    +0.000 OA
ENDROOT
BRANCH   6  11
ATOM     11  C   UNL     1       0.890   9.075  21.118  0.00  0.00    +0.000 C 
ATOM     12  C   UNL     1      -0.163   9.774  20.271  0.00  0.00    +0.000 C 
ENDBRANCH   6  11
BRANCH   1  13
ATOM     13  C   UNL     1       3.309   2.321  18.960  0.00  0.00    +0.000 C 
BRANCH  13  15
ATOM     14  C   UNL     1       4.715   1.666  20.955  0.00  0.00    +0.000 C 
ATOM     15  C   UNL     1       4.604   2.089  19.689  0.00  0.00    +0.000 C 
ENDBRANCH  13  15
ENDBRANCH   1  13
BRANCH   2  16
ATOM     16  S   UNL     1       4.371   3.887  16.445  0.00  0.00    +0.000 S 
BRANCH  16  17
ATOM     17  C   UNL     1       5.460   5.283  15.959  0.00  0.00    +0.000 C 
BRANCH  17  18
ATOM     18  C   UNL     1       6.960   5.337  16.375  0.00  0.00    +0.000 C 
ATOM     19  C   UNL     1       7.428   4.582  17.629  0.00  0.00    +0.000 C 
ATOM     20  C   UNL     1       7.410   5.406  18.908  0.00  0.00    +0.000 C 
ATOM     21  C   UNL     1       8.015   6.783  18.682  0.00  0.00    +0.000 C 
ATOM     22  C   UNL     1       7.427   7.445  17.447  0.00  0.00    +0.000 C 
ATOM     23  O   UNL     1       7.550   6.637  16.280  0.00  0.00    +0.000 OA
ENDBRANCH  17  18
ENDBRANCH  16  17
ENDBRANCH   2  16
TORSDOF 6
ENDMDL
MODEL 5
REMARK VINA RESULT:      -6.8      2.595      6.426
REMARK  Name = 
REMARK  7 active torsions:
REMARK  status: ('A' for Active; 'I' for Inactive)
REMARK    1  A    between atoms: C_2  and  C_3
REMARK    2  A    between atoms: C_3  and  N_4
REMARK    3  A    between atoms: C_5  and  S_6
REMARK    4  A    between atoms: S_6  and  C_7
REMARK    5  A    between atoms: C_7  and  C_8
REMARK    6  A    between atoms: C_17  and  C_18
REMARK    7  A    between atoms: C_18  and  C_19
REMARK                            x       y       z     vdW  Elec       q    Type
REMARK                         _______ _______ _______ _____ _____    ______ ____
ROOT
ATOM      1  N   UNL     1       2.265   4.205  18.895  0.00  0.00    +0.000 N 
ATOM      2  C   UNL     1       2.637   5.511  19.253  0.00  0.00    +0.000 A 
ATOM      3  N   UNL     1       3.551   6.211  18.652  0.00  0.00    +0.000 NA
ATOM      4  C   UNL     1       4.174   5.591  17.623  0.00  0.00    +0.000 A 
ATOM      5  S   UNL     1       5.388   6.361  16.701  0.00  0.00    +0.000 S 
ATOM      6  C   UNL     1       5.633   4.972  15.729  0.00  0.00    +0.000 A 
ATOM      7  C   UNL     1       4.791   3.942  16.097  0.00  0.00    +0.000 A 
ATOM      8  C   UNL     1       3.942   4.316  17.180  0.00  0.00    +0.000 A 
ATOM      9  C   UNL     1       2.907   3.547  17.832  0.00  0.00    +0.000 A 
ATOM     10  O   UNL     1       2.629   2.410  17.446  0.00  0.00    +0.000 OA
ENDROOT
BRANCH   6  11
ATOM     11  C   UNL     1       6.650   4.976  14.623  0.00  0.00    +0.000 C 
ATOM     12  C   UNL     1       6.305   3.975  13.531  0.00  0.00    +0.000 C 
ENDBRANCH   6  11
BRANCH   1  13
ATOM     13  C   UNL     1       1.143   3.469  19.472  0.00  0.00    +0.000 C 
BRANCH  13  15
ATOM     14  C   UNL     1       1.460   2.754  21.874  0.00  0.00    +0.000 C 
ATOM     15  C   UNL     1       1.614   2.544  20.561  0.00  0.00    +0.000 C 
ENDBRANCH  13  15
ENDBRANCH   1  13
BRANCH   2  16
ATOM     16  S   UNL     1       1.885   6.288  20.659  0.00  0.00    +0.000 S 
BRANCH  16  17
ATOM     17  C   UNL     1       1.497   7.946  19.973  0.00  0.00    +0.000 C 
BRANCH  17  18
ATOM     18  C   UNL     1       1.572   9.233  20.847  0.00  0.00    +0.000 C 
ATOM     19  C   UNL     1       1.302   9.142  22.357  0.00  0.00    +0.000 C 
ATOM     20  C   UNL     1      -0.146   9.380  22.759  0.00  0.00    +0.000 C 
ATOM     21  C   UNL     1      -0.722  10.590  22.040  0.00  0.00    +0.000 C 
ATOM     22  C   UNL     1      -0.438  10.530  20.548  0.00  0.00    +0.000 C 
ATOM     23  O   UNL     1       0.949  10.380  20.260  0.00  0.00    +0.000 OA
ENDBRANCH  17  18
ENDBRANCH  16  17
ENDBRANCH   2  16
TORSDOF 6
ENDMDL
MODEL 6
REMARK VINA RESULT:      -6.7      2.527      6.533
REMARK  Name = 
REMARK  7 active torsions:
REMARK  status: ('A' for Active; 'I' for Inactive)
REMARK    1  A    between atoms: C_2  and  C_3
REMARK    2  A    between atoms: C_3  and  N_4
REMARK    3  A    between atoms: C_5  and  S_6
REMARK    4  A    between atoms: S_6  and  C_7
REMARK    5  A    between atoms: C_7  and  C_8
REMARK    6  A    between atoms: C_17  and  C_18
REMARK    7  A    between atoms: C_18  and  C_19
REMARK                            x       y       z     vdW  Elec       q    Type
REMARK                         _______ _______ _______ _____ _____    ______ ____
ROOT
ATOM      1  N   UNL     1       2.381   5.006  19.101  0.00  0.00    +0.000 N 
ATOM      2  C   UNL     1       2.663   6.379  19.003  0.00  0.00    +0.000 A 
ATOM      3  N   UNL     1       3.511   6.902  18.169  0.00  0.00    +0.000 NA
ATOM      4  C   UNL     1       4.156   6.022  17.369  0.00  0.00    +0.000 A 
ATOM      5  S   UNL     1       5.291   6.525  16.196  0.00  0.00    +0.000 S 
ATOM      6  C   UNL     1       5.618   4.914  15.715  0.00  0.00    +0.000 A 
ATOM      7  C   UNL     1       4.862   4.008  16.432  0.00  0.00    +0.000 A 
ATOM      8  C   UNL     1       4.010   4.660  17.372  0.00  0.00    +0.000 A 
ATOM      9  C   UNL     1       3.048   4.080  18.281  0.00  0.00    +0.000 A 
ATOM     10  O   UNL     1       2.847   2.865  18.295  0.00  0.00    +0.000 OA
ENDROOT
BRANCH   6  11
ATOM     11  C   UNL     1       6.610   4.622  14.624  0.00  0.00    +0.000 C 
ATOM     12  C   UNL     1       5.989   3.814  13.495  0.00  0.00    +0.000 C 
ENDBRANCH   6  11
BRANCH   1  13
ATOM     13  C   UNL     1       1.329   4.428  19.933  0.00  0.00    +0.000 C 
BRANCH  13  15
ATOM     14  C   UNL     1       1.645   2.656  21.706  0.00  0.00    +0.000 C 
ATOM     15  C   UNL     1       1.900   3.873  21.209  0.00  0.00    +0.000 C 
ENDBRANCH  13  15
ENDBRANCH   1  13
BRANCH   2  16
ATOM     16  S   UNL     1       1.885   7.521  20.113  0.00  0.00    +0.000 S 
BRANCH  16  17
ATOM     17  C   UNL     1       1.432   8.874  18.958  0.00  0.00    +0.000 C 
BRANCH  17  18
ATOM     18  C   UNL     1       1.241  10.341  19.448  0.00  0.00    +0.000 C 
ATOM     19  C   UNL     1       0.866  10.609  20.914  0.00  0.00    +0.000 C 
ATOM     20  C   UNL     1      -0.628  10.700  21.181  0.00  0.00    +0.000 C 
ATOM     21  C   UNL     1      -1.320  11.563  20.137  0.00  0.00    +0.000 C 
ATOM     22  C   UNL     1      -0.910  11.158  18.731  0.00  0.00    +0.000 C 
ATOM     23  O   UNL     1       0.502  11.170  18.546  0.00  0.00    +0.000 OA
ENDBRANCH  17  18
ENDBRANCH  16  17
ENDBRANCH   2  16
TORSDOF 6
ENDMDL
MODEL 7
REMARK VINA RESULT:      -6.7      2.269      6.401
REMARK  Name = 
REMARK  7 active torsions:
REMARK  status: ('A' for Active; 'I' for Inactive)
REMARK    1  A    between atoms: C_2  and  C_3
REMARK    2  A    between atoms: C_3  and  N_4
REMARK    3  A    between atoms: C_5  and  S_6
REMARK    4  A    between atoms: S_6  and  C_7
REMARK    5  A    between atoms: C_7  and  C_8
REMARK    6  A    between atoms: C_17  and  C_18
REMARK    7  A    between atoms: C_18  and  C_19
REMARK                            x       y       z     vdW  Elec       q    Type
REMARK                         _______ _______ _______ _____ _____    ______ ____
ROOT
ATOM      1  N   UNL     1       3.099   5.096  19.686  0.00  0.00    +0.000 N 
ATOM      2  C   UNL     1       2.880   6.402  19.219  0.00  0.00    +0.000 A 
ATOM      3  N   UNL     1       3.424   6.907  18.152  0.00  0.00    +0.000 NA
ATOM      4  C   UNL     1       4.266   6.084  17.485  0.00  0.00    +0.000 A 
ATOM      5  S   UNL     1       5.058   6.565  16.051  0.00  0.00    +0.000 S 
ATOM      6  C   UNL     1       5.881   5.068  15.916  0.00  0.00    +0.000 A 
ATOM      7  C   UNL     1       5.545   4.212  16.946  0.00  0.00    +0.000 A 
ATOM      8  C   UNL     1       4.600   4.803  17.836  0.00  0.00    +0.000 A 
ATOM      9  C   UNL     1       3.975   4.232  19.008  0.00  0.00    +0.000 A 
ATOM     10  O   UNL     1       4.208   3.070  19.343  0.00  0.00    +0.000 OA
ENDROOT
BRANCH   6  11
ATOM     11  C   UNL     1       6.819   4.806  14.772  0.00  0.00    +0.000 C 
ATOM     12  C   UNL     1       6.199   3.889  13.729  0.00  0.00    +0.000 C 
ENDBRANCH   6  11
BRANCH   1  13
ATOM     13  C   UNL     1       2.382   4.477  20.799  0.00  0.00    +0.000 C 
BRANCH  13  15
ATOM     14  C   UNL     1       0.716   2.858  19.807  0.00  0.00    +0.000 C 
ATOM     15  C   UNL     1       1.009   4.037  20.370  0.00  0.00    +0.000 C 
ENDBRANCH  13  15
ENDBRANCH   1  13
BRANCH   2  16
ATOM     16  S   UNL     1       1.849   7.509  20.144  0.00  0.00    +0.000 S 
BRANCH  16  17
ATOM     17  C   UNL     1       1.690   8.905  18.961  0.00  0.00    +0.000 C 
BRANCH  17  18
ATOM     18  C   UNL     1       0.532   9.941  19.067  0.00  0.00    +0.000 C 
ATOM     19  C   UNL     1       0.798  11.414  18.720  0.00  0.00    +0.000 C 
ATOM     20  C   UNL     1       1.208  12.281  19.901  0.00  0.00    +0.000 C 
ATOM     21  C   UNL     1       0.319  12.020  21.107  0.00  0.00    +0.000 C 
ATOM     22  C   UNL     1       0.186  10.531  21.379  0.00  0.00    +0.000 C 
ATOM     23  O   UNL     1      -0.273   9.805  20.243  0.00  0.00    +0.000 OA
ENDBRANCH  17  18
ENDBRANCH  16  17
ENDBRANCH   2  16
TORSDOF 6
ENDMDL
MODEL 8
REMARK VINA RESULT:      -6.6      2.534      6.427
REMARK  Name = 
REMARK  7 active torsions:
REMARK  status: ('A' for Active; 'I' for Inactive)
REMARK    1  A    between atoms: C_2  and  C_3
REMARK    2  A    between atoms: C_3  and  N_4
REMARK    3  A    between atoms: C_5  and  S_6
REMARK    4  A    between atoms: S_6  and  C_7
REMARK    5  A    between atoms: C_7  and  C_8
REMARK    6  A    between atoms: C_17  and  C_18
REMARK    7  A    between atoms: C_18  and  C_19
REMARK                            x       y       z     vdW  Elec       q    Type
REMARK                         _______ _______ _______ _____ _____    ______ ____
ROOT
ATOM      1  N   UNL     1       2.114   4.615  18.963  0.00  0.00    +0.000 N 
ATOM      2  C   UNL     1       2.446   5.969  19.133  0.00  0.00    +0.000 A 
ATOM      3  N   UNL     1       3.364   6.595  18.459  0.00  0.00    +0.000 NA
ATOM      4  C   UNL     1       4.032   5.845  17.553  0.00  0.00    +0.000 A 
ATOM      5  S   UNL     1       5.258   6.501  16.561  0.00  0.00    +0.000 S 
ATOM      6  C   UNL     1       5.564   4.989  15.815  0.00  0.00    +0.000 A 
ATOM      7  C   UNL     1       4.733   4.004  16.310  0.00  0.00    +0.000 A 
ATOM      8  C   UNL     1       3.842   4.513  17.299  0.00  0.00    +0.000 A 
ATOM      9  C   UNL     1       2.803   3.823  18.029  0.00  0.00    +0.000 A 
ATOM     10  O   UNL     1       2.562   2.635  17.811  0.00  0.00    +0.000 OA
ENDROOT
BRANCH   6  11
ATOM     11  C   UNL     1       6.616   4.855  14.750  0.00  0.00    +0.000 C 
ATOM     12  C   UNL     1       6.158   3.956  13.611  0.00  0.00    +0.000 C 
ENDBRANCH   6  11
BRANCH   1  13
ATOM     13  C   UNL     1       0.990   3.944  19.612  0.00  0.00    +0.000 C 
BRANCH  13  15
ATOM     14  C   UNL     1       2.243   3.428  21.745  0.00  0.00    +0.000 C 
ATOM     15  C   UNL     1       1.471   3.047  20.719  0.00  0.00    +0.000 C 
ENDBRANCH  13  15
ENDBRANCH   1  13
BRANCH   2  16
ATOM     16  S   UNL     1       1.634   6.927  20.384  0.00  0.00    +0.000 S 
BRANCH  16  17
ATOM     17  C   UNL     1       1.665   8.596  19.620  0.00  0.00    +0.000 C 
BRANCH  17  18
ATOM     18  C   UNL     1       0.775   9.758  20.151  0.00  0.00    +0.000 C 
ATOM     19  C   UNL     1      -0.734   9.753  19.859  0.00  0.00    +0.000 C 
ATOM     20  C   UNL     1      -1.139  10.493  18.594  0.00  0.00    +0.000 C 
ATOM     21  C   UNL     1      -0.436  11.839  18.498  0.00  0.00    +0.000 C 
ATOM     22  C   UNL     1       1.056  11.697  18.747  0.00  0.00    +0.000 C 
ATOM     23  O   UNL     1       1.347  11.059  19.987  0.00  0.00    +0.000 OA
ENDBRANCH  17  18
ENDBRANCH  16  17
ENDBRANCH   2  16
TORSDOF 6
ENDMDL
MODEL 9
REMARK VINA RESULT:      -6.6      1.449      1.899
REMARK  Name = 
REMARK  7 active torsions:
REMARK  status: ('A' for Active; 'I' for Inactive)
REMARK    1  A    between atoms: C_2  and  C_3
REMARK    2  A    between atoms: C_3  and  N_4
REMARK    3  A    between atoms: C_5  and  S_6
REMARK    4  A    between atoms: S_6  and  C_7
REMARK    5  A    between atoms: C_7  and  C_8
REMARK    6  A    between atoms: C_17  and  C_18
REMARK    7  A    between atoms: C_18  and  C_19
REMARK                            x       y       z     vdW  Elec       q    Type
REMARK                         _______ _______ _______ _____ _____    ______ ____
ROOT
ATOM      1  N   UNL     1       2.210   6.403  19.896  0.00  0.00    +0.000 N 
ATOM      2  C   UNL     1       2.770   6.583  18.620  0.00  0.00    +0.000 A 
ATOM      3  N   UNL     1       2.724   7.690  17.942  0.00  0.00    +0.000 NA
ATOM      4  C   UNL     1       2.066   8.711  18.540  0.00  0.00    +0.000 A 
ATOM      5  S   UNL     1       1.920  10.248  17.810  0.00  0.00    +0.000 S 
ATOM      6  C   UNL     1       0.992  10.859  19.114  0.00  0.00    +0.000 A 
ATOM      7  C   UNL     1       0.808   9.906  20.095  0.00  0.00    +0.000 A 
ATOM      8  C   UNL     1       1.446   8.675  19.761  0.00  0.00    +0.000 A 
ATOM      9  C   UNL     1       1.520   7.452  20.527  0.00  0.00    +0.000 A 
ATOM     10  O   UNL     1       1.016   7.379  21.648  0.00  0.00    +0.000 OA
ENDROOT
BRANCH   6  11
ATOM     11  C   UNL     1       0.498  12.279  19.108  0.00  0.00    +0.000 C 
ATOM     12  C   UNL     1      -0.871  12.400  18.456  0.00  0.00    +0.000 C 
ENDBRANCH   6  11
BRANCH   1  13
ATOM     13  C   UNL     1       2.383   5.210  20.721  0.00  0.00    +0.000 C 
BRANCH  13  15
ATOM     14  C   UNL     1       1.212   2.983  20.953  0.00  0.00    +0.000 C 
ATOM     15  C   UNL     1       1.246   4.247  20.512  0.00  0.00    +0.000 C 
ENDBRANCH  13  15
ENDBRANCH   1  13
BRANCH   2  16
ATOM     16  S   UNL     1       3.550   5.220  17.799  0.00  0.00    +0.000 S 
BRANCH  16  17
ATOM     17  C   UNL     1       4.745   6.102  16.719  0.00  0.00    +0.000 C 
BRANCH  17  18
ATOM     18  C   UNL     1       6.269   5.784  16.751  0.00  0.00    +0.000 C 
ATOM     19  C   UNL     1       6.842   4.923  17.889  0.00  0.00    +0.000 C 
ATOM     20  C   UNL     1       7.341   5.711  19.090  0.00  0.00    +0.000 C 
ATOM     21  C   UNL     1       8.181   6.902  18.655  0.00  0.00    +0.000 C 
ATOM     22  C   UNL     1       7.478   7.702  17.571  0.00  0.00    +0.000 C 
ATOM     23  O   UNL     1       7.110   6.902  16.451  0.00  0.00    +0.000 OA
ENDBRANCH  17  18
ENDBRANCH  16  17
ENDBRANCH   2  16
TORSDOF 6
ENDMDL
