MODEL 1
REMARK VINA RESULT:      -8.3      0.000      0.000
REMARK  Name = 
REMARK  5 active torsions:
REMARK  status: ('A' for Active; 'I' for Inactive)
REMARK    1  A    between atoms: C_5  and  C_6
REMARK    2  A    between atoms: C_6  and  O_8
REMARK    3  A    between atoms: O_8  and  C_9
REMARK    4  A    between atoms: C_9  and  C_10
REMARK    5  A    between atoms: C_13  and  C_14
REMARK                            x       y       z     vdW  Elec       q    Type
REMARK                         _______ _______ _______ _____ _____    ______ ____
ROOT
ATOM      1  C   UNL     1       5.532   6.954  16.704  0.00  0.00    +0.000 C 
ENDROOT
BRANCH   1   2
ATOM      2  C   UNL     1       4.287   6.778  17.493  0.00  0.00    +0.000 A 
ATOM      3  N   UNL     1       3.339   7.667  17.706  0.00  0.00    +0.000 NA
ATOM      4  N   UNL     1       2.385   7.042  18.474  0.00  0.00    +0.000 NA
ATOM      5  C   UNL     1       2.815   5.811  18.689  0.00  0.00    +0.000 A 
ATOM      6  O   UNL     1       4.024   5.564  18.088  0.00  0.00    +0.000 OA
BRANCH   5   7
ATOM      7  C   UNL     1       2.199   4.752  19.475  0.00  0.00    +0.000 A 
ATOM      8  C   UNL     1       2.523   4.643  20.838  0.00  0.00    +0.000 A 
ATOM      9  C   UNL     1       2.016   3.602  21.619  0.00  0.00    +0.000 A 
ATOM     10  C   UNL     1       1.171   2.656  21.047  0.00  0.00    +0.000 A 
ATOM     11  C   UNL     1       0.817   2.762  19.702  0.00  0.00    +0.000 A 
ATOM     12  C   UNL     1       1.325   3.806  18.921  0.00  0.00    +0.000 A 
ENDBRANCH   5   7
ENDBRANCH   1   2
BRANCH   1  13
ATOM     13  O   UNL     1       6.684   6.578  17.475  0.00  0.00    +0.000 OA
BRANCH  13  14
ATOM     14  C   UNL     1       7.106   5.323  17.254  0.00  0.00    +0.000 C 
ATOM     15  O   UNL     1       7.495   4.515  18.078  0.00  0.00    +0.000 OA
BRANCH  14  20
ATOM     16  O   UNL     1       6.935   4.035  11.875  0.00  0.00    +0.000 OA
ATOM     17  C   UNL     1       6.880   4.317  13.070  0.00  0.00    +0.000 C 
ATOM     18  C   UNL     1       5.799   3.778  13.967  0.00  0.00    +0.000 C 
ATOM     19  C   UNL     1       6.175   3.789  15.430  0.00  0.00    +0.000 C 
ATOM     20  C   UNL     1       7.039   4.965  15.780  0.00  0.00    +0.000 C 
ATOM     21  N   UNL     1       7.789   5.604  14.935  0.00  0.00    +0.000 NA
ATOM     22  N   UNL     1       7.751   5.212  13.633  0.00  0.00    +0.000 N 
ATOM     23  H   UNL     1       8.431   5.643  13.010  0.00  0.00    +0.000 HD
ENDBRANCH  14  20
ENDBRANCH  13  14
ENDBRANCH   1  13
TORSDOF 5
ENDMDL
MODEL 2
REMARK VINA RESULT:      -8.1      3.749      4.465
REMARK  Name = 
REMARK  5 active torsions:
REMARK  status: ('A' for Active; 'I' for Inactive)
REMARK    1  A    between atoms: C_5  and  C_6
REMARK    2  A    between atoms: C_6  and  O_8
REMARK    3  A    between atoms: O_8  and  C_9
REMARK    4  A    between atoms: C_9  and  C_10
REMARK    5  A    between atoms: C_13  and  C_14
REMARK                            x       y       z     vdW  Elec       q    Type
REMARK                         _______ _______ _______ _____ _____    ______ ____
ROOT
ATOM      1  C   UNL     1       2.916   5.249  19.583  0.00  0.00    +0.000 C 
ENDROOT
BRANCH   1   2
ATOM      2  C   UNL     1       2.392   6.637  19.529  0.00  0.00    +0.000 A 
ATOM      3  N   UNL     1       2.510   7.503  18.544  0.00  0.00    +0.000 NA
ATOM      4  N   UNL     1       1.850   8.640  18.945  0.00  0.00    +0.000 NA
ATOM      5  C   UNL     1       1.377   8.400  20.155  0.00  0.00    +0.000 A 
ATOM      6  O   UNL     1       1.678   7.135  20.596  0.00  0.00    +0.000 OA
BRANCH   5   7
ATOM      7  C   UNL     1       0.638   9.289  21.041  0.00  0.00    +0.000 A 
ATOM      8  C   UNL     1       0.546   8.965  22.405  0.00  0.00    +0.000 A 
ATOM      9  C   UNL     1      -0.210   9.745  23.282  0.00  0.00    +0.000 A 
ATOM     10  C   UNL     1      -0.883  10.866  22.807  0.00  0.00    +0.000 A 
ATOM     11  C   UNL     1      -0.784  11.219  21.461  0.00  0.00    +0.000 A 
ATOM     12  C   UNL     1      -0.024  10.437  20.583  0.00  0.00    +0.000 A 
ENDBRANCH   5   7
ENDBRANCH   1   2
BRANCH   1  13
ATOM     13  O   UNL     1       4.344   5.246  19.731  0.00  0.00    +0.000 OA
BRANCH  13  14
ATOM     14  C   UNL     1       4.945   4.153  19.234  0.00  0.00    +0.000 C 
ATOM     15  O   UNL     1       4.932   3.026  19.695  0.00  0.00    +0.000 OA
BRANCH  14  20
ATOM     16  O   UNL     1       7.704   5.239  14.562  0.00  0.00    +0.000 OA
ATOM     17  C   UNL     1       7.033   5.066  15.577  0.00  0.00    +0.000 C 
ATOM     18  C   UNL     1       5.550   5.315  15.603  0.00  0.00    +0.000 C 
ATOM     19  C   UNL     1       4.839   4.576  16.713  0.00  0.00    +0.000 C 
ATOM     20  C   UNL     1       5.686   4.463  17.946  0.00  0.00    +0.000 C 
ATOM     21  N   UNL     1       6.984   4.508  17.954  0.00  0.00    +0.000 NA
ATOM     22  N   UNL     1       7.616   4.724  16.769  0.00  0.00    +0.000 N 
ATOM     23  H   UNL     1       8.630   4.637  16.773  0.00  0.00    +0.000 HD
ENDBRANCH  14  20
ENDBRANCH  13  14
ENDBRANCH   1  13
TORSDOF 5
ENDMDL
MODEL 3
REMARK VINA RESULT:      -8.1      4.478      7.929
REMARK  Name = 
REMARK  5 active torsions:
REMARK  status: ('A' for Active; 'I' for Inactive)
REMARK    1  A    between atoms: C_5  and  C_6
REMARK    2  A    between atoms: C_6  and  O_8
REMARK    3  A    between atoms: O_8  and  C_9
REMARK    4  A    between atoms: C_9  and  C_10
REMARK    5  A    between atoms: C_13  and  C_14
REMARK                            x       y       z     vdW  Elec       q    Type
REMARK                         _______ _______ _______ _____ _____    ______ ____
ROOT
ATOM      1  C   UNL     1       7.662   5.620  18.546  0.00  0.00    +0.000 C 
ENDROOT
BRANCH   1   2
ATOM      2  C   UNL     1       7.802   7.050  18.171  0.00  0.00    +0.000 A 
ATOM      3  N   UNL     1       7.201   7.685  17.187  0.00  0.00    +0.000 NA
ATOM      4  N   UNL     1       7.629   8.990  17.248  0.00  0.00    +0.000 NA
ATOM      5  C   UNL     1       8.473   9.068  18.261  0.00  0.00    +0.000 A 
ATOM      6  O   UNL     1       8.631   7.867  18.907  0.00  0.00    +0.000 OA
BRANCH   5   7
ATOM      7  C   UNL     1       9.237  10.216  18.728  0.00  0.00    +0.000 A 
ATOM      8  C   UNL     1       9.318  10.462  20.109  0.00  0.00    +0.000 A 
ATOM      9  C   UNL     1       9.977  11.588  20.604  0.00  0.00    +0.000 A 
ATOM     10  C   UNL     1      10.573  12.485  19.723  0.00  0.00    +0.000 A 
ATOM     11  C   UNL     1      10.527  12.245  18.349  0.00  0.00    +0.000 A 
ATOM     12  C   UNL     1       9.866  11.114  17.854  0.00  0.00    +0.000 A 
ENDBRANCH   5   7
ENDBRANCH   1   2
BRANCH   1  13
ATOM     13  O   UNL     1       6.436   5.395  19.258  0.00  0.00    +0.000 OA
BRANCH  13  14
ATOM     14  C   UNL     1       5.520   4.699  18.566  0.00  0.00    +0.000 C 
ATOM     15  O   UNL     1       5.469   4.534  17.361  0.00  0.00    +0.000 OA
BRANCH  14  20
ATOM     16  O   UNL     1       1.790   2.398  21.945  0.00  0.00    +0.000 OA
ATOM     17  C   UNL     1       2.548   2.942  21.145  0.00  0.00    +0.000 C 
ATOM     18  C   UNL     1       2.189   4.232  20.460  0.00  0.00    +0.000 C 
ATOM     19  C   UNL     1       3.391   4.996  19.953  0.00  0.00    +0.000 C 
ATOM     20  C   UNL     1       4.482   4.079  19.484  0.00  0.00    +0.000 C 
ATOM     21  N   UNL     1       4.641   2.856  19.891  0.00  0.00    +0.000 NA
ATOM     22  N   UNL     1       3.726   2.356  20.764  0.00  0.00    +0.000 N 
ATOM     23  H   UNL     1       3.931   1.442  21.163  0.00  0.00    +0.000 HD
ENDBRANCH  14  20
ENDBRANCH  13  14
ENDBRANCH   1  13
TORSDOF 5
ENDMDL
MODEL 4
REMARK VINA RESULT:      -8.1      2.524      7.439
REMARK  Name = 
REMARK  5 active torsions:
REMARK  status: ('A' for Active; 'I' for Inactive)
REMARK    1  A    between atoms: C_5  and  C_6
REMARK    2  A    between atoms: C_6  and  O_8
REMARK    3  A    between atoms: O_8  and  C_9
REMARK    4  A    between atoms: C_9  and  C_10
REMARK    5  A    between atoms: C_13  and  C_14
REMARK                            x       y       z     vdW  Elec       q    Type
REMARK                         _______ _______ _______ _____ _____    ______ ____
ROOT
ATOM      1  C   UNL     1       6.251   5.129  17.605  0.00  0.00    +0.000 C 
ENDROOT
BRANCH   1   2
ATOM      2  C   UNL     1       6.621   5.042  16.169  0.00  0.00    +0.000 A 
ATOM      3  N   UNL     1       7.571   5.703  15.543  0.00  0.00    +0.000 NA
ATOM      4  N   UNL     1       7.545   5.277  14.236  0.00  0.00    +0.000 NA
ATOM      5  C   UNL     1       6.573   4.388  14.144  0.00  0.00    +0.000 A 
ATOM      6  O   UNL     1       5.937   4.179  15.343  0.00  0.00    +0.000 OA
BRANCH   5   7
ATOM      7  C   UNL     1       6.102   3.665  12.971  0.00  0.00    +0.000 A 
ATOM      8  C   UNL     1       4.771   3.836  12.556  0.00  0.00    +0.000 A 
ATOM      9  C   UNL     1       4.251   3.112  11.482  0.00  0.00    +0.000 A 
ATOM     10  C   UNL     1       5.060   2.207  10.802  0.00  0.00    +0.000 A 
ATOM     11  C   UNL     1       6.392   2.041  11.181  0.00  0.00    +0.000 A 
ATOM     12  C   UNL     1       6.912   2.769  12.257  0.00  0.00    +0.000 A 
ENDBRANCH   5   7
ENDBRANCH   1   2
BRANCH   1  13
ATOM     13  O   UNL     1       5.080   4.345  17.880  0.00  0.00    +0.000 OA
BRANCH  13  14
ATOM     14  C   UNL     1       4.031   5.062  18.314  0.00  0.00    +0.000 C 
ATOM     15  O   UNL     1       3.666   6.156  17.922  0.00  0.00    +0.000 OA
BRANCH  14  20
ATOM     16  O   UNL     1       1.333   2.379  22.333  0.00  0.00    +0.000 OA
ATOM     17  C   UNL     1       1.852   2.981  21.396  0.00  0.00    +0.000 C 
ATOM     18  C   UNL     1       1.107   4.027  20.612  0.00  0.00    +0.000 C 
ATOM     19  C   UNL     1       2.016   4.994  19.890  0.00  0.00    +0.000 C 
ATOM     20  C   UNL     1       3.273   4.331  19.408  0.00  0.00    +0.000 C 
ATOM     21  N   UNL     1       3.786   3.260  19.932  0.00  0.00    +0.000 NA
ATOM     22  N   UNL     1       3.110   2.669  20.954  0.00  0.00    +0.000 N 
ATOM     23  H   UNL     1       3.584   1.903  21.429  0.00  0.00    +0.000 HD
ENDBRANCH  14  20
ENDBRANCH  13  14
ENDBRANCH   1  13
TORSDOF 5
ENDMDL
MODEL 5
REMARK VINA RESULT:      -7.9      2.172      6.783
REMARK  Name = 
REMARK  5 active torsions:
REMARK  status: ('A' for Active; 'I' for Inactive)
REMARK    1  A    between atoms: C_5  and  C_6
REMARK    2  A    between atoms: C_6  and  O_8
REMARK    3  A    between atoms: O_8  and  C_9
REMARK    4  A    between atoms: C_9  and  C_10
REMARK    5  A    between atoms: C_13  and  C_14
REMARK                            x       y       z     vdW  Elec       q    Type
REMARK                         _______ _______ _______ _____ _____    ______ ____
ROOT
ATOM      1  C   UNL     1       5.746   4.967  19.192  0.00  0.00    +0.000 C 
ENDROOT
BRANCH   1   2
ATOM      2  C   UNL     1       6.368   5.353  17.900  0.00  0.00    +0.000 A 
ATOM      3  N   UNL     1       7.164   6.375  17.665  0.00  0.00    +0.000 NA
ATOM      4  N   UNL     1       7.497   6.310  16.333  0.00  0.00    +0.000 NA
ATOM      5  C   UNL     1       6.875   5.256  15.835  0.00  0.00    +0.000 A 
ATOM      6  O   UNL     1       6.136   4.588  16.779  0.00  0.00    +0.000 OA
BRANCH   5   7
ATOM      7  C   UNL     1       6.860   4.767  14.464  0.00  0.00    +0.000 A 
ATOM      8  C   UNL     1       7.745   5.332  13.531  0.00  0.00    +0.000 A 
ATOM      9  C   UNL     1       7.721   4.949  12.189  0.00  0.00    +0.000 A 
ATOM     10  C   UNL     1       6.812   3.988  11.760  0.00  0.00    +0.000 A 
ATOM     11  C   UNL     1       5.941   3.395  12.676  0.00  0.00    +0.000 A 
ATOM     12  C   UNL     1       5.968   3.779  14.021  0.00  0.00    +0.000 A 
ENDBRANCH   5   7
ENDBRANCH   1   2
BRANCH   1  13
ATOM     13  O   UNL     1       4.715   5.895  19.562  0.00  0.00    +0.000 OA
BRANCH  13  14
ATOM     14  C   UNL     1       3.746   6.033  18.643  0.00  0.00    +0.000 C 
ATOM     15  O   UNL     1       3.604   6.941  17.844  0.00  0.00    +0.000 OA
BRANCH  14  20
ATOM     16  O   UNL     1       0.162   1.819  18.806  0.00  0.00    +0.000 OA
ATOM     17  C   UNL     1       1.023   2.694  18.746  0.00  0.00    +0.000 C 
ATOM     18  C   UNL     1       2.160   2.625  17.763  0.00  0.00    +0.000 C 
ATOM     19  C   UNL     1       2.783   3.971  17.473  0.00  0.00    +0.000 C 
ATOM     20  C   UNL     1       2.776   4.865  18.678  0.00  0.00    +0.000 C 
ATOM     21  N   UNL     1       1.942   4.760  19.667  0.00  0.00    +0.000 NA
ATOM     22  N   UNL     1       1.045   3.738  19.633  0.00  0.00    +0.000 N 
ATOM     23  H   UNL     1       0.325   3.741  20.352  0.00  0.00    +0.000 HD
ENDBRANCH  14  20
ENDBRANCH  13  14
ENDBRANCH   1  13
TORSDOF 5
ENDMDL
MODEL 6
REMARK VINA RESULT:      -7.9      2.646      6.935
REMARK  Name = 
REMARK  5 active torsions:
REMARK  status: ('A' for Active; 'I' for Inactive)
REMARK    1  A    between atoms: C_5  and  C_6
REMARK    2  A    between atoms: C_6  and  O_8
REMARK    3  A    between atoms: O_8  and  C_9
REMARK    4  A    between atoms: C_9  and  C_10
REMARK    5  A    between atoms: C_13  and  C_14
REMARK                            x       y       z     vdW  Elec       q    Type
REMARK                         _______ _______ _______ _____ _____    ______ ____
ROOT
ATOM      1  C   UNL     1       6.871   4.957  17.344  0.00  0.00    +0.000 C 
ENDROOT
BRANCH   1   2
ATOM      2  C   UNL     1       6.938   4.907  15.861  0.00  0.00    +0.000 A 
ATOM      3  N   UNL     1       7.680   5.648  15.065  0.00  0.00    +0.000 NA
ATOM      4  N   UNL     1       7.415   5.226  13.783  0.00  0.00    +0.000 NA
ATOM      5  C   UNL     1       6.521   4.259  13.877  0.00  0.00    +0.000 A 
ATOM      6  O   UNL     1       6.169   3.992  15.177  0.00  0.00    +0.000 OA
BRANCH   5   7
ATOM      7  C   UNL     1       5.876   3.503  12.812  0.00  0.00    +0.000 A 
ATOM      8  C   UNL     1       6.590   2.469  12.185  0.00  0.00    +0.000 A 
ATOM      9  C   UNL     1       6.045   1.763  11.112  0.00  0.00    +0.000 A 
ATOM     10  C   UNL     1       4.770   2.078  10.652  0.00  0.00    +0.000 A 
ATOM     11  C   UNL     1       4.034   3.085  11.278  0.00  0.00    +0.000 A 
ATOM     12  C   UNL     1       4.582   3.791  12.355  0.00  0.00    +0.000 A 
ENDBRANCH   5   7
ENDBRANCH   1   2
BRANCH   1  13
ATOM     13  O   UNL     1       5.521   5.159  17.789  0.00  0.00    +0.000 OA
BRANCH  13  14
ATOM     14  C   UNL     1       5.198   4.467  18.893  0.00  0.00    +0.000 C 
ATOM     15  O   UNL     1       5.869   4.319  19.898  0.00  0.00    +0.000 OA
BRANCH  14  20
ATOM     16  O   UNL     1       0.171   2.181  18.539  0.00  0.00    +0.000 OA
ATOM     17  C   UNL     1       1.276   2.719  18.531  0.00  0.00    +0.000 C 
ATOM     18  C   UNL     1       1.542   3.981  17.756  0.00  0.00    +0.000 C 
ATOM     19  C   UNL     1       2.735   4.756  18.265  0.00  0.00    +0.000 C 
ATOM     20  C   UNL     1       3.816   3.850  18.779  0.00  0.00    +0.000 C 
ATOM     21  N   UNL     1       3.619   2.644  19.215  0.00  0.00    +0.000 NA
ATOM     22  N   UNL     1       2.353   2.148  19.156  0.00  0.00    +0.000 N 
ATOM     23  H   UNL     1       2.195   1.251  19.610  0.00  0.00    +0.000 HD
ENDBRANCH  14  20
ENDBRANCH  13  14
ENDBRANCH   1  13
TORSDOF 5
ENDMDL
MODEL 7
REMARK VINA RESULT:      -7.9      4.129      6.419
REMARK  Name = 
REMARK  5 active torsions:
REMARK  status: ('A' for Active; 'I' for Inactive)
REMARK    1  A    between atoms: C_5  and  C_6
REMARK    2  A    between atoms: C_6  and  O_8
REMARK    3  A    between atoms: O_8  and  C_9
REMARK    4  A    between atoms: C_9  and  C_10
REMARK    5  A    between atoms: C_13  and  C_14
REMARK                            x       y       z     vdW  Elec       q    Type
REMARK                         _______ _______ _______ _____ _____    ______ ____
ROOT
ATOM      1  C   UNL     1       3.365   7.525  17.622  0.00  0.00    +0.000 C 
ENDROOT
BRANCH   1   2
ATOM      2  C   UNL     1       2.405   8.540  18.126  0.00  0.00    +0.000 A 
ATOM      3  N   UNL     1       1.920   9.578  17.478  0.00  0.00    +0.000 NA
ATOM      4  N   UNL     1       1.060  10.211  18.345  0.00  0.00    +0.000 NA
ATOM      5  C   UNL     1       1.082   9.523  19.473  0.00  0.00    +0.000 A 
ATOM      6  O   UNL     1       1.916   8.435  19.409  0.00  0.00    +0.000 OA
BRANCH   5   7
ATOM      7  C   UNL     1       0.382   9.792  20.721  0.00  0.00    +0.000 A 
ATOM      8  C   UNL     1      -0.442  10.927  20.806  0.00  0.00    +0.000 A 
ATOM      9  C   UNL     1      -1.077  11.269  22.001  0.00  0.00    +0.000 A 
ATOM     10  C   UNL     1      -0.901  10.475  23.130  0.00  0.00    +0.000 A 
ATOM     11  C   UNL     1      -0.108   9.330  23.059  0.00  0.00    +0.000 A 
ATOM     12  C   UNL     1       0.527   8.987  21.860  0.00  0.00    +0.000 A 
ENDBRANCH   5   7
ENDBRANCH   1   2
BRANCH   1  13
ATOM     13  O   UNL     1       2.865   6.196  17.837  0.00  0.00    +0.000 OA
BRANCH  13  14
ATOM     14  C   UNL     1       3.757   5.357  18.387  0.00  0.00    +0.000 C 
ATOM     15  O   UNL     1       4.942   5.258  18.125  0.00  0.00    +0.000 OA
BRANCH  14  20
ATOM     16  O   UNL     1       1.493   2.160  22.295  0.00  0.00    +0.000 OA
ATOM     17  C   UNL     1       1.912   2.874  21.387  0.00  0.00    +0.000 C 
ATOM     18  C   UNL     1       1.050   3.918  20.732  0.00  0.00    +0.000 C 
ATOM     19  C   UNL     1       1.843   5.007  20.049  0.00  0.00    +0.000 C 
ATOM     20  C   UNL     1       3.117   4.485  19.452  0.00  0.00    +0.000 C 
ATOM     21  N   UNL     1       3.736   3.418  19.858  0.00  0.00    +0.000 NA
ATOM     22  N   UNL     1       3.164   2.697  20.859  0.00  0.00    +0.000 N 
ATOM     23  H   UNL     1       3.718   1.935  21.244  0.00  0.00    +0.000 HD
ENDBRANCH  14  20
ENDBRANCH  13  14
ENDBRANCH   1  13
TORSDOF 5
ENDMDL
MODEL 8
REMARK VINA RESULT:      -7.8      2.079      6.875
REMARK  Name = 
REMARK  5 active torsions:
REMARK  status: ('A' for Active; 'I' for Inactive)
REMARK    1  A    between atoms: C_5  and  C_6
REMARK    2  A    between atoms: C_6  and  O_8
REMARK    3  A    between atoms: O_8  and  C_9
REMARK    4  A    between atoms: C_9  and  C_10
REMARK    5  A    between atoms: C_13  and  C_14
REMARK                            x       y       z     vdW  Elec       q    Type
REMARK                         _______ _______ _______ _____ _____    ______ ____
ROOT
ATOM      1  C   UNL     1       5.452   4.777  19.079  0.00  0.00    +0.000 C 
ENDROOT
BRANCH   1   2
ATOM      2  C   UNL     1       6.159   5.187  17.839  0.00  0.00    +0.000 A 
ATOM      3  N   UNL     1       7.003   6.185  17.689  0.00  0.00    +0.000 NA
ATOM      4  N   UNL     1       7.408   6.158  16.375  0.00  0.00    +0.000 NA
ATOM      5  C   UNL     1       6.777   5.148  15.803  0.00  0.00    +0.000 A 
ATOM      6  O   UNL     1       5.962   4.474  16.678  0.00  0.00    +0.000 OA
BRANCH   5   7
ATOM      7  C   UNL     1       6.822   4.711  14.415  0.00  0.00    +0.000 A 
ATOM      8  C   UNL     1       7.705   5.351  13.530  0.00  0.00    +0.000 A 
ATOM      9  C   UNL     1       7.735   5.019  12.174  0.00  0.00    +0.000 A 
ATOM     10  C   UNL     1       6.883   4.035  11.684  0.00  0.00    +0.000 A 
ATOM     11  C   UNL     1       6.017   3.369  12.552  0.00  0.00    +0.000 A 
ATOM     12  C   UNL     1       5.989   3.702  13.911  0.00  0.00    +0.000 A 
ENDBRANCH   5   7
ENDBRANCH   1   2
BRANCH   1  13
ATOM     13  O   UNL     1       4.707   5.874  19.631  0.00  0.00    +0.000 OA
BRANCH  13  14
ATOM     14  C   UNL     1       3.584   6.169  18.956  0.00  0.00    +0.000 C 
ATOM     15  O   UNL     1       3.297   7.223  18.418  0.00  0.00    +0.000 OA
BRANCH  14  20
ATOM     16  O   UNL     1       0.178   1.815  18.716  0.00  0.00    +0.000 OA
ATOM     17  C   UNL     1       0.871   2.824  18.822  0.00  0.00    +0.000 C 
ATOM     18  C   UNL     1       0.852   3.676  20.061  0.00  0.00    +0.000 C 
ATOM     19  C   UNL     1       2.094   4.522  20.225  0.00  0.00    +0.000 C 
ATOM     20  C   UNL     1       2.638   4.983  18.905  0.00  0.00    +0.000 C 
ATOM     21  N   UNL     1       2.436   4.378  17.774  0.00  0.00    +0.000 NA
ATOM     22  N   UNL     1       1.633   3.280  17.779  0.00  0.00    +0.000 N 
ATOM     23  H   UNL     1       1.582   2.751  16.911  0.00  0.00    +0.000 HD
ENDBRANCH  14  20
ENDBRANCH  13  14
ENDBRANCH   1  13
TORSDOF 5
ENDMDL
MODEL 9
REMARK VINA RESULT:      -7.8      4.422      7.501
REMARK  Name = 
REMARK  5 active torsions:
REMARK  status: ('A' for Active; 'I' for Inactive)
REMARK    1  A    between atoms: C_5  and  C_6
REMARK    2  A    between atoms: C_6  and  O_8
REMARK    3  A    between atoms: O_8  and  C_9
REMARK    4  A    between atoms: C_9  and  C_10
REMARK    5  A    between atoms: C_13  and  C_14
REMARK                            x       y       z     vdW  Elec       q    Type
REMARK                         _______ _______ _______ _____ _____    ______ ____
ROOT
ATOM      1  C   UNL     1       7.621   5.722  18.554  0.00  0.00    +0.000 C 
ENDROOT
BRANCH   1   2
ATOM      2  C   UNL     1       7.796   7.151  18.193  0.00  0.00    +0.000 A 
ATOM      3  N   UNL     1       7.213   7.810  17.213  0.00  0.00    +0.000 NA
ATOM      4  N   UNL     1       7.673   9.104  17.287  0.00  0.00    +0.000 NA
ATOM      5  C   UNL     1       8.517   9.151  18.302  0.00  0.00    +0.000 A 
ATOM      6  O   UNL     1       8.644   7.941  18.937  0.00  0.00    +0.000 OA
BRANCH   5   7
ATOM      7  C   UNL     1       9.309  10.276  18.781  0.00  0.00    +0.000 A 
ATOM      8  C   UNL     1       9.320  10.561  20.157  0.00  0.00    +0.000 A 
ATOM      9  C   UNL     1      10.004  11.669  20.658  0.00  0.00    +0.000 A 
ATOM     10  C   UNL     1      10.694  12.508  19.789  0.00  0.00    +0.000 A 
ATOM     11  C   UNL     1      10.717  12.228  18.422  0.00  0.00    +0.000 A 
ATOM     12  C   UNL     1      10.031  11.115  17.921  0.00  0.00    +0.000 A 
ENDBRANCH   5   7
ENDBRANCH   1   2
BRANCH   1  13
ATOM     13  O   UNL     1       6.228   5.378  18.621  0.00  0.00    +0.000 OA
BRANCH  13  14
ATOM     14  C   UNL     1       5.819   4.555  17.643  0.00  0.00    +0.000 C 
ATOM     15  O   UNL     1       6.442   4.208  16.656  0.00  0.00    +0.000 OA
BRANCH  14  20
ATOM     16  O   UNL     1       0.715   2.629  18.570  0.00  0.00    +0.000 OA
ATOM     17  C   UNL     1       1.810   3.139  18.346  0.00  0.00    +0.000 C 
ATOM     18  C   UNL     1       2.095   4.582  18.659  0.00  0.00    +0.000 C 
ATOM     19  C   UNL     1       3.568   4.881  18.815  0.00  0.00    +0.000 C 
ATOM     20  C   UNL     1       4.411   4.046  17.897  0.00  0.00    +0.000 C 
ATOM     21  N   UNL     1       4.053   2.897  17.411  0.00  0.00    +0.000 NA
ATOM     22  N   UNL     1       2.807   2.443  17.713  0.00  0.00    +0.000 N 
ATOM     23  H   UNL     1       2.587   1.492  17.424  0.00  0.00    +0.000 HD
ENDBRANCH  14  20
ENDBRANCH  13  14
ENDBRANCH   1  13
TORSDOF 5
ENDMDL
