MODEL 1
REMARK VINA RESULT:      -8.5      0.000      0.000
REMARK  Name = 
REMARK  9 active torsions:
REMARK  status: ('A' for Active; 'I' for Inactive)
REMARK    1  A    between atoms: C_1  and  N_2
REMARK    2  A    between atoms: C_6  and  C_7
REMARK    3  A    between atoms: C_10  and  N_11
REMARK    4  A    between atoms: N_11  and  C_12
REMARK    5  A    between atoms: C_14  and  O_15
REMARK    6  A    between atoms: C_16  and  O_17
REMARK    7  A    between atoms: C_18  and  C_19
REMARK    8  A    between atoms: C_18  and  C_20
REMARK    9  A    between atoms: C_21  and  C_22
REMARK                            x       y       z     vdW  Elec       q    Type
REMARK                         _______ _______ _______ _____ _____    ______ ____
ROOT
ATOM      1  C   UNL     1       1.884   7.238  20.205  0.00  0.00    +0.000 A 
ATOM      2  C   UNL     1       3.119   6.709  19.730  0.00  0.00    +0.000 A 
ATOM      3  C   UNL     1       3.113   5.329  19.924  0.00  0.00    +0.000 A 
ATOM      4  C   UNL     1       4.013   4.237  19.588  0.00  0.00    +0.000 A 
ATOM      5  C   UNL     1       3.507   2.987  19.777  0.00  0.00    +0.000 A 
ATOM      6  C   UNL     1       2.199   2.867  20.484  0.00  0.00    +0.000 A 
ATOM      7  N   UNL     1       1.422   3.824  20.863  0.00  0.00    +0.000 NA
ATOM      8  N   UNL     1       1.906   5.033  20.536  0.00  0.00    +0.000 N 
ATOM      9  C   UNL     1       1.186   6.176  20.727  0.00  0.00    +0.000 A 
ENDROOT
BRANCH   1  15
ATOM     10  C   UNL     1       1.756   9.346  17.791  0.00  0.00    +0.000 C 
ATOM     11  N   UNL     1       1.301   9.528  19.145  0.00  0.00    +0.000 N 
ATOM     12  N   UNL     1       0.704  10.696  19.464  0.00  0.00    +0.000 NA
ATOM     13  C   UNL     1       0.312  10.512  20.733  0.00  0.00    +0.000 A 
ATOM     14  C   UNL     1       0.665   9.247  21.216  0.00  0.00    +0.000 A 
ATOM     15  C   UNL     1       1.324   8.620  20.172  0.00  0.00    +0.000 A 
ENDBRANCH   1  15
BRANCH   5  16
ATOM     16  C   UNL     1       4.065   1.699  19.285  0.00  0.00    +0.000 C 
ATOM     17  N   UNL     1       5.136   1.205  19.951  0.00  0.00    +0.000 N 
ATOM     18  O   UNL     1       3.676   1.172  18.250  0.00  0.00    +0.000 OA
ATOM     19  H   UNL     1       5.499   1.671  20.773  0.00  0.00    +0.000 HD
ATOM     20  H   UNL     1       5.623   0.414  19.553  0.00  0.00    +0.000 HD
ENDBRANCH   5  16
BRANCH   4  21
ATOM     21  N   UNL     1       5.247   4.548  18.957  0.00  0.00    +0.000 N 
ATOM     22  H   UNL     1       5.875   3.750  19.063  0.00  0.00    +0.000 HD
BRANCH  21  23
ATOM     23  C   UNL     1       5.388   5.105  17.578  0.00  0.00    +0.000 C 
ATOM     24  C   UNL     1       4.760   4.158  16.540  0.00  0.00    +0.000 C 
ATOM     25  C   UNL     1       5.826   3.787  15.516  0.00  0.00    +0.000 C 
ATOM     26  C   UNL     1       6.996   4.750  15.701  0.00  0.00    +0.000 C 
ATOM     27  C   UNL     1       6.888   5.316  17.146  0.00  0.00    +0.000 C 
ATOM     28  C   UNL     1       7.279   6.809  17.167  0.00  0.00    +0.000 C 
ATOM     29  C   UNL     1       7.888   4.583  18.065  0.00  0.00    +0.000 C 
BRANCH  25  30
ATOM     30  O   UNL     1       5.272   3.863  14.208  0.00  0.00    +0.000 OA
ATOM     31  H   UNL     1       4.454   4.412  14.270  0.00  0.00    +0.000 HD
ENDBRANCH  25  30
BRANCH  26  32
ATOM     32  O   UNL     1       6.955   5.744  14.672  0.00  0.00    +0.000 OA
ATOM     33  H   UNL     1       7.814   6.197  14.642  0.00  0.00    +0.000 HD
ENDBRANCH  26  32
ENDBRANCH  21  23
ENDBRANCH   4  21
TORSDOF 6
ENDMDL
MODEL 2
REMARK VINA RESULT:      -8.4      0.570      1.114
REMARK  Name = 
REMARK  9 active torsions:
REMARK  status: ('A' for Active; 'I' for Inactive)
REMARK    1  A    between atoms: C_1  and  N_2
REMARK    2  A    between atoms: C_6  and  C_7
REMARK    3  A    between atoms: C_10  and  N_11
REMARK    4  A    between atoms: N_11  and  C_12
REMARK    5  A    between atoms: C_14  and  O_15
REMARK    6  A    between atoms: C_16  and  O_17
REMARK    7  A    between atoms: C_18  and  C_19
REMARK    8  A    between atoms: C_18  and  C_20
REMARK    9  A    between atoms: C_21  and  C_22
REMARK                            x       y       z     vdW  Elec       q    Type
REMARK                         _______ _______ _______ _____ _____    ______ ____
ROOT
ATOM      1  C   UNL     1       2.031   7.287  19.842  0.00  0.00    +0.000 A 
ATOM      2  C   UNL     1       3.249   6.694  19.397  0.00  0.00    +0.000 A 
ATOM      3  C   UNL     1       3.232   5.343  19.737  0.00  0.00    +0.000 A 
ATOM      4  C   UNL     1       4.111   4.209  19.498  0.00  0.00    +0.000 A 
ATOM      5  C   UNL     1       3.597   2.994  19.831  0.00  0.00    +0.000 A 
ATOM      6  C   UNL     1       2.306   2.967  20.579  0.00  0.00    +0.000 A 
ATOM      7  N   UNL     1       1.549   3.969  20.873  0.00  0.00    +0.000 NA
ATOM      8  N   UNL     1       2.038   5.130  20.406  0.00  0.00    +0.000 N 
ATOM      9  C   UNL     1       1.336   6.297  20.492  0.00  0.00    +0.000 A 
ENDROOT
BRANCH   1  15
ATOM     10  C   UNL     1       1.054   9.391  22.058  0.00  0.00    +0.000 C 
ATOM     11  N   UNL     1       1.040   9.547  20.626  0.00  0.00    +0.000 N 
ATOM     12  N   UNL     1       0.614  10.724  20.120  0.00  0.00    +0.000 NA
ATOM     13  C   UNL     1       0.820  10.592  18.802  0.00  0.00    +0.000 A 
ATOM     14  C   UNL     1       1.361   9.343  18.476  0.00  0.00    +0.000 A 
ATOM     15  C   UNL     1       1.486   8.666  19.676  0.00  0.00    +0.000 A 
ENDBRANCH   1  15
BRANCH   5  16
ATOM     16  C   UNL     1       4.128   1.652  19.466  0.00  0.00    +0.000 C 
ATOM     17  N   UNL     1       5.188   1.202  20.179  0.00  0.00    +0.000 N 
ATOM     18  O   UNL     1       3.728   1.038  18.485  0.00  0.00    +0.000 OA
ATOM     19  H   UNL     1       5.560   1.737  20.954  0.00  0.00    +0.000 HD
ATOM     20  H   UNL     1       5.658   0.367  19.860  0.00  0.00    +0.000 HD
ENDBRANCH   5  16
BRANCH   4  21
ATOM     21  N   UNL     1       5.332   4.434  18.807  0.00  0.00    +0.000 N 
ATOM     22  H   UNL     1       5.895   3.584  18.862  0.00  0.00    +0.000 HD
BRANCH  21  23
ATOM     23  C   UNL     1       5.446   5.015  17.436  0.00  0.00    +0.000 C 
ATOM     24  C   UNL     1       4.847   4.061  16.387  0.00  0.00    +0.000 C 
ATOM     25  C   UNL     1       5.920   3.742  15.354  0.00  0.00    +0.000 C 
ATOM     26  C   UNL     1       7.057   4.742  15.547  0.00  0.00    +0.000 C 
ATOM     27  C   UNL     1       6.936   5.284  17.000  0.00  0.00    +0.000 C 
ATOM     28  C   UNL     1       7.274   6.789  17.041  0.00  0.00    +0.000 C 
ATOM     29  C   UNL     1       7.966   4.574  17.905  0.00  0.00    +0.000 C 
BRANCH  25  30
ATOM     30  O   UNL     1       5.358   3.816  14.049  0.00  0.00    +0.000 OA
ATOM     31  H   UNL     1       6.104   3.959  13.419  0.00  0.00    +0.000 HD
ENDBRANCH  25  30
BRANCH  26  32
ATOM     32  O   UNL     1       6.976   5.748  14.532  0.00  0.00    +0.000 OA
ATOM     33  H   UNL     1       7.578   5.509  13.807  0.00  0.00    +0.000 HD
ENDBRANCH  26  32
ENDBRANCH  21  23
ENDBRANCH   4  21
TORSDOF 6
ENDMDL
MODEL 3
REMARK VINA RESULT:      -8.3      1.468      1.961
REMARK  Name = 
REMARK  9 active torsions:
REMARK  status: ('A' for Active; 'I' for Inactive)
REMARK    1  A    between atoms: C_1  and  N_2
REMARK    2  A    between atoms: C_6  and  C_7
REMARK    3  A    between atoms: C_10  and  N_11
REMARK    4  A    between atoms: N_11  and  C_12
REMARK    5  A    between atoms: C_14  and  O_15
REMARK    6  A    between atoms: C_16  and  O_17
REMARK    7  A    between atoms: C_18  and  C_19
REMARK    8  A    between atoms: C_18  and  C_20
REMARK    9  A    between atoms: C_21  and  C_22
REMARK                            x       y       z     vdW  Elec       q    Type
REMARK                         _______ _______ _______ _____ _____    ______ ____
ROOT
ATOM      1  C   UNL     1       1.593   7.656  20.315  0.00  0.00    +0.000 A 
ATOM      2  C   UNL     1       2.307   7.114  19.206  0.00  0.00    +0.000 A 
ATOM      3  C   UNL     1       2.409   5.735  19.377  0.00  0.00    +0.000 A 
ATOM      4  C   UNL     1       2.930   4.634  18.583  0.00  0.00    +0.000 A 
ATOM      5  C   UNL     1       2.625   3.390  19.043  0.00  0.00    +0.000 A 
ATOM      6  C   UNL     1       1.986   3.283  20.387  0.00  0.00    +0.000 A 
ATOM      7  N   UNL     1       1.588   4.248  21.145  0.00  0.00    +0.000 NA
ATOM      8  N   UNL     1       1.794   5.452  20.585  0.00  0.00    +0.000 N 
ATOM      9  C   UNL     1       1.332   6.602  21.156  0.00  0.00    +0.000 A 
ENDROOT
BRANCH   1  15
ATOM     10  C   UNL     1       0.791  10.023  18.305  0.00  0.00    +0.000 C 
ATOM     11  N   UNL     1       0.820  10.060  19.744  0.00  0.00    +0.000 N 
ATOM     12  N   UNL     1       0.426  11.196  20.359  0.00  0.00    +0.000 NA
ATOM     13  C   UNL     1       0.466  10.879  21.661  0.00  0.00    +0.000 A 
ATOM     14  C   UNL     1       0.889   9.562  21.870  0.00  0.00    +0.000 A 
ATOM     15  C   UNL     1       1.131   9.043  20.609  0.00  0.00    +0.000 A 
ENDBRANCH   1  15
BRANCH   5  16
ATOM     16  C   UNL     1       2.777   2.095  18.326  0.00  0.00    +0.000 C 
ATOM     17  N   UNL     1       3.777   1.281  18.742  0.00  0.00    +0.000 N 
ATOM     18  O   UNL     1       2.132   1.826  17.320  0.00  0.00    +0.000 OA
ATOM     19  H   UNL     1       4.354   1.529  19.537  0.00  0.00    +0.000 HD
ATOM     20  H   UNL     1       3.995   0.468  18.184  0.00  0.00    +0.000 HD
ENDBRANCH   5  16
BRANCH   4  21
ATOM     21  N   UNL     1       3.555   4.932  17.342  0.00  0.00    +0.000 N 
ATOM     22  H   UNL     1       3.513   5.941  17.193  0.00  0.00    +0.000 HD
BRANCH  21  23
ATOM     23  C   UNL     1       4.893   4.426  16.914  0.00  0.00    +0.000 C 
ATOM     24  C   UNL     1       5.844   4.310  18.118  0.00  0.00    +0.000 C 
ATOM     25  C   UNL     1       7.085   5.149  17.837  0.00  0.00    +0.000 C 
ATOM     26  C   UNL     1       7.076   5.501  16.353  0.00  0.00    +0.000 C 
ATOM     27  C   UNL     1       5.604   5.365  15.867  0.00  0.00    +0.000 C 
ATOM     28  C   UNL     1       5.562   4.763  14.447  0.00  0.00    +0.000 C 
ATOM     29  C   UNL     1       4.957   6.762  15.776  0.00  0.00    +0.000 C 
BRANCH  25  30
ATOM     30  O   UNL     1       8.247   4.415  18.206  0.00  0.00    +0.000 OA
ATOM     31  H   UNL     1       8.078   4.037  19.102  0.00  0.00    +0.000 HD
ENDBRANCH  25  30
BRANCH  26  32
ATOM     32  O   UNL     1       8.006   4.661  15.663  0.00  0.00    +0.000 OA
ATOM     33  H   UNL     1       8.891   5.059  15.723  0.00  0.00    +0.000 HD
ENDBRANCH  26  32
ENDBRANCH  21  23
ENDBRANCH   4  21
TORSDOF 6
ENDMDL
MODEL 4
REMARK VINA RESULT:      -8.3      1.632      2.376
REMARK  Name = 
REMARK  9 active torsions:
REMARK  status: ('A' for Active; 'I' for Inactive)
REMARK    1  A    between atoms: C_1  and  N_2
REMARK    2  A    between atoms: C_6  and  C_7
REMARK    3  A    between atoms: C_10  and  N_11
REMARK    4  A    between atoms: N_11  and  C_12
REMARK    5  A    between atoms: C_14  and  O_15
REMARK    6  A    between atoms: C_16  and  O_17
REMARK    7  A    between atoms: C_18  and  C_19
REMARK    8  A    between atoms: C_18  and  C_20
REMARK    9  A    between atoms: C_21  and  C_22
REMARK                            x       y       z     vdW  Elec       q    Type
REMARK                         _______ _______ _______ _____ _____    ______ ____
ROOT
ATOM      1  C   UNL     1       1.801   8.045  19.551  0.00  0.00    +0.000 A 
ATOM      2  C   UNL     1       2.421   7.226  18.563  0.00  0.00    +0.000 A 
ATOM      3  C   UNL     1       2.461   5.916  19.036  0.00  0.00    +0.000 A 
ATOM      4  C   UNL     1       2.878   4.635  18.488  0.00  0.00    +0.000 A 
ATOM      5  C   UNL     1       2.536   3.546  19.230  0.00  0.00    +0.000 A 
ATOM      6  C   UNL     1       1.971   3.783  20.591  0.00  0.00    +0.000 A 
ATOM      7  N   UNL     1       1.667   4.915  21.128  0.00  0.00    +0.000 NA
ATOM      8  N   UNL     1       1.902   5.949  20.303  0.00  0.00    +0.000 N 
ATOM      9  C   UNL     1       1.534   7.224  20.619  0.00  0.00    +0.000 A 
ENDROOT
BRANCH   1  15
ATOM     10  C   UNL     1       0.664   9.885  21.920  0.00  0.00    +0.000 C 
ATOM     11  N   UNL     1       0.913  10.262  20.553  0.00  0.00    +0.000 N 
ATOM     12  N   UNL     1       0.696  11.547  20.198  0.00  0.00    +0.000 NA
ATOM     13  C   UNL     1       1.113  11.596  18.925  0.00  0.00    +0.000 A 
ATOM     14  C   UNL     1       1.579  10.355  18.475  0.00  0.00    +0.000 A 
ATOM     15  C   UNL     1       1.429   9.490  19.544  0.00  0.00    +0.000 A 
ENDBRANCH   1  15
BRANCH   5  16
ATOM     16  C   UNL     1       2.580   2.117  18.818  0.00  0.00    +0.000 C 
ATOM     17  N   UNL     1       1.402   1.451  18.806  0.00  0.00    +0.000 N 
ATOM     18  O   UNL     1       3.635   1.524  18.633  0.00  0.00    +0.000 OA
ATOM     19  H   UNL     1       0.532   1.925  19.019  0.00  0.00    +0.000 HD
ATOM     20  H   UNL     1       1.420   0.449  18.674  0.00  0.00    +0.000 HD
ENDBRANCH   5  16
BRANCH   4  21
ATOM     21  N   UNL     1       3.446   4.609  17.186  0.00  0.00    +0.000 N 
ATOM     22  H   UNL     1       3.233   5.493  16.722  0.00  0.00    +0.000 HD
BRANCH  21  23
ATOM     23  C   UNL     1       4.851   4.213  16.871  0.00  0.00    +0.000 C 
ATOM     24  C   UNL     1       5.711   4.192  18.147  0.00  0.00    +0.000 C 
ATOM     25  C   UNL     1       6.895   5.130  17.948  0.00  0.00    +0.000 C 
ATOM     26  C   UNL     1       6.973   5.463  16.461  0.00  0.00    +0.000 C 
ATOM     27  C   UNL     1       5.560   5.196  15.866  0.00  0.00    +0.000 C 
ATOM     28  C   UNL     1       5.681   4.576  14.458  0.00  0.00    +0.000 C 
ATOM     29  C   UNL     1       4.808   6.533  15.699  0.00  0.00    +0.000 C 
BRANCH  25  30
ATOM     30  O   UNL     1       8.081   4.502  18.419  0.00  0.00    +0.000 OA
ATOM     31  H   UNL     1       8.321   4.937  19.272  0.00  0.00    +0.000 HD
ENDBRANCH  25  30
BRANCH  26  32
ATOM     32  O   UNL     1       8.022   4.696  15.861  0.00  0.00    +0.000 OA
ATOM     33  H   UNL     1       8.294   5.131  15.035  0.00  0.00    +0.000 HD
ENDBRANCH  26  32
ENDBRANCH  21  23
ENDBRANCH   4  21
TORSDOF 6
ENDMDL
MODEL 5
REMARK VINA RESULT:      -8.2      1.920      2.741
REMARK  Name = 
REMARK  9 active torsions:
REMARK  status: ('A' for Active; 'I' for Inactive)
REMARK    1  A    between atoms: C_1  and  N_2
REMARK    2  A    between atoms: C_6  and  C_7
REMARK    3  A    between atoms: C_10  and  N_11
REMARK    4  A    between atoms: N_11  and  C_12
REMARK    5  A    between atoms: C_14  and  O_15
REMARK    6  A    between atoms: C_16  and  O_17
REMARK    7  A    between atoms: C_18  and  C_19
REMARK    8  A    between atoms: C_18  and  C_20
REMARK    9  A    between atoms: C_21  and  C_22
REMARK                            x       y       z     vdW  Elec       q    Type
REMARK                         _______ _______ _______ _____ _____    ______ ____
ROOT
ATOM      1  C   UNL     1       1.658   9.159  19.032  0.00  0.00    +0.000 A 
ATOM      2  C   UNL     1       2.313   8.173  18.237  0.00  0.00    +0.000 A 
ATOM      3  C   UNL     1       2.331   6.974  18.946  0.00  0.00    +0.000 A 
ATOM      4  C   UNL     1       2.766   5.616  18.662  0.00  0.00    +0.000 A 
ATOM      5  C   UNL     1       2.393   4.682  19.580  0.00  0.00    +0.000 A 
ATOM      6  C   UNL     1       1.777   5.164  20.851  0.00  0.00    +0.000 A 
ATOM      7  N   UNL     1       1.456   6.376  21.156  0.00  0.00    +0.000 NA
ATOM      8  N   UNL     1       1.725   7.239  20.163  0.00  0.00    +0.000 N 
ATOM      9  C   UNL     1       1.349   8.549  20.223  0.00  0.00    +0.000 A 
ENDROOT
BRANCH   1  15
ATOM     10  C   UNL     1      -1.226  10.564  18.986  0.00  0.00    +0.000 C 
ATOM     11  N   UNL     1       0.051  11.162  18.693  0.00  0.00    +0.000 N 
ATOM     12  N   UNL     1       0.084  12.481  18.406  0.00  0.00    +0.000 NA
ATOM     13  C   UNL     1       1.394  12.744  18.292  0.00  0.00    +0.000 A 
ATOM     14  C   UNL     1       2.181  11.605  18.495  0.00  0.00    +0.000 A 
ATOM     15  C   UNL     1       1.289  10.575  18.743  0.00  0.00    +0.000 A 
ENDBRANCH   1  15
BRANCH   5  16
ATOM     16  C   UNL     1       2.449   3.201  19.443  0.00  0.00    +0.000 C 
ATOM     17  N   UNL     1       3.240   2.537  20.318  0.00  0.00    +0.000 N 
ATOM     18  O   UNL     1       1.924   2.613  18.505  0.00  0.00    +0.000 OA
ATOM     19  H   UNL     1       3.725   3.029  21.059  0.00  0.00    +0.000 HD
ATOM     20  H   UNL     1       3.411   1.555  20.158  0.00  0.00    +0.000 HD
ENDBRANCH   5  16
BRANCH   4  21
ATOM     21  N   UNL     1       3.382   5.351  17.410  0.00  0.00    +0.000 N 
ATOM     22  H   UNL     1       3.346   6.201  16.846  0.00  0.00    +0.000 HD
BRANCH  21  23
ATOM     23  C   UNL     1       4.712   4.695  17.231  0.00  0.00    +0.000 C 
ATOM     24  C   UNL     1       5.554   4.809  18.514  0.00  0.00    +0.000 C 
ATOM     25  C   UNL     1       6.867   5.500  18.172  0.00  0.00    +0.000 C 
ATOM     26  C   UNL     1       7.001   5.506  16.651  0.00  0.00    +0.000 C 
ATOM     27  C   UNL     1       5.567   5.336  16.073  0.00  0.00    +0.000 C 
ATOM     28  C   UNL     1       5.597   4.430  14.824  0.00  0.00    +0.000 C 
ATOM     29  C   UNL     1       5.027   6.706  15.614  0.00  0.00    +0.000 C 
BRANCH  25  30
ATOM     30  O   UNL     1       7.942   4.813  18.801  0.00  0.00    +0.000 OA
ATOM     31  H   UNL     1       8.449   4.353  18.089  0.00  0.00    +0.000 HD
ENDBRANCH  25  30
BRANCH  26  32
ATOM     32  O   UNL     1       7.924   4.486  16.256  0.00  0.00    +0.000 OA
ATOM     33  H   UNL     1       8.572   4.872  15.644  0.00  0.00    +0.000 HD
ENDBRANCH  26  32
ENDBRANCH  21  23
ENDBRANCH   4  21
TORSDOF 6
ENDMDL
MODEL 6
REMARK VINA RESULT:      -7.8      1.680      2.297
REMARK  Name = 
REMARK  9 active torsions:
REMARK  status: ('A' for Active; 'I' for Inactive)
REMARK    1  A    between atoms: C_1  and  N_2
REMARK    2  A    between atoms: C_6  and  C_7
REMARK    3  A    between atoms: C_10  and  N_11
REMARK    4  A    between atoms: N_11  and  C_12
REMARK    5  A    between atoms: C_14  and  O_15
REMARK    6  A    between atoms: C_16  and  O_17
REMARK    7  A    between atoms: C_18  and  C_19
REMARK    8  A    between atoms: C_18  and  C_20
REMARK    9  A    between atoms: C_21  and  C_22
REMARK                            x       y       z     vdW  Elec       q    Type
REMARK                         _______ _______ _______ _____ _____    ______ ____
ROOT
ATOM      1  C   UNL     1       1.539   8.479  19.706  0.00  0.00    +0.000 A 
ATOM      2  C   UNL     1       2.228   7.692  18.737  0.00  0.00    +0.000 A 
ATOM      3  C   UNL     1       2.346   6.392  19.226  0.00  0.00    +0.000 A 
ATOM      4  C   UNL     1       2.855   5.136  18.701  0.00  0.00    +0.000 A 
ATOM      5  C   UNL     1       2.573   4.035  19.450  0.00  0.00    +0.000 A 
ATOM      6  C   UNL     1       1.972   4.248  20.799  0.00  0.00    +0.000 A 
ATOM      7  N   UNL     1       1.586   5.364  21.318  0.00  0.00    +0.000 NA
ATOM      8  N   UNL     1       1.766   6.402  20.484  0.00  0.00    +0.000 N 
ATOM      9  C   UNL     1       1.310   7.654  20.780  0.00  0.00    +0.000 A 
ENDROOT
BRANCH   1  15
ATOM     10  C   UNL     1      -0.609   9.895  17.791  0.00  0.00    +0.000 C 
ATOM     11  N   UNL     1       0.178  10.501  18.834  0.00  0.00    +0.000 N 
ATOM     12  N   UNL     1      -0.017  11.812  19.097  0.00  0.00    +0.000 NA
ATOM     13  C   UNL     1       0.766  12.038  20.161  0.00  0.00    +0.000 A 
ATOM     14  C   UNL     1       1.456  10.888  20.562  0.00  0.00    +0.000 A 
ATOM     15  C   UNL     1       1.073   9.896  19.677  0.00  0.00    +0.000 A 
ENDBRANCH   1  15
BRANCH   5  16
ATOM     16  C   UNL     1       2.717   2.607  19.056  0.00  0.00    +0.000 C 
ATOM     17  N   UNL     1       1.621   2.005  18.538  0.00  0.00    +0.000 N 
ATOM     18  O   UNL     1       3.725   1.959  19.311  0.00  0.00    +0.000 OA
ATOM     19  H   UNL     1       0.765   2.524  18.382  0.00  0.00    +0.000 HD
ATOM     20  H   UNL     1       1.646   1.005  18.399  0.00  0.00    +0.000 HD
ENDBRANCH   5  16
BRANCH   4  21
ATOM     21  N   UNL     1       3.443   5.132  17.408  0.00  0.00    +0.000 N 
ATOM     22  H   UNL     1       3.395   6.079  17.028  0.00  0.00    +0.000 HD
BRANCH  21  23
ATOM     23  C   UNL     1       4.770   4.533  17.071  0.00  0.00    +0.000 C 
ATOM     24  C   UNL     1       5.696   4.533  18.300  0.00  0.00    +0.000 C 
ATOM     25  C   UNL     1       6.970   5.290  17.945  0.00  0.00    +0.000 C 
ATOM     26  C   UNL     1       6.998   5.459  16.429  0.00  0.00    +0.000 C 
ATOM     27  C   UNL     1       5.530   5.314  15.934  0.00  0.00    +0.000 C 
ATOM     28  C   UNL     1       5.490   4.545  14.596  0.00  0.00    +0.000 C 
ATOM     29  C   UNL     1       4.935   6.711  15.660  0.00  0.00    +0.000 C 
BRANCH  25  30
ATOM     30  O   UNL     1       8.098   4.568  18.424  0.00  0.00    +0.000 OA
ATOM     31  H   UNL     1       8.901   4.995  18.039  0.00  0.00    +0.000 HD
ENDBRANCH  25  30
BRANCH  26  32
ATOM     32  O   UNL     1       7.909   4.510  15.866  0.00  0.00    +0.000 OA
ATOM     33  H   UNL     1       8.078   4.751  14.939  0.00  0.00    +0.000 HD
ENDBRANCH  26  32
ENDBRANCH  21  23
ENDBRANCH   4  21
TORSDOF 6
ENDMDL
MODEL 7
REMARK VINA RESULT:      -7.6      4.179      7.788
REMARK  Name = 
REMARK  9 active torsions:
REMARK  status: ('A' for Active; 'I' for Inactive)
REMARK    1  A    between atoms: C_1  and  N_2
REMARK    2  A    between atoms: C_6  and  C_7
REMARK    3  A    between atoms: C_10  and  N_11
REMARK    4  A    between atoms: N_11  and  C_12
REMARK    5  A    between atoms: C_14  and  O_15
REMARK    6  A    between atoms: C_16  and  O_17
REMARK    7  A    between atoms: C_18  and  C_19
REMARK    8  A    between atoms: C_18  and  C_20
REMARK    9  A    between atoms: C_21  and  C_22
REMARK                            x       y       z     vdW  Elec       q    Type
REMARK                         _______ _______ _______ _____ _____    ______ ____
ROOT
ATOM      1  C   UNL     1       4.226   6.357  17.488  0.00  0.00    +0.000 A 
ATOM      2  C   UNL     1       3.452   7.549  17.596  0.00  0.00    +0.000 A 
ATOM      3  C   UNL     1       2.606   7.429  18.697  0.00  0.00    +0.000 A 
ATOM      4  C   UNL     1       1.659   8.304  19.369  0.00  0.00    +0.000 A 
ATOM      5  C   UNL     1       1.195   7.850  20.566  0.00  0.00    +0.000 A 
ATOM      6  C   UNL     1       1.533   6.449  20.956  0.00  0.00    +0.000 A 
ATOM      7  N   UNL     1       2.308   5.627  20.332  0.00  0.00    +0.000 NA
ATOM      8  N   UNL     1       2.843   6.171  19.227  0.00  0.00    +0.000 N 
ATOM      9  C   UNL     1       3.789   5.524  18.488  0.00  0.00    +0.000 A 
ENDROOT
BRANCH   1  15
ATOM     10  C   UNL     1       7.378   6.911  17.709  0.00  0.00    +0.000 C 
ATOM     11  N   UNL     1       6.671   6.246  16.644  0.00  0.00    +0.000 N 
ATOM     12  N   UNL     1       7.393   5.742  15.621  0.00  0.00    +0.000 NA
ATOM     13  C   UNL     1       6.478   5.110  14.872  0.00  0.00    +0.000 A 
ATOM     14  C   UNL     1       5.190   5.221  15.409  0.00  0.00    +0.000 A 
ATOM     15  C   UNL     1       5.330   5.978  16.559  0.00  0.00    +0.000 A 
ENDBRANCH   1  15
BRANCH   5  16
ATOM     16  C   UNL     1       0.444   8.614  21.598  0.00  0.00    +0.000 C 
ATOM     17  N   UNL     1       1.171   9.419  22.409  0.00  0.00    +0.000 N 
ATOM     18  O   UNL     1      -0.748   8.429  21.808  0.00  0.00    +0.000 OA
ATOM     19  H   UNL     1       2.169   9.528  22.277  0.00  0.00    +0.000 HD
ATOM     20  H   UNL     1       0.711   9.834  23.207  0.00  0.00    +0.000 HD
ENDBRANCH   5  16
BRANCH   4  21
ATOM     21  N   UNL     1       1.425   9.594  18.823  0.00  0.00    +0.000 N 
ATOM     22  H   UNL     1       1.477   9.529  17.806  0.00  0.00    +0.000 HD
BRANCH  21  23
ATOM     23  C   UNL     1       0.294  10.493  19.203  0.00  0.00    +0.000 C 
ATOM     24  C   UNL     1      -0.871  10.355  18.206  0.00  0.00    +0.000 C 
ATOM     25  C   UNL     1      -1.173  11.729  17.622  0.00  0.00    +0.000 C 
ATOM     26  C   UNL     1      -0.456  12.764  18.485  0.00  0.00    +0.000 C 
ATOM     27  C   UNL     1       0.694  12.017  19.220  0.00  0.00    +0.000 C 
ATOM     28  C   UNL     1       0.840  12.547  20.662  0.00  0.00    +0.000 C 
ATOM     29  C   UNL     1       2.033  12.296  18.507  0.00  0.00    +0.000 C 
BRANCH  25  30
ATOM     30  O   UNL     1      -2.581  11.935  17.599  0.00  0.00    +0.000 OA
ATOM     31  H   UNL     1      -2.747  12.840  17.956  0.00  0.00    +0.000 HD
ENDBRANCH  25  30
BRANCH  26  32
ATOM     32  O   UNL     1      -1.404  13.392  19.353  0.00  0.00    +0.000 OA
ATOM     33  H   UNL     1      -2.300  13.175  19.047  0.00  0.00    +0.000 HD
ENDBRANCH  26  32
ENDBRANCH  21  23
ENDBRANCH   4  21
TORSDOF 6
ENDMDL
MODEL 8
REMARK VINA RESULT:      -7.5      1.979      2.870
REMARK  Name = 
REMARK  9 active torsions:
REMARK  status: ('A' for Active; 'I' for Inactive)
REMARK    1  A    between atoms: C_1  and  N_2
REMARK    2  A    between atoms: C_6  and  C_7
REMARK    3  A    between atoms: C_10  and  N_11
REMARK    4  A    between atoms: N_11  and  C_12
REMARK    5  A    between atoms: C_14  and  O_15
REMARK    6  A    between atoms: C_16  and  O_17
REMARK    7  A    between atoms: C_18  and  C_19
REMARK    8  A    between atoms: C_18  and  C_20
REMARK    9  A    between atoms: C_21  and  C_22
REMARK                            x       y       z     vdW  Elec       q    Type
REMARK                         _______ _______ _______ _____ _____    ______ ____
ROOT
ATOM      1  C   UNL     1       1.273   9.535  19.181  0.00  0.00    +0.000 A 
ATOM      2  C   UNL     1       2.080   8.640  18.420  0.00  0.00    +0.000 A 
ATOM      3  C   UNL     1       2.161   7.428  19.103  0.00  0.00    +0.000 A 
ATOM      4  C   UNL     1       2.747   6.127  18.825  0.00  0.00    +0.000 A 
ATOM      5  C   UNL     1       2.399   5.135  19.692  0.00  0.00    +0.000 A 
ATOM      6  C   UNL     1       1.644   5.520  20.920  0.00  0.00    +0.000 A 
ATOM      7  N   UNL     1       1.184   6.686  21.225  0.00  0.00    +0.000 NA
ATOM      8  N   UNL     1       1.442   7.599  20.274  0.00  0.00    +0.000 N 
ATOM      9  C   UNL     1       0.936   8.865  20.331  0.00  0.00    +0.000 A 
ENDROOT
BRANCH   1  15
ATOM     10  C   UNL     1       2.876  12.079  18.064  0.00  0.00    +0.000 C 
ATOM     11  N   UNL     1       1.490  12.009  18.447  0.00  0.00    +0.000 N 
ATOM     12  N   UNL     1       0.730  13.114  18.288  0.00  0.00    +0.000 NA
ATOM     13  C   UNL     1      -0.500  12.700  18.625  0.00  0.00    +0.000 A 
ATOM     14  C   UNL     1      -0.518  11.352  19.001  0.00  0.00    +0.000 A 
ATOM     15  C   UNL     1       0.791  10.917  18.894  0.00  0.00    +0.000 A 
ENDBRANCH   1  15
BRANCH   5  16
ATOM     16  C   UNL     1       2.609   3.672  19.528  0.00  0.00    +0.000 C 
ATOM     17  N   UNL     1       3.376   3.058  20.461  0.00  0.00    +0.000 N 
ATOM     18  O   UNL     1       2.233   3.066  18.532  0.00  0.00    +0.000 OA
ATOM     19  H   UNL     1       3.740   3.570  21.255  0.00  0.00    +0.000 HD
ATOM     20  H   UNL     1       3.655   2.101  20.296  0.00  0.00    +0.000 HD
ENDBRANCH   5  16
BRANCH   4  21
ATOM     21  N   UNL     1       3.480   5.957  17.620  0.00  0.00    +0.000 N 
ATOM     22  H   UNL     1       3.617   6.875  17.194  0.00  0.00    +0.000 HD
BRANCH  21  23
ATOM     23  C   UNL     1       4.734   5.158  17.485  0.00  0.00    +0.000 C 
ATOM     24  C   UNL     1       5.665   5.394  18.687  0.00  0.00    +0.000 C 
ATOM     25  C   UNL     1       7.007   5.894  18.169  0.00  0.00    +0.000 C 
ATOM     26  C   UNL     1       7.041   5.644  16.664  0.00  0.00    +0.000 C 
ATOM     27  C   UNL     1       5.563   5.521  16.195  0.00  0.00    +0.000 C 
ATOM     28  C   UNL     1       5.433   4.429  15.113  0.00  0.00    +0.000 C 
ATOM     29  C   UNL     1       5.114   6.846  15.544  0.00  0.00    +0.000 C 
BRANCH  25  30
ATOM     30  O   UNL     1       8.059   5.216  18.848  0.00  0.00    +0.000 OA
ATOM     31  H   UNL     1       7.654   4.753  19.620  0.00  0.00    +0.000 HD
ENDBRANCH  25  30
BRANCH  26  32
ATOM     32  O   UNL     1       7.845   4.491  16.395  0.00  0.00    +0.000 OA
ATOM     33  H   UNL     1       7.614   4.147  15.516  0.00  0.00    +0.000 HD
ENDBRANCH  26  32
ENDBRANCH  21  23
ENDBRANCH   4  21
TORSDOF 6
ENDMDL
MODEL 9
REMARK VINA RESULT:      -7.4      1.469      2.331
REMARK  Name = 
REMARK  9 active torsions:
REMARK  status: ('A' for Active; 'I' for Inactive)
REMARK    1  A    between atoms: C_1  and  N_2
REMARK    2  A    between atoms: C_6  and  C_7
REMARK    3  A    between atoms: C_10  and  N_11
REMARK    4  A    between atoms: N_11  and  C_12
REMARK    5  A    between atoms: C_14  and  O_15
REMARK    6  A    between atoms: C_16  and  O_17
REMARK    7  A    between atoms: C_18  and  C_19
REMARK    8  A    between atoms: C_18  and  C_20
REMARK    9  A    between atoms: C_21  and  C_22
REMARK                            x       y       z     vdW  Elec       q    Type
REMARK                         _______ _______ _______ _____ _____    ______ ____
ROOT
ATOM      1  C   UNL     1       1.821   7.559  19.765  0.00  0.00    +0.000 A 
ATOM      2  C   UNL     1       2.624   6.855  18.820  0.00  0.00    +0.000 A 
ATOM      3  C   UNL     1       2.902   5.589  19.332  0.00  0.00    +0.000 A 
ATOM      4  C   UNL     1       3.580   4.403  18.836  0.00  0.00    +0.000 A 
ATOM      5  C   UNL     1       3.431   3.285  19.598  0.00  0.00    +0.000 A 
ATOM      6  C   UNL     1       2.782   3.437  20.933  0.00  0.00    +0.000 A 
ATOM      7  N   UNL     1       2.245   4.500  21.428  0.00  0.00    +0.000 NA
ATOM      8  N   UNL     1       2.303   5.540  20.580  0.00  0.00    +0.000 N 
ATOM      9  C   UNL     1       1.682   6.726  20.847  0.00  0.00    +0.000 A 
ENDROOT
BRANCH   1  15
ATOM     10  C   UNL     1       0.862   9.486  22.143  0.00  0.00    +0.000 C 
ATOM     11  N   UNL     1       0.738   9.706  20.725  0.00  0.00    +0.000 N 
ATOM     12  N   UNL     1       0.200  10.872  20.307  0.00  0.00    +0.000 NA
ATOM     13  C   UNL     1       0.322  10.814  18.973  0.00  0.00    +0.000 A 
ATOM     14  C   UNL     1       0.921   9.623  18.550  0.00  0.00    +0.000 A 
ATOM     15  C   UNL     1       1.175   8.902  19.704  0.00  0.00    +0.000 A 
ENDBRANCH   1  15
BRANCH   5  16
ATOM     16  C   UNL     1       3.768   1.883  19.230  0.00  0.00    +0.000 C 
ATOM     17  N   UNL     1       4.883   1.357  19.789  0.00  0.00    +0.000 N 
ATOM     18  O   UNL     1       3.157   1.273  18.362  0.00  0.00    +0.000 OA
ATOM     19  H   UNL     1       5.427   1.883  20.463  0.00  0.00    +0.000 HD
ATOM     20  H   UNL     1       5.215   0.467  19.446  0.00  0.00    +0.000 HD
ENDBRANCH   5  16
BRANCH   4  21
ATOM     21  N   UNL     1       4.188   4.458  17.553  0.00  0.00    +0.000 N 
ATOM     22  H   UNL     1       3.583   4.997  16.931  0.00  0.00    +0.000 HD
BRANCH  21  23
ATOM     23  C   UNL     1       5.613   4.825  17.295  0.00  0.00    +0.000 C 
ATOM     24  C   UNL     1       6.329   5.192  18.606  0.00  0.00    +0.000 C 
ATOM     25  C   UNL     1       6.893   6.600  18.473  0.00  0.00    +0.000 C 
ATOM     26  C   UNL     1       6.841   6.979  16.995  0.00  0.00    +0.000 C 
ATOM     27  C   UNL     1       5.768   6.065  16.335  0.00  0.00    +0.000 C 
ATOM     28  C   UNL     1       6.225   5.636  14.925  0.00  0.00    +0.000 C 
ATOM     29  C   UNL     1       4.455   6.855  16.155  0.00  0.00    +0.000 C 
BRANCH  25  30
ATOM     30  O   UNL     1       8.220   6.630  18.986  0.00  0.00    +0.000 OA
ATOM     31  H   UNL     1       8.754   6.000  18.446  0.00  0.00    +0.000 HD
ENDBRANCH  25  30
BRANCH  26  32
ATOM     32  O   UNL     1       8.150   6.857  16.431  0.00  0.00    +0.000 OA
ATOM     33  H   UNL     1       8.394   5.916  16.407  0.00  0.00    +0.000 HD
ENDBRANCH  26  32
ENDBRANCH  21  23
ENDBRANCH   4  21
TORSDOF 6
ENDMDL
