MODEL 1
REMARK VINA RESULT:      -8.0      0.000      0.000
REMARK  Name = 
REMARK  9 active torsions:
REMARK  status: ('A' for Active; 'I' for Inactive)
REMARK    1  A    between atoms: C_1  and  C_2
REMARK    2  A    between atoms: C_2  and  C_3
REMARK    3  A    between atoms: C_9  and  O_10
REMARK    4  A    between atoms: O_10  and  C_11
REMARK    5  A    between atoms: C_11  and  C_12
REMARK    6  A    between atoms: C_12  and  N_13
REMARK    7  A    between atoms: N_13  and  C_14
REMARK    8  A    between atoms: C_14  and  C_15
REMARK    9  A    between atoms: C_19  and  C_20
REMARK                            x       y       z     vdW  Elec       q    Type
REMARK                         _______ _______ _______ _____ _____    ______ ____
ROOT
ATOM      1  C   UNL     1       7.557   7.576  17.890  0.00  0.00    +0.000 C 
ENDROOT
BRANCH   1   2
ATOM      2  N   UNL     1       8.533   8.497  18.501  0.00  0.00    +0.000 NA
ATOM      3  H   UNL     1       9.478   8.141  18.348  0.00  0.00    +0.000 HD
BRANCH   2   4
ATOM      4  C   UNL     1       8.449   9.841  17.922  0.00  0.00    +0.000 C 
BRANCH   4   5
ATOM      5  C   UNL     1       9.275  10.847  18.684  0.00  0.00    +0.000 A 
ATOM      6  C   UNL     1       9.503  10.687  20.053  0.00  0.00    +0.000 A 
ATOM      7  C   UNL     1      10.206  11.657  20.764  0.00  0.00    +0.000 A 
ATOM      8  C   UNL     1      10.672  12.801  20.112  0.00  0.00    +0.000 A 
ATOM      9  C   UNL     1      10.452  12.996  18.741  0.00  0.00    +0.000 A 
ATOM     10  C   UNL     1       9.768  11.995  18.036  0.00  0.00    +0.000 A 
BRANCH   9  11
ATOM     11  C   UNL     1      10.908  14.217  18.063  0.00  0.00    +0.000 C 
ATOM     12  C   UNL     1      10.124  15.237  17.685  0.00  0.00    +0.000 C 
ATOM     13  C   UNL     1      10.875  16.285  16.937  0.00  0.00    +0.000 C 
ATOM     14  C   UNL     1      12.333  15.877  17.128  0.00  0.00    +0.000 C 
ATOM     15  C   UNL     1      12.323  14.425  17.611  0.00  0.00    +0.000 C 
ENDBRANCH   9  11
ENDBRANCH   4   5
ENDBRANCH   2   4
ENDBRANCH   1   2
BRANCH   1  16
ATOM     16  C   UNL     1       7.794   6.106  18.257  0.00  0.00    +0.000 C 
BRANCH  16  17
ATOM     17  O   UNL     1       6.762   5.590  19.092  0.00  0.00    +0.000 OA
BRANCH  17  26
ATOM     18  C   UNL     1       1.807   6.381  20.098  0.00  0.00    +0.000 C 
ATOM     19  C   UNL     1       2.477   5.004  20.046  0.00  0.00    +0.000 C 
ATOM     20  C   UNL     1       2.119   4.204  21.301  0.00  0.00    +0.000 C 
ATOM     21  C   UNL     1       2.126   4.233  18.758  0.00  0.00    +0.000 C 
ATOM     22  C   UNL     1       3.423   4.299  18.039  0.00  0.00    +0.000 A 
ATOM     23  C   UNL     1       3.725   3.848  16.766  0.00  0.00    +0.000 A 
ATOM     24  C   UNL     1       5.039   3.984  16.310  0.00  0.00    +0.000 A 
ATOM     25  C   UNL     1       6.020   4.569  17.127  0.00  0.00    +0.000 A 
ATOM     26  C   UNL     1       5.710   5.026  18.411  0.00  0.00    +0.000 A 
ATOM     27  C   UNL     1       4.395   4.869  18.847  0.00  0.00    +0.000 A 
ATOM     28  O   UNL     1       3.908   5.227  20.079  0.00  0.00    +0.000 OA
ENDBRANCH  17  26
ENDBRANCH  16  17
ENDBRANCH   1  16
TORSDOF 7
ENDMDL
MODEL 2
REMARK VINA RESULT:      -7.9      6.253      8.960
REMARK  Name = 
REMARK  9 active torsions:
REMARK  status: ('A' for Active; 'I' for Inactive)
REMARK    1  A    between atoms: C_1  and  C_2
REMARK    2  A    between atoms: C_2  and  C_3
REMARK    3  A    between atoms: C_9  and  O_10
REMARK    4  A    between atoms: O_10  and  C_11
REMARK    5  A    between atoms: C_11  and  C_12
REMARK    6  A    between atoms: C_12  and  N_13
REMARK    7  A    between atoms: N_13  and  C_14
REMARK    8  A    between atoms: C_14  and  C_15
REMARK    9  A    between atoms: C_19  and  C_20
REMARK                            x       y       z     vdW  Elec       q    Type
REMARK                         _______ _______ _______ _____ _____    ______ ____
ROOT
ATOM      1  C   UNL     1       1.912   9.433  17.692  0.00  0.00    +0.000 C 
ENDROOT
BRANCH   1   2
ATOM      2  N   UNL     1       1.442  10.397  18.704  0.00  0.00    +0.000 NA
ATOM      3  H   UNL     1       1.557  11.347  18.347  0.00  0.00    +0.000 HD
BRANCH   2   4
ATOM      4  C   UNL     1       0.027  10.199  19.031  0.00  0.00    +0.000 C 
BRANCH   4   5
ATOM      5  C   UNL     1      -0.225  10.202  20.518  0.00  0.00    +0.000 A 
ATOM      6  C   UNL     1       0.069   9.074  21.290  0.00  0.00    +0.000 A 
ATOM      7  C   UNL     1      -0.233   9.058  22.649  0.00  0.00    +0.000 A 
ATOM      8  C   UNL     1      -0.845  10.165  23.242  0.00  0.00    +0.000 A 
ATOM      9  C   UNL     1      -1.161  11.308  22.494  0.00  0.00    +0.000 A 
ATOM     10  C   UNL     1      -0.824  11.317  21.133  0.00  0.00    +0.000 A 
BRANCH   9  11
ATOM     11  C   UNL     1      -1.841  12.457  23.109  0.00  0.00    +0.000 C 
ATOM     12  C   UNL     1      -1.273  13.638  23.388  0.00  0.00    +0.000 C 
ATOM     13  C   UNL     1      -2.204  14.563  24.096  0.00  0.00    +0.000 C 
ATOM     14  C   UNL     1      -3.552  13.856  23.989  0.00  0.00    +0.000 C 
ATOM     15  C   UNL     1      -3.256  12.405  23.601  0.00  0.00    +0.000 C 
ENDBRANCH   9  11
ENDBRANCH   4   5
ENDBRANCH   2   4
ENDBRANCH   1   2
BRANCH   1  16
ATOM     16  C   UNL     1       2.418   8.116  18.294  0.00  0.00    +0.000 C 
BRANCH  16  17
ATOM     17  O   UNL     1       3.146   7.341  17.346  0.00  0.00    +0.000 OA
BRANCH  17  26
ATOM     18  C   UNL     1       1.271   2.714  18.470  0.00  0.00    +0.000 C 
ATOM     19  C   UNL     1       1.990   3.629  19.466  0.00  0.00    +0.000 C 
ATOM     20  C   UNL     1       1.160   3.757  20.747  0.00  0.00    +0.000 C 
ATOM     21  C   UNL     1       3.426   3.155  19.761  0.00  0.00    +0.000 C 
ATOM     22  C   UNL     1       4.209   4.199  19.056  0.00  0.00    +0.000 A 
ATOM     23  C   UNL     1       5.580   4.280  18.885  0.00  0.00    +0.000 A 
ATOM     24  C   UNL     1       6.099   5.388  18.212  0.00  0.00    +0.000 A 
ATOM     25  C   UNL     1       5.245   6.389  17.719  0.00  0.00    +0.000 A 
ATOM     26  C   UNL     1       3.860   6.302  17.891  0.00  0.00    +0.000 A 
ATOM     27  C   UNL     1       3.368   5.192  18.576  0.00  0.00    +0.000 A 
ATOM     28  O   UNL     1       2.049   4.947  18.867  0.00  0.00    +0.000 OA
ENDBRANCH  17  26
ENDBRANCH  16  17
ENDBRANCH   1  16
TORSDOF 7
ENDMDL
MODEL 3
REMARK VINA RESULT:      -7.9      6.448      9.183
REMARK  Name = 
REMARK  9 active torsions:
REMARK  status: ('A' for Active; 'I' for Inactive)
REMARK    1  A    between atoms: C_1  and  C_2
REMARK    2  A    between atoms: C_2  and  C_3
REMARK    3  A    between atoms: C_9  and  O_10
REMARK    4  A    between atoms: O_10  and  C_11
REMARK    5  A    between atoms: C_11  and  C_12
REMARK    6  A    between atoms: C_12  and  N_13
REMARK    7  A    between atoms: N_13  and  C_14
REMARK    8  A    between atoms: C_14  and  C_15
REMARK    9  A    between atoms: C_19  and  C_20
REMARK                            x       y       z     vdW  Elec       q    Type
REMARK                         _______ _______ _______ _____ _____    ______ ____
ROOT
ATOM      1  C   UNL     1       2.046   9.541  17.859  0.00  0.00    +0.000 C 
ENDROOT
BRANCH   1   2
ATOM      2  N   UNL     1       0.766   9.977  18.445  0.00  0.00    +0.000 NA
ATOM      3  H   UNL     1       0.361   9.210  18.986  0.00  0.00    +0.000 HD
BRANCH   2   4
ATOM      4  C   UNL     1       0.939  11.126  19.338  0.00  0.00    +0.000 C 
BRANCH   4   5
ATOM      5  C   UNL     1       0.310  10.903  20.690  0.00  0.00    +0.000 A 
ATOM      6  C   UNL     1       0.777   9.890  21.532  0.00  0.00    +0.000 A 
ATOM      7  C   UNL     1       0.145   9.643  22.748  0.00  0.00    +0.000 A 
ATOM      8  C   UNL     1      -0.969  10.398  23.123  0.00  0.00    +0.000 A 
ATOM      9  C   UNL     1      -1.469  11.415  22.297  0.00  0.00    +0.000 A 
ATOM     10  C   UNL     1      -0.802  11.669  21.090  0.00  0.00    +0.000 A 
BRANCH   9  11
ATOM     11  C   UNL     1      -2.664  12.183  22.673  0.00  0.00    +0.000 C 
ATOM     12  C   UNL     1      -3.189  12.252  23.904  0.00  0.00    +0.000 C 
ATOM     13  C   UNL     1      -4.456  13.038  23.938  0.00  0.00    +0.000 C 
ATOM     14  C   UNL     1      -4.510  13.679  22.555  0.00  0.00    +0.000 C 
ATOM     15  C   UNL     1      -3.514  12.916  21.678  0.00  0.00    +0.000 C 
ENDBRANCH   9  11
ENDBRANCH   4   5
ENDBRANCH   2   4
ENDBRANCH   1   2
BRANCH   1  16
ATOM     16  C   UNL     1       2.189   8.017  17.769  0.00  0.00    +0.000 C 
BRANCH  16  17
ATOM     17  O   UNL     1       3.463   7.571  18.224  0.00  0.00    +0.000 OA
BRANCH  17  26
ATOM     18  C   UNL     1       1.211   2.982  18.471  0.00  0.00    +0.000 C 
ATOM     19  C   UNL     1       2.668   3.261  18.856  0.00  0.00    +0.000 C 
ATOM     20  C   UNL     1       2.965   2.665  20.235  0.00  0.00    +0.000 C 
ATOM     21  C   UNL     1       3.659   2.753  17.789  0.00  0.00    +0.000 C 
ATOM     22  C   UNL     1       4.125   4.040  17.215  0.00  0.00    +0.000 A 
ATOM     23  C   UNL     1       4.978   4.247  16.145  0.00  0.00    +0.000 A 
ATOM     24  C   UNL     1       5.307   5.561  15.807  0.00  0.00    +0.000 A 
ATOM     25  C   UNL     1       4.779   6.640  16.534  0.00  0.00    +0.000 A 
ATOM     26  C   UNL     1       3.915   6.427  17.613  0.00  0.00    +0.000 A 
ATOM     27  C   UNL     1       3.610   5.106  17.938  0.00  0.00    +0.000 A 
ATOM     28  O   UNL     1       2.809   4.697  18.975  0.00  0.00    +0.000 OA
ENDBRANCH  17  26
ENDBRANCH  16  17
ENDBRANCH   1  16
TORSDOF 7
ENDMDL
MODEL 4
REMARK VINA RESULT:      -7.8      6.736     11.172
REMARK  Name = 
REMARK  9 active torsions:
REMARK  status: ('A' for Active; 'I' for Inactive)
REMARK    1  A    between atoms: C_1  and  C_2
REMARK    2  A    between atoms: C_2  and  C_3
REMARK    3  A    between atoms: C_9  and  O_10
REMARK    4  A    between atoms: O_10  and  C_11
REMARK    5  A    between atoms: C_11  and  C_12
REMARK    6  A    between atoms: C_12  and  N_13
REMARK    7  A    between atoms: N_13  and  C_14
REMARK    8  A    between atoms: C_14  and  C_15
REMARK    9  A    between atoms: C_19  and  C_20
REMARK                            x       y       z     vdW  Elec       q    Type
REMARK                         _______ _______ _______ _____ _____    ______ ____
ROOT
ATOM      1  C   UNL     1       0.682  10.655  19.209  0.00  0.00    +0.000 C 
ENDROOT
BRANCH   1   2
ATOM      2  N   UNL     1       1.341   9.338  19.142  0.00  0.00    +0.000 NA
ATOM      3  H   UNL     1       0.632   8.606  19.068  0.00  0.00    +0.000 HD
BRANCH   2   4
ATOM      4  C   UNL     1       2.232   9.232  17.982  0.00  0.00    +0.000 C 
BRANCH   4   5
ATOM      5  C   UNL     1       2.850   7.863  17.856  0.00  0.00    +0.000 A 
ATOM      6  C   UNL     1       4.020   7.678  17.113  0.00  0.00    +0.000 A 
ATOM      7  C   UNL     1       4.545   6.400  16.941  0.00  0.00    +0.000 A 
ATOM      8  C   UNL     1       3.895   5.296  17.498  0.00  0.00    +0.000 A 
ATOM      9  C   UNL     1       2.714   5.446  18.241  0.00  0.00    +0.000 A 
ATOM     10  C   UNL     1       2.217   6.744  18.428  0.00  0.00    +0.000 A 
BRANCH   9  11
ATOM     11  C   UNL     1       2.009   4.282  18.793  0.00  0.00    +0.000 C 
ATOM     12  C   UNL     1       1.524   4.185  20.039  0.00  0.00    +0.000 C 
ATOM     13  C   UNL     1       0.945   2.840  20.321  0.00  0.00    +0.000 C 
ATOM     14  C   UNL     1       0.914   2.176  18.948  0.00  0.00    +0.000 C 
ATOM     15  C   UNL     1       1.835   2.995  18.042  0.00  0.00    +0.000 C 
ENDBRANCH   9  11
ENDBRANCH   4   5
ENDBRANCH   2   4
ENDBRANCH   1   2
BRANCH   1  16
ATOM     16  C   UNL     1      -0.808  10.574  19.561  0.00  0.00    +0.000 C 
BRANCH  16  17
ATOM     17  O   UNL     1      -1.515  11.746  19.166  0.00  0.00    +0.000 OA
BRANCH  17  26
ATOM     18  C   UNL     1      -6.206  13.790  19.287  0.00  0.00    +0.000 C 
ATOM     19  C   UNL     1      -5.910  12.288  19.212  0.00  0.00    +0.000 C 
ATOM     20  C   UNL     1      -6.719  11.545  20.278  0.00  0.00    +0.000 C 
ATOM     21  C   UNL     1      -6.161  11.715  17.803  0.00  0.00    +0.000 C 
ATOM     22  C   UNL     1      -4.767  11.468  17.357  0.00  0.00    +0.000 A 
ATOM     23  C   UNL     1      -4.323  11.024  16.123  0.00  0.00    +0.000 A 
ATOM     24  C   UNL     1      -2.952  10.826  15.946  0.00  0.00    +0.000 A 
ATOM     25  C   UNL     1      -2.052  11.077  16.994  0.00  0.00    +0.000 A 
ATOM     26  C   UNL     1      -2.505  11.528  18.239  0.00  0.00    +0.000 A 
ATOM     27  C   UNL     1      -3.878  11.708  18.394  0.00  0.00    +0.000 A 
ATOM     28  O   UNL     1      -4.511  12.113  19.543  0.00  0.00    +0.000 OA
ENDBRANCH  17  26
ENDBRANCH  16  17
ENDBRANCH   1  16
TORSDOF 7
ENDMDL
MODEL 5
REMARK VINA RESULT:      -7.8      6.618      9.908
REMARK  Name = 
REMARK  9 active torsions:
REMARK  status: ('A' for Active; 'I' for Inactive)
REMARK    1  A    between atoms: C_1  and  C_2
REMARK    2  A    between atoms: C_2  and  C_3
REMARK    3  A    between atoms: C_9  and  O_10
REMARK    4  A    between atoms: O_10  and  C_11
REMARK    5  A    between atoms: C_11  and  C_12
REMARK    6  A    between atoms: C_12  and  N_13
REMARK    7  A    between atoms: N_13  and  C_14
REMARK    8  A    between atoms: C_14  and  C_15
REMARK    9  A    between atoms: C_19  and  C_20
REMARK                            x       y       z     vdW  Elec       q    Type
REMARK                         _______ _______ _______ _____ _____    ______ ____
ROOT
ATOM      1  C   UNL     1       1.801   7.611  20.351  0.00  0.00    +0.000 C 
ENDROOT
BRANCH   1   2
ATOM      2  N   UNL     1       2.155   6.274  20.863  0.00  0.00    +0.000 NA
ATOM      3  H   UNL     1       2.131   6.284  21.884  0.00  0.00    +0.000 HD
BRANCH   2   4
ATOM      4  C   UNL     1       1.223   5.246  20.392  0.00  0.00    +0.000 C 
BRANCH   4   5
ATOM      5  C   UNL     1       1.882   4.255  19.466  0.00  0.00    +0.000 A 
ATOM      6  C   UNL     1       1.396   2.948  19.362  0.00  0.00    +0.000 A 
ATOM      7  C   UNL     1       2.053   2.018  18.560  0.00  0.00    +0.000 A 
ATOM      8  C   UNL     1       3.210   2.385  17.868  0.00  0.00    +0.000 A 
ATOM      9  C   UNL     1       3.729   3.685  17.959  0.00  0.00    +0.000 A 
ATOM     10  C   UNL     1       3.038   4.615  18.748  0.00  0.00    +0.000 A 
BRANCH   9  11
ATOM     11  C   UNL     1       4.968   4.060  17.263  0.00  0.00    +0.000 C 
ATOM     12  C   UNL     1       6.097   4.477  17.854  0.00  0.00    +0.000 C 
ATOM     13  C   UNL     1       7.143   4.871  16.867  0.00  0.00    +0.000 C 
ATOM     14  C   UNL     1       6.573   4.386  15.538  0.00  0.00    +0.000 C 
ATOM     15  C   UNL     1       5.084   4.120  15.769  0.00  0.00    +0.000 C 
ENDBRANCH   9  11
ENDBRANCH   4   5
ENDBRANCH   2   4
ENDBRANCH   1   2
BRANCH   1  16
ATOM     16  C   UNL     1       1.182   8.527  21.414  0.00  0.00    +0.000 C 
BRANCH  16  17
ATOM     17  O   UNL     1      -0.108   8.995  21.030  0.00  0.00    +0.000 OA
BRANCH  17  26
ATOM     18  C   UNL     1      -3.887  10.846  18.116  0.00  0.00    +0.000 C 
ATOM     19  C   UNL     1      -2.431  10.693  17.663  0.00  0.00    +0.000 C 
ATOM     20  C   UNL     1      -2.379   9.973  16.313  0.00  0.00    +0.000 C 
ATOM     21  C   UNL     1      -1.690  12.045  17.618  0.00  0.00    +0.000 C 
ATOM     22  C   UNL     1      -0.783  11.897  18.783  0.00  0.00    +0.000 A 
ATOM     23  C   UNL     1       0.091  12.828  19.317  0.00  0.00    +0.000 A 
ATOM     24  C   UNL     1       0.881  12.446  20.404  0.00  0.00    +0.000 A 
ATOM     25  C   UNL     1       0.782  11.151  20.939  0.00  0.00    +0.000 A 
ATOM     26  C   UNL     1      -0.104  10.215  20.398  0.00  0.00    +0.000 A 
ATOM     27  C   UNL     1      -0.874  10.617  19.308  0.00  0.00    +0.000 A 
ATOM     28  O   UNL     1      -1.774   9.835  18.627  0.00  0.00    +0.000 OA
ENDBRANCH  17  26
ENDBRANCH  16  17
ENDBRANCH   1  16
TORSDOF 7
ENDMDL
MODEL 6
REMARK VINA RESULT:      -7.8      6.521      9.071
REMARK  Name = 
REMARK  9 active torsions:
REMARK  status: ('A' for Active; 'I' for Inactive)
REMARK    1  A    between atoms: C_1  and  C_2
REMARK    2  A    between atoms: C_2  and  C_3
REMARK    3  A    between atoms: C_9  and  O_10
REMARK    4  A    between atoms: O_10  and  C_11
REMARK    5  A    between atoms: C_11  and  C_12
REMARK    6  A    between atoms: C_12  and  N_13
REMARK    7  A    between atoms: N_13  and  C_14
REMARK    8  A    between atoms: C_14  and  C_15
REMARK    9  A    between atoms: C_19  and  C_20
REMARK                            x       y       z     vdW  Elec       q    Type
REMARK                         _______ _______ _______ _____ _____    ______ ____
ROOT
ATOM      1  C   UNL     1       3.251   7.773  17.827  0.00  0.00    +0.000 C 
ENDROOT
BRANCH   1   2
ATOM      2  N   UNL     1       2.828   6.636  18.666  0.00  0.00    +0.000 NA
ATOM      3  H   UNL     1       1.849   6.755  18.930  0.00  0.00    +0.000 HD
BRANCH   2   4
ATOM      4  C   UNL     1       2.961   5.359  17.960  0.00  0.00    +0.000 C 
BRANCH   4   5
ATOM      5  C   UNL     1       4.388   5.063  17.572  0.00  0.00    +0.000 A 
ATOM      6  C   UNL     1       5.406   5.096  18.529  0.00  0.00    +0.000 A 
ATOM      7  C   UNL     1       6.730   4.893  18.151  0.00  0.00    +0.000 A 
ATOM      8  C   UNL     1       7.047   4.669  16.809  0.00  0.00    +0.000 A 
ATOM      9  C   UNL     1       6.051   4.639  15.822  0.00  0.00    +0.000 A 
ATOM     10  C   UNL     1       4.720   4.817  16.226  0.00  0.00    +0.000 A 
BRANCH   9  11
ATOM     11  C   UNL     1       6.388   4.443  14.405  0.00  0.00    +0.000 C 
ATOM     12  C   UNL     1       5.772   3.596  13.569  0.00  0.00    +0.000 C 
ATOM     13  C   UNL     1       6.411   3.563  12.222  0.00  0.00    +0.000 C 
ATOM     14  C   UNL     1       7.388   4.734  12.266  0.00  0.00    +0.000 C 
ATOM     15  C   UNL     1       7.555   5.110  13.740  0.00  0.00    +0.000 C 
ENDBRANCH   9  11
ENDBRANCH   4   5
ENDBRANCH   2   4
ENDBRANCH   1   2
BRANCH   1  16
ATOM     16  C   UNL     1       2.211   8.896  17.752  0.00  0.00    +0.000 C 
BRANCH  16  17
ATOM     17  O   UNL     1       1.289   8.844  18.838  0.00  0.00    +0.000 OA
BRANCH  17  26
ATOM     18  C   UNL     1      -3.639   9.517  17.631  0.00  0.00    +0.000 C 
ATOM     19  C   UNL     1      -2.491  10.403  17.136  0.00  0.00    +0.000 C 
ATOM     20  C   UNL     1      -2.584  10.574  15.617  0.00  0.00    +0.000 C 
ATOM     21  C   UNL     1      -2.449  11.762  17.863  0.00  0.00    +0.000 C 
ATOM     22  C   UNL     1      -1.240  11.585  18.704  0.00  0.00    +0.000 A 
ATOM     23  C   UNL     1      -0.719  12.445  19.655  0.00  0.00    +0.000 A 
ATOM     24  C   UNL     1       0.465  12.079  20.299  0.00  0.00    +0.000 A 
ATOM     25  C   UNL     1       1.102  10.867  19.989  0.00  0.00    +0.000 A 
ATOM     26  C   UNL     1       0.571   9.999  19.029  0.00  0.00    +0.000 A 
ATOM     27  C   UNL     1      -0.605  10.392  18.392  0.00  0.00    +0.000 A 
ATOM     28  O   UNL     1      -1.258   9.693  17.408  0.00  0.00    +0.000 OA
ENDBRANCH  17  26
ENDBRANCH  16  17
ENDBRANCH   1  16
TORSDOF 7
ENDMDL
MODEL 7
REMARK VINA RESULT:      -7.8      1.366      1.837
REMARK  Name = 
REMARK  9 active torsions:
REMARK  status: ('A' for Active; 'I' for Inactive)
REMARK    1  A    between atoms: C_1  and  C_2
REMARK    2  A    between atoms: C_2  and  C_3
REMARK    3  A    between atoms: C_9  and  O_10
REMARK    4  A    between atoms: O_10  and  C_11
REMARK    5  A    between atoms: C_11  and  C_12
REMARK    6  A    between atoms: C_12  and  N_13
REMARK    7  A    between atoms: N_13  and  C_14
REMARK    8  A    between atoms: C_14  and  C_15
REMARK    9  A    between atoms: C_19  and  C_20
REMARK                            x       y       z     vdW  Elec       q    Type
REMARK                         _______ _______ _______ _____ _____    ______ ____
ROOT
ATOM      1  C   UNL     1       7.900   7.650  17.929  0.00  0.00    +0.000 C 
ENDROOT
BRANCH   1   2
ATOM      2  N   UNL     1       8.580   8.760  18.622  0.00  0.00    +0.000 NA
ATOM      3  H   UNL     1       9.582   8.570  18.666  0.00  0.00    +0.000 HD
BRANCH   2   4
ATOM      4  C   UNL     1       8.385  10.037  17.929  0.00  0.00    +0.000 C 
BRANCH   4   5
ATOM      5  C   UNL     1       9.247  11.136  18.496  0.00  0.00    +0.000 A 
ATOM      6  C   UNL     1      10.296  10.836  19.370  0.00  0.00    +0.000 A 
ATOM      7  C   UNL     1      11.042  11.861  19.946  0.00  0.00    +0.000 A 
ATOM      8  C   UNL     1      10.735  13.193  19.663  0.00  0.00    +0.000 A 
ATOM      9  C   UNL     1       9.683  13.529  18.798  0.00  0.00    +0.000 A 
ATOM     10  C   UNL     1       8.962  12.483  18.205  0.00  0.00    +0.000 A 
BRANCH   9  11
ATOM     11  C   UNL     1       9.334  14.931  18.530  0.00  0.00    +0.000 C 
ATOM     12  C   UNL     1       8.145  15.498  18.779  0.00  0.00    +0.000 C 
ATOM     13  C   UNL     1       8.080  16.911  18.307  0.00  0.00    +0.000 C 
ATOM     14  C   UNL     1       9.527  17.228  17.945  0.00  0.00    +0.000 C 
ATOM     15  C   UNL     1      10.257  15.887  17.836  0.00  0.00    +0.000 C 
ENDBRANCH   9  11
ENDBRANCH   4   5
ENDBRANCH   2   4
ENDBRANCH   1   2
BRANCH   1  16
ATOM     16  C   UNL     1       7.861   6.353  18.746  0.00  0.00    +0.000 C 
BRANCH  16  17
ATOM     17  O   UNL     1       8.059   5.202  17.930  0.00  0.00    +0.000 OA
BRANCH  17  26
ATOM     18  C   UNL     1       3.335   4.711  19.837  0.00  0.00    +0.000 C 
ATOM     19  C   UNL     1       4.099   3.604  19.103  0.00  0.00    +0.000 C 
ATOM     20  C   UNL     1       4.055   2.311  19.923  0.00  0.00    +0.000 C 
ATOM     21  C   UNL     1       3.578   3.389  17.669  0.00  0.00    +0.000 C 
ATOM     22  C   UNL     1       4.704   3.950  16.882  0.00  0.00    +0.000 A 
ATOM     23  C   UNL     1       4.797   4.119  15.512  0.00  0.00    +0.000 A 
ATOM     24  C   UNL     1       5.983   4.637  14.988  0.00  0.00    +0.000 A 
ATOM     25  C   UNL     1       7.048   4.981  15.837  0.00  0.00    +0.000 A 
ATOM     26  C   UNL     1       6.949   4.811  17.221  0.00  0.00    +0.000 A 
ATOM     27  C   UNL     1       5.759   4.282  17.718  0.00  0.00    +0.000 A 
ATOM     28  O   UNL     1       5.486   4.016  19.037  0.00  0.00    +0.000 OA
ENDBRANCH  17  26
ENDBRANCH  16  17
ENDBRANCH   1  16
TORSDOF 7
ENDMDL
MODEL 8
REMARK VINA RESULT:      -7.8      2.827     10.389
REMARK  Name = 
REMARK  9 active torsions:
REMARK  status: ('A' for Active; 'I' for Inactive)
REMARK    1  A    between atoms: C_1  and  C_2
REMARK    2  A    between atoms: C_2  and  C_3
REMARK    3  A    between atoms: C_9  and  O_10
REMARK    4  A    between atoms: O_10  and  C_11
REMARK    5  A    between atoms: C_11  and  C_12
REMARK    6  A    between atoms: C_12  and  N_13
REMARK    7  A    between atoms: N_13  and  C_14
REMARK    8  A    between atoms: C_14  and  C_15
REMARK    9  A    between atoms: C_19  and  C_20
REMARK                            x       y       z     vdW  Elec       q    Type
REMARK                         _______ _______ _______ _____ _____    ______ ____
ROOT
ATOM      1  C   UNL     1       7.757   9.086  17.733  0.00  0.00    +0.000 C 
ENDROOT
BRANCH   1   2
ATOM      2  N   UNL     1       7.988   7.707  17.266  0.00  0.00    +0.000 NA
ATOM      3  H   UNL     1       8.992   7.542  17.176  0.00  0.00    +0.000 HD
BRANCH   2   4
ATOM      4  C   UNL     1       7.442   6.716  18.199  0.00  0.00    +0.000 C 
BRANCH   4   5
ATOM      5  C   UNL     1       6.512   5.741  17.522  0.00  0.00    +0.000 A 
ATOM      6  C   UNL     1       5.537   5.063  18.259  0.00  0.00    +0.000 A 
ATOM      7  C   UNL     1       4.729   4.111  17.642  0.00  0.00    +0.000 A 
ATOM      8  C   UNL     1       4.902   3.820  16.286  0.00  0.00    +0.000 A 
ATOM      9  C   UNL     1       5.878   4.476  15.521  0.00  0.00    +0.000 A 
ATOM     10  C   UNL     1       6.662   5.452  16.153  0.00  0.00    +0.000 A 
BRANCH   9  11
ATOM     11  C   UNL     1       6.088   4.143  14.106  0.00  0.00    +0.000 C 
ATOM     12  C   UNL     1       7.176   4.451  13.386  0.00  0.00    +0.000 C 
ATOM     13  C   UNL     1       7.041   4.055  11.955  0.00  0.00    +0.000 C 
ATOM     14  C   UNL     1       5.775   3.204  11.942  0.00  0.00    +0.000 C 
ATOM     15  C   UNL     1       5.039   3.492  13.253  0.00  0.00    +0.000 C 
ENDBRANCH   9  11
ENDBRANCH   4   5
ENDBRANCH   2   4
ENDBRANCH   1   2
BRANCH   1  16
ATOM     16  C   UNL     1       8.888   9.629  18.614  0.00  0.00    +0.000 C 
BRANCH  16  17
ATOM     17  O   UNL     1       9.354  10.897  18.163  0.00  0.00    +0.000 OA
BRANCH  17  26
ATOM     18  C   UNL     1       8.604  15.945  17.776  0.00  0.00    +0.000 C 
ATOM     19  C   UNL     1       9.920  15.290  18.206  0.00  0.00    +0.000 C 
ATOM     20  C   UNL     1      11.082  15.877  17.400  0.00  0.00    +0.000 C 
ATOM     21  C   UNL     1      10.161  15.409  19.725  0.00  0.00    +0.000 C 
ATOM     22  C   UNL     1       9.942  14.003  20.147  0.00  0.00    +0.000 A 
ATOM     23  C   UNL     1       9.938  13.480  21.428  0.00  0.00    +0.000 A 
ATOM     24  C   UNL     1       9.747  12.104  21.579  0.00  0.00    +0.000 A 
ATOM     25  C   UNL     1       9.561  11.281  20.457  0.00  0.00    +0.000 A 
ATOM     26  C   UNL     1       9.563  11.814  19.164  0.00  0.00    +0.000 A 
ATOM     27  C   UNL     1       9.766  13.188  19.039  0.00  0.00    +0.000 A 
ATOM     28  O   UNL     1       9.830  13.886  17.859  0.00  0.00    +0.000 OA
ENDBRANCH  17  26
ENDBRANCH  16  17
ENDBRANCH   1  16
TORSDOF 7
ENDMDL
MODEL 9
REMARK VINA RESULT:      -7.7      6.496      8.883
REMARK  Name = 
REMARK  9 active torsions:
REMARK  status: ('A' for Active; 'I' for Inactive)
REMARK    1  A    between atoms: C_1  and  C_2
REMARK    2  A    between atoms: C_2  and  C_3
REMARK    3  A    between atoms: C_9  and  O_10
REMARK    4  A    between atoms: O_10  and  C_11
REMARK    5  A    between atoms: C_11  and  C_12
REMARK    6  A    between atoms: C_12  and  N_13
REMARK    7  A    between atoms: N_13  and  C_14
REMARK    8  A    between atoms: C_14  and  C_15
REMARK    9  A    between atoms: C_19  and  C_20
REMARK                            x       y       z     vdW  Elec       q    Type
REMARK                         _______ _______ _______ _____ _____    ______ ____
ROOT
ATOM      1  C   UNL     1       1.957   9.280  17.789  0.00  0.00    +0.000 C 
ENDROOT
BRANCH   1   2
ATOM      2  N   UNL     1       1.278   9.239  19.097  0.00  0.00    +0.000 NA
ATOM      3  H   UNL     1       1.894   8.804  19.786  0.00  0.00    +0.000 HD
BRANCH   2   4
ATOM      4  C   UNL     1       0.932  10.581  19.574  0.00  0.00    +0.000 C 
BRANCH   4   5
ATOM      5  C   UNL     1       0.260  10.555  20.924  0.00  0.00    +0.000 A 
ATOM      6  C   UNL     1       0.268   9.391  21.699  0.00  0.00    +0.000 A 
ATOM      7  C   UNL     1      -0.416   9.353  22.912  0.00  0.00    +0.000 A 
ATOM      8  C   UNL     1      -1.124  10.474  23.351  0.00  0.00    +0.000 A 
ATOM      9  C   UNL     1      -1.159  11.654  22.593  0.00  0.00    +0.000 A 
ATOM     10  C   UNL     1      -0.441  11.683  21.389  0.00  0.00    +0.000 A 
BRANCH   9  11
ATOM     11  C   UNL     1      -1.936  12.820  23.035  0.00  0.00    +0.000 C 
ATOM     12  C   UNL     1      -1.443  13.882  23.688  0.00  0.00    +0.000 C 
ATOM     13  C   UNL     1      -2.506  14.852  24.079  0.00  0.00    +0.000 C 
ATOM     14  C   UNL     1      -3.736  14.348  23.331  0.00  0.00    +0.000 C 
ATOM     15  C   UNL     1      -3.426  12.915  22.893  0.00  0.00    +0.000 C 
ENDBRANCH   9  11
ENDBRANCH   4   5
ENDBRANCH   2   4
ENDBRANCH   1   2
BRANCH   1  16
ATOM     16  C   UNL     1       3.067   8.232  17.645  0.00  0.00    +0.000 C 
BRANCH  16  17
ATOM     17  O   UNL     1       2.956   7.199  18.619  0.00  0.00    +0.000 OA
BRANCH  17  26
ATOM     18  C   UNL     1       0.671   2.689  19.418  0.00  0.00    +0.000 C 
ATOM     19  C   UNL     1       2.106   3.026  19.834  0.00  0.00    +0.000 C 
ATOM     20  C   UNL     1       2.327   2.640  21.300  0.00  0.00    +0.000 C 
ATOM     21  C   UNL     1       3.150   2.369  18.908  0.00  0.00    +0.000 C 
ATOM     22  C   UNL     1       3.652   3.559  18.177  0.00  0.00    +0.000 A 
ATOM     23  C   UNL     1       4.562   3.609  17.135  0.00  0.00    +0.000 A 
ATOM     24  C   UNL     1       4.916   4.860  16.625  0.00  0.00    +0.000 A 
ATOM     25  C   UNL     1       4.355   6.033  17.157  0.00  0.00    +0.000 A 
ATOM     26  C   UNL     1       3.434   5.978  18.208  0.00  0.00    +0.000 A 
ATOM     27  C   UNL     1       3.105   4.718  18.707  0.00  0.00    +0.000 A 
ATOM     28  O   UNL     1       2.248   4.464  19.748  0.00  0.00    +0.000 OA
ENDBRANCH  17  26
ENDBRANCH  16  17
ENDBRANCH   1  16
TORSDOF 7
ENDMDL
