MODEL 1
REMARK VINA RESULT:      -7.6      0.000      0.000
REMARK  Name = 
REMARK  7 active torsions:
REMARK  status: ('A' for Active; 'I' for Inactive)
REMARK    1  A    between atoms: C_1  and  O_2
REMARK    2  A    between atoms: O_2  and  C_3
REMARK    3  A    between atoms: C_6  and  N_7
REMARK    4  A    between atoms: C_12  and  C_13
REMARK    5  A    between atoms: C_14  and  C_15
REMARK    6  A    between atoms: C_20  and  O_21
REMARK    7  A    between atoms: O_21  and  C_22
REMARK                            x       y       z     vdW  Elec       q    Type
REMARK                         _______ _______ _______ _____ _____    ______ ____
ROOT
ATOM      1  N   UNL     1       2.375   6.642  20.377  0.00  0.00    +0.000 N 
ATOM      2  C   UNL     1       3.107   5.636  19.735  0.00  0.00    +0.000 A 
ATOM      3  N   UNL     1       2.647   4.391  19.974  0.00  0.00    +0.000 NA
ATOM      4  C   UNL     1       3.273   3.368  19.360  0.00  0.00    +0.000 A 
ATOM      5  C   UNL     1       4.377   3.534  18.557  0.00  0.00    +0.000 A 
ATOM      6  C   UNL     1       4.850   4.825  18.426  0.00  0.00    +0.000 A 
ATOM      7  N   UNL     1       4.198   5.890  18.979  0.00  0.00    +0.000 NA
ATOM      8  H   UNL     1       1.687   6.145  20.939  0.00  0.00    +0.000 HD
ENDROOT
BRANCH   6   9
ATOM      9  C   UNL     1       5.728   5.111  17.283  0.00  0.00    +0.000 A 
ATOM     10  C   UNL     1       7.066   5.390  17.586  0.00  0.00    +0.000 A 
ATOM     11  C   UNL     1       8.073   4.284  17.856  0.00  0.00    +0.000 C 
ATOM     12  N   UNL     1       7.258   6.335  16.601  0.00  0.00    +0.000 N 
ATOM     13  C   UNL     1       6.893   5.678  15.451  0.00  0.00    +0.000 A 
ATOM     14  C   UNL     1       7.380   5.808  14.158  0.00  0.00    +0.000 A 
ATOM     15  C   UNL     1       7.043   4.777  13.295  0.00  0.00    +0.000 A 
ATOM     16  C   UNL     1       6.197   3.729  13.681  0.00  0.00    +0.000 A 
ATOM     17  C   UNL     1       5.561   3.730  14.948  0.00  0.00    +0.000 A 
ATOM     18  C   UNL     1       5.942   4.729  15.890  0.00  0.00    +0.000 A 
ATOM     19  H   UNL     1       7.608   7.279  16.697  0.00  0.00    +0.000 HD
BRANCH  16  20
ATOM     20  O   UNL     1       6.080   2.810  12.674  0.00  0.00    +0.000 OA
ATOM     21  C   UNL     1       5.097   2.950  11.664  0.00  0.00    +0.000 C 
ENDBRANCH  16  20
ENDBRANCH   6   9
BRANCH   1  25
ATOM     22  C   UNL     1       0.707  10.345  19.152  0.00  0.00    +0.000 A 
ATOM     23  C   UNL     1       1.442   9.583  18.240  0.00  0.00    +0.000 A 
ATOM     24  C   UNL     1       2.015   8.357  18.621  0.00  0.00    +0.000 A 
ATOM     25  C   UNL     1       1.857   7.870  19.913  0.00  0.00    +0.000 A 
ATOM     26  C   UNL     1       1.174   8.679  20.835  0.00  0.00    +0.000 A 
ATOM     27  C   UNL     1       0.589   9.896  20.460  0.00  0.00    +0.000 A 
BRANCH  22  29
ATOM     28  C   UNL     1      -1.212  11.454  18.320  0.00  0.00    +0.000 C 
ATOM     29  O   UNL     1       0.172  11.505  18.657  0.00  0.00    +0.000 OA
ENDBRANCH  22  29
ENDBRANCH   1  25
TORSDOF 4
ENDMDL
MODEL 2
REMARK VINA RESULT:      -7.5      0.505      1.049
REMARK  Name = 
REMARK  7 active torsions:
REMARK  status: ('A' for Active; 'I' for Inactive)
REMARK    1  A    between atoms: C_1  and  O_2
REMARK    2  A    between atoms: O_2  and  C_3
REMARK    3  A    between atoms: C_6  and  N_7
REMARK    4  A    between atoms: C_12  and  C_13
REMARK    5  A    between atoms: C_14  and  C_15
REMARK    6  A    between atoms: C_20  and  O_21
REMARK    7  A    between atoms: O_21  and  C_22
REMARK                            x       y       z     vdW  Elec       q    Type
REMARK                         _______ _______ _______ _____ _____    ______ ____
ROOT
ATOM      1  N   UNL     1       2.259   6.592  20.140  0.00  0.00    +0.000 N 
ATOM      2  C   UNL     1       2.936   5.585  19.440  0.00  0.00    +0.000 A 
ATOM      3  N   UNL     1       2.380   4.364  19.569  0.00  0.00    +0.000 NA
ATOM      4  C   UNL     1       2.949   3.347  18.893  0.00  0.00    +0.000 A 
ATOM      5  C   UNL     1       4.088   3.490  18.135  0.00  0.00    +0.000 A 
ATOM      6  C   UNL     1       4.657   4.748  18.118  0.00  0.00    +0.000 A 
ATOM      7  N   UNL     1       4.066   5.814  18.735  0.00  0.00    +0.000 NA
ATOM      8  H   UNL     1       1.519   6.106  20.642  0.00  0.00    +0.000 HD
ENDROOT
BRANCH   6   9
ATOM      9  C   UNL     1       5.590   5.055  17.025  0.00  0.00    +0.000 A 
ATOM     10  C   UNL     1       6.909   5.336  17.399  0.00  0.00    +0.000 A 
ATOM     11  C   UNL     1       7.908   4.233  17.705  0.00  0.00    +0.000 C 
ATOM     12  N   UNL     1       7.144   6.295  16.436  0.00  0.00    +0.000 N 
ATOM     13  C   UNL     1       6.842   5.652  15.262  0.00  0.00    +0.000 A 
ATOM     14  C   UNL     1       7.393   5.802  13.997  0.00  0.00    +0.000 A 
ATOM     15  C   UNL     1       7.107   4.781  13.104  0.00  0.00    +0.000 A 
ATOM     16  C   UNL     1       6.248   3.722  13.433  0.00  0.00    +0.000 A 
ATOM     17  C   UNL     1       5.550   3.704  14.667  0.00  0.00    +0.000 A 
ATOM     18  C   UNL     1       5.876   4.692  15.640  0.00  0.00    +0.000 A 
ATOM     19  H   UNL     1       7.484   7.240  16.562  0.00  0.00    +0.000 HD
BRANCH  16  20
ATOM     20  O   UNL     1       6.188   2.817  12.410  0.00  0.00    +0.000 OA
ATOM     21  C   UNL     1       5.056   2.743  11.561  0.00  0.00    +0.000 C 
ENDBRANCH  16  20
ENDBRANCH   6   9
BRANCH   1  25
ATOM     22  C   UNL     1       1.135  10.467  18.831  0.00  0.00    +0.000 A 
ATOM     23  C   UNL     1       0.824  10.060  20.131  0.00  0.00    +0.000 A 
ATOM     24  C   UNL     1       1.175   8.778  20.589  0.00  0.00    +0.000 A 
ATOM     25  C   UNL     1       1.847   7.886  19.760  0.00  0.00    +0.000 A 
ATOM     26  C   UNL     1       2.092   8.287  18.437  0.00  0.00    +0.000 A 
ATOM     27  C   UNL     1       1.757   9.567  17.977  0.00  0.00    +0.000 A 
BRANCH  22  29
ATOM     28  C   UNL     1      -0.023  12.427  19.481  0.00  0.00    +0.000 C 
ATOM     29  O   UNL     1       0.769  11.747  18.510  0.00  0.00    +0.000 OA
ENDBRANCH  22  29
ENDBRANCH   1  25
TORSDOF 4
ENDMDL
MODEL 3
REMARK VINA RESULT:      -7.0      1.993      8.609
REMARK  Name = 
REMARK  7 active torsions:
REMARK  status: ('A' for Active; 'I' for Inactive)
REMARK    1  A    between atoms: C_1  and  O_2
REMARK    2  A    between atoms: O_2  and  C_3
REMARK    3  A    between atoms: C_6  and  N_7
REMARK    4  A    between atoms: C_12  and  C_13
REMARK    5  A    between atoms: C_14  and  C_15
REMARK    6  A    between atoms: C_20  and  O_21
REMARK    7  A    between atoms: O_21  and  C_22
REMARK                            x       y       z     vdW  Elec       q    Type
REMARK                         _______ _______ _______ _____ _____    ______ ____
ROOT
ATOM      1  N   UNL     1       3.617   4.674  17.864  0.00  0.00    +0.000 N 
ATOM      2  C   UNL     1       2.898   5.498  18.741  0.00  0.00    +0.000 A 
ATOM      3  N   UNL     1       2.674   4.942  19.949  0.00  0.00    +0.000 NA
ATOM      4  C   UNL     1       2.023   5.687  20.864  0.00  0.00    +0.000 A 
ATOM      5  C   UNL     1       1.537   6.946  20.603  0.00  0.00    +0.000 A 
ATOM      6  C   UNL     1       1.723   7.419  19.319  0.00  0.00    +0.000 A 
ATOM      7  N   UNL     1       2.438   6.719  18.390  0.00  0.00    +0.000 NA
ATOM      8  H   UNL     1       3.737   3.800  18.370  0.00  0.00    +0.000 HD
ENDROOT
BRANCH   6   9
ATOM      9  C   UNL     1       1.614   8.870  19.109  0.00  0.00    +0.000 A 
ATOM     10  C   UNL     1       1.171   9.280  17.846  0.00  0.00    +0.000 A 
ATOM     11  C   UNL     1      -0.303   9.295  17.479  0.00  0.00    +0.000 C 
ATOM     12  N   UNL     1       1.962  10.407  17.760  0.00  0.00    +0.000 N 
ATOM     13  C   UNL     1       1.652  11.104  18.902  0.00  0.00    +0.000 A 
ATOM     14  C   UNL     1       1.611  12.472  19.127  0.00  0.00    +0.000 A 
ATOM     15  C   UNL     1       0.945  12.861  20.279  0.00  0.00    +0.000 A 
ATOM     16  C   UNL     1       0.430  11.931  21.192  0.00  0.00    +0.000 A 
ATOM     17  C   UNL     1       0.660  10.541  21.028  0.00  0.00    +0.000 A 
ATOM     18  C   UNL     1       1.271  10.098  19.820  0.00  0.00    +0.000 A 
ATOM     19  H   UNL     1       2.599  10.671  17.020  0.00  0.00    +0.000 HD
BRANCH  16  20
ATOM     20  O   UNL     1      -0.239  12.567  22.201  0.00  0.00    +0.000 OA
ATOM     21  C   UNL     1      -1.191  11.882  22.996  0.00  0.00    +0.000 C 
ENDBRANCH  16  20
ENDBRANCH   6   9
BRANCH   1  25
ATOM     22  C   UNL     1       6.879   5.300  15.226  0.00  0.00    +0.000 A 
ATOM     23  C   UNL     1       6.884   5.906  16.485  0.00  0.00    +0.000 A 
ATOM     24  C   UNL     1       5.811   5.724  17.376  0.00  0.00    +0.000 A 
ATOM     25  C   UNL     1       4.723   4.931  17.028  0.00  0.00    +0.000 A 
ATOM     26  C   UNL     1       4.704   4.385  15.735  0.00  0.00    +0.000 A 
ATOM     27  C   UNL     1       5.775   4.550  14.846  0.00  0.00    +0.000 A 
BRANCH  22  29
ATOM     28  C   UNL     1       7.876   5.172  13.082  0.00  0.00    +0.000 C 
ATOM     29  O   UNL     1       7.991   5.525  14.459  0.00  0.00    +0.000 OA
ENDBRANCH  22  29
ENDBRANCH   1  25
TORSDOF 4
ENDMDL
MODEL 4
REMARK VINA RESULT:      -7.0      3.509      8.918
REMARK  Name = 
REMARK  7 active torsions:
REMARK  status: ('A' for Active; 'I' for Inactive)
REMARK    1  A    between atoms: C_1  and  O_2
REMARK    2  A    between atoms: O_2  and  C_3
REMARK    3  A    between atoms: C_6  and  N_7
REMARK    4  A    between atoms: C_12  and  C_13
REMARK    5  A    between atoms: C_14  and  C_15
REMARK    6  A    between atoms: C_20  and  O_21
REMARK    7  A    between atoms: O_21  and  C_22
REMARK                            x       y       z     vdW  Elec       q    Type
REMARK                         _______ _______ _______ _____ _____    ______ ____
ROOT
ATOM      1  N   UNL     1       1.528   7.914  21.216  0.00  0.00    +0.000 N 
ATOM      2  C   UNL     1       0.937   9.184  21.201  0.00  0.00    +0.000 A 
ATOM      3  N   UNL     1       1.591  10.097  21.947  0.00  0.00    +0.000 NA
ATOM      4  C   UNL     1       1.108  11.355  21.954  0.00  0.00    +0.000 A 
ATOM      5  C   UNL     1      -0.037  11.726  21.288  0.00  0.00    +0.000 A 
ATOM      6  C   UNL     1      -0.706  10.721  20.616  0.00  0.00    +0.000 A 
ATOM      7  N   UNL     1      -0.206   9.453  20.534  0.00  0.00    +0.000 NA
ATOM      8  H   UNL     1       2.304   7.996  21.870  0.00  0.00    +0.000 HD
ENDROOT
BRANCH   6   9
ATOM      9  C   UNL     1      -1.659  11.123  19.572  0.00  0.00    +0.000 A 
ATOM     10  C   UNL     1      -1.846  12.500  19.401  0.00  0.00    +0.000 A 
ATOM     11  C   UNL     1      -0.876  13.346  18.593  0.00  0.00    +0.000 C 
ATOM     12  N   UNL     1      -3.191  12.441  19.107  0.00  0.00    +0.000 N 
ATOM     13  C   UNL     1      -3.252  11.562  18.054  0.00  0.00    +0.000 A 
ATOM     14  C   UNL     1      -4.122  11.525  16.974  0.00  0.00    +0.000 A 
ATOM     15  C   UNL     1      -3.718  10.723  15.918  0.00  0.00    +0.000 A 
ATOM     16  C   UNL     1      -2.558   9.938  15.981  0.00  0.00    +0.000 A 
ATOM     17  C   UNL     1      -1.797   9.851  17.174  0.00  0.00    +0.000 A 
ATOM     18  C   UNL     1      -2.135  10.718  18.252  0.00  0.00    +0.000 A 
ATOM     19  H   UNL     1      -3.952  12.945  19.546  0.00  0.00    +0.000 HD
BRANCH  16  20
ATOM     20  O   UNL     1      -2.346   9.298  14.791  0.00  0.00    +0.000 OA
ATOM     21  C   UNL     1      -2.990   9.724  13.604  0.00  0.00    +0.000 C 
ENDBRANCH  16  20
ENDBRANCH   6   9
BRANCH   1  25
ATOM     22  C   UNL     1       2.434   5.037  18.234  0.00  0.00    +0.000 A 
ATOM     23  C   UNL     1       2.608   6.396  17.958  0.00  0.00    +0.000 A 
ATOM     24  C   UNL     1       2.306   7.372  18.924  0.00  0.00    +0.000 A 
ATOM     25  C   UNL     1       1.834   7.007  20.180  0.00  0.00    +0.000 A 
ATOM     26  C   UNL     1       1.602   5.643  20.416  0.00  0.00    +0.000 A 
ATOM     27  C   UNL     1       1.913   4.663  19.464  0.00  0.00    +0.000 A 
BRANCH  22  29
ATOM     28  C   UNL     1       4.161   3.786  17.204  0.00  0.00    +0.000 C 
ATOM     29  O   UNL     1       2.791   4.180  17.227  0.00  0.00    +0.000 OA
ENDBRANCH  22  29
ENDBRANCH   1  25
TORSDOF 4
ENDMDL
MODEL 5
REMARK VINA RESULT:      -7.0      2.917      8.717
REMARK  Name = 
REMARK  7 active torsions:
REMARK  status: ('A' for Active; 'I' for Inactive)
REMARK    1  A    between atoms: C_1  and  O_2
REMARK    2  A    between atoms: O_2  and  C_3
REMARK    3  A    between atoms: C_6  and  N_7
REMARK    4  A    between atoms: C_12  and  C_13
REMARK    5  A    between atoms: C_14  and  C_15
REMARK    6  A    between atoms: C_20  and  O_21
REMARK    7  A    between atoms: O_21  and  C_22
REMARK                            x       y       z     vdW  Elec       q    Type
REMARK                         _______ _______ _______ _____ _____    ______ ____
ROOT
ATOM      1  N   UNL     1       1.883   7.437  20.712  0.00  0.00    +0.000 N 
ATOM      2  C   UNL     1       1.031   8.497  21.048  0.00  0.00    +0.000 A 
ATOM      3  N   UNL     1       1.299   9.051  22.247  0.00  0.00    +0.000 NA
ATOM      4  C   UNL     1       0.548  10.103  22.627  0.00  0.00    +0.000 A 
ATOM      5  C   UNL     1      -0.499  10.591  21.880  0.00  0.00    +0.000 A 
ATOM      6  C   UNL     1      -0.775   9.921  20.704  0.00  0.00    +0.000 A 
ATOM      7  N   UNL     1       0.009   8.896  20.258  0.00  0.00    +0.000 NA
ATOM      8  H   UNL     1       2.476   7.312  21.529  0.00  0.00    +0.000 HD
ENDROOT
BRANCH   6   9
ATOM      9  C   UNL     1      -1.571  10.629  19.692  0.00  0.00    +0.000 A 
ATOM     10  C   UNL     1      -1.413  12.019  19.642  0.00  0.00    +0.000 A 
ATOM     11  C   UNL     1      -0.244  12.667  18.919  0.00  0.00    +0.000 C 
ATOM     12  N   UNL     1      -2.724  12.315  19.334  0.00  0.00    +0.000 N 
ATOM     13  C   UNL     1      -2.966  11.569  18.208  0.00  0.00    +0.000 A 
ATOM     14  C   UNL     1      -3.788  11.836  17.121  0.00  0.00    +0.000 A 
ATOM     15  C   UNL     1      -3.559  11.051  16.002  0.00  0.00    +0.000 A 
ATOM     16  C   UNL     1      -2.627  10.004  16.004  0.00  0.00    +0.000 A 
ATOM     17  C   UNL     1      -1.944   9.635  17.191  0.00  0.00    +0.000 A 
ATOM     18  C   UNL     1      -2.093  10.465  18.339  0.00  0.00    +0.000 A 
ATOM     19  H   UNL     1      -3.352  12.951  19.810  0.00  0.00    +0.000 HD
BRANCH  16  20
ATOM     20  O   UNL     1      -2.542   9.434  14.764  0.00  0.00    +0.000 OA
ATOM     21  C   UNL     1      -3.280   9.946  13.669  0.00  0.00    +0.000 C 
ENDBRANCH  16  20
ENDBRANCH   6   9
BRANCH   1  25
ATOM     22  C   UNL     1       4.093   6.385  17.247  0.00  0.00    +0.000 A 
ATOM     23  C   UNL     1       3.348   7.567  17.258  0.00  0.00    +0.000 A 
ATOM     24  C   UNL     1       2.598   7.935  18.389  0.00  0.00    +0.000 A 
ATOM     25  C   UNL     1       2.586   7.136  19.526  0.00  0.00    +0.000 A 
ATOM     26  C   UNL     1       3.285   5.920  19.473  0.00  0.00    +0.000 A 
ATOM     27  C   UNL     1       4.046   5.551  18.356  0.00  0.00    +0.000 A 
BRANCH  22  29
ATOM     28  C   UNL     1       5.293   4.817  15.940  0.00  0.00    +0.000 C 
ATOM     29  O   UNL     1       4.807   6.147  16.102  0.00  0.00    +0.000 OA
ENDBRANCH  22  29
ENDBRANCH   1  25
TORSDOF 4
ENDMDL
MODEL 6
REMARK VINA RESULT:      -7.0      2.203      8.645
REMARK  Name = 
REMARK  7 active torsions:
REMARK  status: ('A' for Active; 'I' for Inactive)
REMARK    1  A    between atoms: C_1  and  O_2
REMARK    2  A    between atoms: O_2  and  C_3
REMARK    3  A    between atoms: C_6  and  N_7
REMARK    4  A    between atoms: C_12  and  C_13
REMARK    5  A    between atoms: C_14  and  C_15
REMARK    6  A    between atoms: C_20  and  O_21
REMARK    7  A    between atoms: O_21  and  C_22
REMARK                            x       y       z     vdW  Elec       q    Type
REMARK                         _______ _______ _______ _____ _____    ______ ____
ROOT
ATOM      1  N   UNL     1       3.173   4.924  18.283  0.00  0.00    +0.000 N 
ATOM      2  C   UNL     1       2.524   5.869  19.089  0.00  0.00    +0.000 A 
ATOM      3  N   UNL     1       2.268   5.434  20.339  0.00  0.00    +0.000 NA
ATOM      4  C   UNL     1       1.680   6.298  21.189  0.00  0.00    +0.000 A 
ATOM      5  C   UNL     1       1.286   7.564  20.824  0.00  0.00    +0.000 A 
ATOM      6  C   UNL     1       1.498   7.914  19.506  0.00  0.00    +0.000 A 
ATOM      7  N   UNL     1       2.153   7.087  18.637  0.00  0.00    +0.000 NA
ATOM      8  H   UNL     1       3.231   4.088  18.860  0.00  0.00    +0.000 HD
ENDROOT
BRANCH   6   9
ATOM      9  C   UNL     1       1.496   9.346  19.176  0.00  0.00    +0.000 A 
ATOM     10  C   UNL     1       0.974   9.691  17.923  0.00  0.00    +0.000 A 
ATOM     11  C   UNL     1      -0.521   9.814  17.684  0.00  0.00    +0.000 C 
ATOM     12  N   UNL     1       1.848  10.728  17.669  0.00  0.00    +0.000 N 
ATOM     13  C   UNL     1       1.707  11.542  18.766  0.00  0.00    +0.000 A 
ATOM     14  C   UNL     1       1.806  12.922  18.869  0.00  0.00    +0.000 A 
ATOM     15  C   UNL     1       1.285  13.465  20.033  0.00  0.00    +0.000 A 
ATOM     16  C   UNL     1       0.779  12.665  21.067  0.00  0.00    +0.000 A 
ATOM     17  C   UNL     1       0.872  11.252  21.010  0.00  0.00    +0.000 A 
ATOM     18  C   UNL     1       1.328  10.655  19.800  0.00  0.00    +0.000 A 
ATOM     19  H   UNL     1       2.434  10.869  16.856  0.00  0.00    +0.000 HD
BRANCH  16  20
ATOM     20  O   UNL     1       0.264  13.442  22.068  0.00  0.00    +0.000 OA
ATOM     21  C   UNL     1      -0.940  13.090  22.725  0.00  0.00    +0.000 C 
ENDBRANCH  16  20
ENDBRANCH   6   9
BRANCH   1  25
ATOM     22  C   UNL     1       6.555   5.427  15.773  0.00  0.00    +0.000 A 
ATOM     23  C   UNL     1       5.745   4.299  15.622  0.00  0.00    +0.000 A 
ATOM     24  C   UNL     1       4.623   4.101  16.446  0.00  0.00    +0.000 A 
ATOM     25  C   UNL     1       4.289   5.028  17.428  0.00  0.00    +0.000 A 
ATOM     26  C   UNL     1       5.152   6.120  17.610  0.00  0.00    +0.000 A 
ATOM     27  C   UNL     1       6.264   6.332  16.784  0.00  0.00    +0.000 A 
BRANCH  22  29
ATOM     28  C   UNL     1       7.389   4.934  13.613  0.00  0.00    +0.000 C 
ATOM     29  O   UNL     1       7.600   5.526  14.893  0.00  0.00    +0.000 OA
ENDBRANCH  22  29
ENDBRANCH   1  25
TORSDOF 4
ENDMDL
MODEL 7
REMARK VINA RESULT:      -6.9      2.481      8.175
REMARK  Name = 
REMARK  7 active torsions:
REMARK  status: ('A' for Active; 'I' for Inactive)
REMARK    1  A    between atoms: C_1  and  O_2
REMARK    2  A    between atoms: O_2  and  C_3
REMARK    3  A    between atoms: C_6  and  N_7
REMARK    4  A    between atoms: C_12  and  C_13
REMARK    5  A    between atoms: C_14  and  C_15
REMARK    6  A    between atoms: C_20  and  O_21
REMARK    7  A    between atoms: O_21  and  C_22
REMARK                            x       y       z     vdW  Elec       q    Type
REMARK                         _______ _______ _______ _____ _____    ______ ____
ROOT
ATOM      1  N   UNL     1       6.811   3.767  14.253  0.00  0.00    +0.000 N 
ATOM      2  C   UNL     1       6.583   4.150  15.581  0.00  0.00    +0.000 A 
ATOM      3  N   UNL     1       7.411   5.122  16.016  0.00  0.00    +0.000 NA
ATOM      4  C   UNL     1       7.230   5.575  17.272  0.00  0.00    +0.000 A 
ATOM      5  C   UNL     1       6.290   5.058  18.132  0.00  0.00    +0.000 A 
ATOM      6  C   UNL     1       5.536   4.005  17.652  0.00  0.00    +0.000 A 
ATOM      7  N   UNL     1       5.647   3.569  16.362  0.00  0.00    +0.000 NA
ATOM      8  H   UNL     1       7.625   4.304  13.964  0.00  0.00    +0.000 HD
ENDROOT
BRANCH   6   9
ATOM      9  C   UNL     1       4.272   3.707  18.341  0.00  0.00    +0.000 A 
ATOM     10  C   UNL     1       4.207   2.478  19.009  0.00  0.00    +0.000 A 
ATOM     11  C   UNL     1       4.803   2.286  20.393  0.00  0.00    +0.000 C 
ATOM     12  N   UNL     1       2.880   2.222  18.737  0.00  0.00    +0.000 N 
ATOM     13  C   UNL     1       2.234   3.340  19.204  0.00  0.00    +0.000 A 
ATOM     14  C   UNL     1       0.971   3.470  19.764  0.00  0.00    +0.000 A 
ATOM     15  C   UNL     1       0.744   4.661  20.437  0.00  0.00    +0.000 A 
ATOM     16  C   UNL     1       1.694   5.691  20.468  0.00  0.00    +0.000 A 
ATOM     17  C   UNL     1       2.896   5.601  19.722  0.00  0.00    +0.000 A 
ATOM     18  C   UNL     1       3.200   4.365  19.083  0.00  0.00    +0.000 A 
ATOM     19  H   UNL     1       2.474   1.395  18.316  0.00  0.00    +0.000 HD
BRANCH  16  20
ATOM     20  O   UNL     1       1.257   6.724  21.251  0.00  0.00    +0.000 OA
ATOM     21  C   UNL     1       1.484   8.072  20.882  0.00  0.00    +0.000 C 
ENDBRANCH  16  20
ENDBRANCH   6   9
BRANCH   1  25
ATOM     22  C   UNL     1       4.302   3.019  10.916  0.00  0.00    +0.000 A 
ATOM     23  C   UNL     1       3.985   4.055  11.799  0.00  0.00    +0.000 A 
ATOM     24  C   UNL     1       4.793   4.318  12.920  0.00  0.00    +0.000 A 
ATOM     25  C   UNL     1       5.931   3.560  13.170  0.00  0.00    +0.000 A 
ATOM     26  C   UNL     1       6.197   2.482  12.310  0.00  0.00    +0.000 A 
ATOM     27  C   UNL     1       5.405   2.221  11.185  0.00  0.00    +0.000 A 
BRANCH  22  29
ATOM     28  C   UNL     1       2.834   4.076   9.387  0.00  0.00    +0.000 C 
ATOM     29  O   UNL     1       3.459   2.878   9.846  0.00  0.00    +0.000 OA
ENDBRANCH  22  29
ENDBRANCH   1  25
TORSDOF 4
ENDMDL
MODEL 8
REMARK VINA RESULT:      -6.9      0.981      1.040
REMARK  Name = 
REMARK  7 active torsions:
REMARK  status: ('A' for Active; 'I' for Inactive)
REMARK    1  A    between atoms: C_1  and  O_2
REMARK    2  A    between atoms: O_2  and  C_3
REMARK    3  A    between atoms: C_6  and  N_7
REMARK    4  A    between atoms: C_12  and  C_13
REMARK    5  A    between atoms: C_14  and  C_15
REMARK    6  A    between atoms: C_20  and  O_21
REMARK    7  A    between atoms: O_21  and  C_22
REMARK                            x       y       z     vdW  Elec       q    Type
REMARK                         _______ _______ _______ _____ _____    ______ ____
ROOT
ATOM      1  N   UNL     1       1.576   7.024  20.829  0.00  0.00    +0.000 N 
ATOM      2  C   UNL     1       2.222   6.004  20.119  0.00  0.00    +0.000 A 
ATOM      3  N   UNL     1       1.566   4.827  20.139  0.00  0.00    +0.000 NA
ATOM      4  C   UNL     1       2.103   3.804  19.445  0.00  0.00    +0.000 A 
ATOM      5  C   UNL     1       3.301   3.895  18.775  0.00  0.00    +0.000 A 
ATOM      6  C   UNL     1       3.963   5.103  18.869  0.00  0.00    +0.000 A 
ATOM      7  N   UNL     1       3.414   6.178  19.506  0.00  0.00    +0.000 NA
ATOM      8  H   UNL     1       0.767   6.573  21.251  0.00  0.00    +0.000 HD
ENDROOT
BRANCH   6   9
ATOM      9  C   UNL     1       4.993   5.390  17.861  0.00  0.00    +0.000 A 
ATOM     10  C   UNL     1       6.254   5.753  18.350  0.00  0.00    +0.000 A 
ATOM     11  C   UNL     1       7.258   4.715  18.823  0.00  0.00    +0.000 C 
ATOM     12  N   UNL     1       6.550   6.666  17.360  0.00  0.00    +0.000 N 
ATOM     13  C   UNL     1       6.399   5.945  16.202  0.00  0.00    +0.000 A 
ATOM     14  C   UNL     1       7.073   6.049  14.993  0.00  0.00    +0.000 A 
ATOM     15  C   UNL     1       6.922   4.967  14.140  0.00  0.00    +0.000 A 
ATOM     16  C   UNL     1       6.077   3.891  14.442  0.00  0.00    +0.000 A 
ATOM     17  C   UNL     1       5.255   3.909  15.597  0.00  0.00    +0.000 A 
ATOM     18  C   UNL     1       5.437   4.964  16.537  0.00  0.00    +0.000 A 
ATOM     19  H   UNL     1       6.836   7.632  17.463  0.00  0.00    +0.000 HD
BRANCH  16  20
ATOM     20  O   UNL     1       6.161   2.928  13.475  0.00  0.00    +0.000 OA
ATOM     21  C   UNL     1       5.909   3.230  12.114  0.00  0.00    +0.000 C 
ENDBRANCH  16  20
ENDBRANCH   6   9
BRANCH   1  25
ATOM     22  C   UNL     1       0.631  11.079  20.015  0.00  0.00    +0.000 A 
ATOM     23  C   UNL     1       1.106  10.260  18.986  0.00  0.00    +0.000 A 
ATOM     24  C   UNL     1       1.437   8.915  19.230  0.00  0.00    +0.000 A 
ATOM     25  C   UNL     1       1.292   8.366  20.498  0.00  0.00    +0.000 A 
ATOM     26  C   UNL     1       0.878   9.219  21.533  0.00  0.00    +0.000 A 
ATOM     27  C   UNL     1       0.534  10.556  21.297  0.00  0.00    +0.000 A 
BRANCH  22  29
ATOM     28  C   UNL     1      -0.656  12.487  18.613  0.00  0.00    +0.000 C 
ATOM     29  O   UNL     1       0.314  12.360  19.651  0.00  0.00    +0.000 OA
ENDBRANCH  22  29
ENDBRANCH   1  25
TORSDOF 4
ENDMDL
MODEL 9
REMARK VINA RESULT:      -6.8      2.179      3.155
REMARK  Name = 
REMARK  7 active torsions:
REMARK  status: ('A' for Active; 'I' for Inactive)
REMARK    1  A    between atoms: C_1  and  O_2
REMARK    2  A    between atoms: O_2  and  C_3
REMARK    3  A    between atoms: C_6  and  N_7
REMARK    4  A    between atoms: C_12  and  C_13
REMARK    5  A    between atoms: C_14  and  C_15
REMARK    6  A    between atoms: C_20  and  O_21
REMARK    7  A    between atoms: O_21  and  C_22
REMARK                            x       y       z     vdW  Elec       q    Type
REMARK                         _______ _______ _______ _____ _____    ______ ____
ROOT
ATOM      1  N   UNL     1       1.611   6.348  21.456  0.00  0.00    +0.000 N 
ATOM      2  C   UNL     1       2.123   5.159  20.919  0.00  0.00    +0.000 A 
ATOM      3  N   UNL     1       1.482   4.051  21.341  0.00  0.00    +0.000 NA
ATOM      4  C   UNL     1       1.889   2.868  20.840  0.00  0.00    +0.000 A 
ATOM      5  C   UNL     1       2.950   2.742  19.973  0.00  0.00    +0.000 A 
ATOM      6  C   UNL     1       3.618   3.907  19.652  0.00  0.00    +0.000 A 
ATOM      7  N   UNL     1       3.188   5.128  20.088  0.00  0.00    +0.000 NA
ATOM      8  H   UNL     1       0.890   6.048  22.108  0.00  0.00    +0.000 HD
ENDROOT
BRANCH   6   9
ATOM      9  C   UNL     1       4.454   3.897  18.443  0.00  0.00    +0.000 A 
ATOM     10  C   UNL     1       3.841   3.438  17.271  0.00  0.00    +0.000 A 
ATOM     11  C   UNL     1       2.947   4.335  16.431  0.00  0.00    +0.000 C 
ATOM     12  N   UNL     1       4.951   2.809  16.749  0.00  0.00    +0.000 N 
ATOM     13  C   UNL     1       5.903   3.798  16.733  0.00  0.00    +0.000 A 
ATOM     14  C   UNL     1       6.951   4.012  15.849  0.00  0.00    +0.000 A 
ATOM     15  C   UNL     1       7.525   5.272  15.908  0.00  0.00    +0.000 A 
ATOM     16  C   UNL     1       7.131   6.226  16.857  0.00  0.00    +0.000 A 
ATOM     17  C   UNL     1       6.192   5.906  17.870  0.00  0.00    +0.000 A 
ATOM     18  C   UNL     1       5.524   4.650  17.796  0.00  0.00    +0.000 A 
ATOM     19  H   UNL     1       5.037   1.853  16.428  0.00  0.00    +0.000 HD
BRANCH  16  20
ATOM     20  O   UNL     1       7.797   7.404  16.659  0.00  0.00    +0.000 OA
ATOM     21  C   UNL     1       7.880   8.381  17.682  0.00  0.00    +0.000 C 
ENDBRANCH  16  20
ENDBRANCH   6   9
BRANCH   1  25
ATOM     22  C   UNL     1       0.437  10.067  19.787  0.00  0.00    +0.000 A 
ATOM     23  C   UNL     1       1.396   9.288  19.133  0.00  0.00    +0.000 A 
ATOM     24  C   UNL     1       1.812   8.056  19.668  0.00  0.00    +0.000 A 
ATOM     25  C   UNL     1       1.273   7.579  20.858  0.00  0.00    +0.000 A 
ATOM     26  C   UNL     1       0.361   8.405  21.535  0.00  0.00    +0.000 A 
ATOM     27  C   UNL     1      -0.069   9.627  21.002  0.00  0.00    +0.000 A 
BRANCH  22  29
ATOM     28  C   UNL     1       1.176  12.064  18.752  0.00  0.00    +0.000 C 
ATOM     29  O   UNL     1       0.091  11.231  19.154  0.00  0.00    +0.000 OA
ENDBRANCH  22  29
ENDBRANCH   1  25
TORSDOF 4
ENDMDL
