MODEL 1
REMARK VINA RESULT:      -7.8      0.000      0.000
REMARK  Name = 
REMARK  7 active torsions:
REMARK  status: ('A' for Active; 'I' for Inactive)
REMARK    1  A    between atoms: C_1  and  C_2
REMARK    2  A    between atoms: C_2  and  N_3
REMARK    3  A    between atoms: C_4  and  C_5
REMARK    4  A    between atoms: C_5  and  N_6
REMARK    5  A    between atoms: C_15  and  N_16
REMARK    6  A    between atoms: C_17  and  C_19
REMARK    7  A    between atoms: C_23  and  N_24
REMARK                            x       y       z     vdW  Elec       q    Type
REMARK                         _______ _______ _______ _____ _____    ______ ____
ROOT
ATOM      1  N   UNL     1       4.254   4.071  18.078  0.00  0.00    +0.000 N 
ATOM      2  C   UNL     1       4.811   4.587  16.925  0.00  0.00    +0.000 A 
ATOM      3  N   UNL     1       4.507   5.869  16.810  0.00  0.00    +0.000 NA
ATOM      4  C   UNL     1       3.659   6.155  17.850  0.00  0.00    +0.000 A 
ATOM      5  C   UNL     1       3.062   7.374  18.216  0.00  0.00    +0.000 A 
ATOM      6  C   UNL     1       2.190   7.414  19.313  0.00  0.00    +0.000 A 
ATOM      7  C   UNL     1       1.924   6.239  20.030  0.00  0.00    +0.000 A 
ATOM      8  C   UNL     1       2.521   5.021  19.689  0.00  0.00    +0.000 A 
ATOM      9  C   UNL     1       3.410   5.022  18.610  0.00  0.00    +0.000 A 
ENDROOT
BRANCH   6  10
ATOM     10  N   UNL     1       1.547   8.594  19.756  0.00  0.00    +0.000 N 
ATOM     11  C   UNL     1       1.099   9.620  18.947  0.00  0.00    +0.000 C 
ATOM     12  O   UNL     1       1.129   9.646  17.721  0.00  0.00    +0.000 OA
ATOM     13  H   UNL     1       1.309   8.629  20.739  0.00  0.00    +0.000 HD
BRANCH  11  14
ATOM     14  C   UNL     1       0.472  10.780  19.630  0.00  0.00    +0.000 A 
ATOM     15  C   UNL     1       0.310  12.029  19.013  0.00  0.00    +0.000 A 
ATOM     16  C   UNL     1      -0.369  13.053  19.683  0.00  0.00    +0.000 A 
ATOM     17  C   UNL     1      -0.886  12.838  20.964  0.00  0.00    +0.000 A 
ATOM     18  C   UNL     1      -0.717  11.588  21.577  0.00  0.00    +0.000 A 
ATOM     19  C   UNL     1      -0.039  10.564  20.918  0.00  0.00    +0.000 A 
BRANCH  18  20
ATOM     20  N   UNL     1      -1.261  11.352  22.921  0.00  0.00    +0.000 N 
ATOM     21  O   UNL     1      -2.220  12.043  23.285  0.00  0.00    +0.000 OA
ATOM     22  O   UNL     1      -0.735  10.463  23.607  0.00  0.00    +0.000 OA
ENDBRANCH  18  20
ENDBRANCH  11  14
ENDBRANCH   6  10
BRANCH   1  24
ATOM     23  C   UNL     1       3.588   1.700  18.401  0.00  0.00    +0.000 C 
ATOM     24  C   UNL     1       4.584   2.814  18.726  0.00  0.00    +0.000 C 
ENDBRANCH   1  24
BRANCH   2  25
ATOM     25  C   UNL     1       5.721   3.842  15.985  0.00  0.00    +0.000 C 
BRANCH  25  26
ATOM     26  N   UNL     1       5.836   4.412  14.610  0.00  0.00    +0.000 NA
ATOM     27  C   UNL     1       7.225   4.857  14.367  0.00  0.00    +0.000 C 
ATOM     28  C   UNL     1       7.581   5.122  12.898  0.00  0.00    +0.000 C 
ATOM     29  C   UNL     1       7.168   3.976  11.989  0.00  0.00    +0.000 C 
ATOM     30  C   UNL     1       5.692   3.687  12.191  0.00  0.00    +0.000 C 
ATOM     31  C   UNL     1       5.402   3.369  13.658  0.00  0.00    +0.000 C 
ENDBRANCH  25  26
ENDBRANCH   2  25
TORSDOF 6
ENDMDL
MODEL 2
REMARK VINA RESULT:      -7.8      2.820      4.538
REMARK  Name = 
REMARK  7 active torsions:
REMARK  status: ('A' for Active; 'I' for Inactive)
REMARK    1  A    between atoms: C_1  and  C_2
REMARK    2  A    between atoms: C_2  and  N_3
REMARK    3  A    between atoms: C_4  and  C_5
REMARK    4  A    between atoms: C_5  and  N_6
REMARK    5  A    between atoms: C_15  and  N_16
REMARK    6  A    between atoms: C_17  and  C_19
REMARK    7  A    between atoms: C_23  and  N_24
REMARK                            x       y       z     vdW  Elec       q    Type
REMARK                         _______ _______ _______ _____ _____    ______ ____
ROOT
ATOM      1  N   UNL     1       3.677   6.781  18.175  0.00  0.00    +0.000 N 
ATOM      2  C   UNL     1       3.676   5.966  19.289  0.00  0.00    +0.000 A 
ATOM      3  N   UNL     1       2.736   6.355  20.133  0.00  0.00    +0.000 NA
ATOM      4  C   UNL     1       2.192   7.496  19.600  0.00  0.00    +0.000 A 
ATOM      5  C   UNL     1       1.139   8.298  20.074  0.00  0.00    +0.000 A 
ATOM      6  C   UNL     1       0.779   9.454  19.366  0.00  0.00    +0.000 A 
ATOM      7  C   UNL     1       1.473   9.795  18.197  0.00  0.00    +0.000 A 
ATOM      8  C   UNL     1       2.513   9.000  17.704  0.00  0.00    +0.000 A 
ATOM      9  C   UNL     1       2.826   7.839  18.416  0.00  0.00    +0.000 A 
ENDROOT
BRANCH   6  10
ATOM     10  N   UNL     1      -0.268  10.318  19.764  0.00  0.00    +0.000 N 
ATOM     11  C   UNL     1      -0.310  11.047  20.936  0.00  0.00    +0.000 C 
ATOM     12  O   UNL     1       0.574  11.112  21.785  0.00  0.00    +0.000 OA
ATOM     13  H   UNL     1      -0.992  10.486  19.077  0.00  0.00    +0.000 HD
BRANCH  11  14
ATOM     14  C   UNL     1      -1.523  11.874  21.163  0.00  0.00    +0.000 A 
ATOM     15  C   UNL     1      -2.241  12.474  20.118  0.00  0.00    +0.000 A 
ATOM     16  C   UNL     1      -3.425  13.165  20.395  0.00  0.00    +0.000 A 
ATOM     17  C   UNL     1      -3.897  13.261  21.707  0.00  0.00    +0.000 A 
ATOM     18  C   UNL     1      -3.173  12.662  22.747  0.00  0.00    +0.000 A 
ATOM     19  C   UNL     1      -1.990  11.974  22.481  0.00  0.00    +0.000 A 
BRANCH  18  20
ATOM     20  N   UNL     1      -3.664  12.754  24.129  0.00  0.00    +0.000 N 
ATOM     21  O   UNL     1      -4.379  11.836  24.550  0.00  0.00    +0.000 OA
ATOM     22  O   UNL     1      -3.321  13.740  24.797  0.00  0.00    +0.000 OA
ENDBRANCH  18  20
ENDBRANCH  11  14
ENDBRANCH   6  10
BRANCH   1  24
ATOM     23  C   UNL     1       5.797   6.955  16.893  0.00  0.00    +0.000 C 
ATOM     24  C   UNL     1       4.329   6.527  16.902  0.00  0.00    +0.000 C 
ENDBRANCH   1  24
BRANCH   2  25
ATOM     25  C   UNL     1       4.539   4.747  19.481  0.00  0.00    +0.000 C 
BRANCH  25  26
ATOM     26  N   UNL     1       3.834   3.435  19.387  0.00  0.00    +0.000 NA
ATOM     27  C   UNL     1       2.769   3.365  20.410  0.00  0.00    +0.000 C 
ATOM     28  C   UNL     1       1.734   2.250  20.203  0.00  0.00    +0.000 C 
ATOM     29  C   UNL     1       1.186   2.228  18.786  0.00  0.00    +0.000 C 
ATOM     30  C   UNL     1       2.341   2.145  17.805  0.00  0.00    +0.000 C 
ATOM     31  C   UNL     1       3.307   3.310  18.012  0.00  0.00    +0.000 C 
ENDBRANCH  25  26
ENDBRANCH   2  25
TORSDOF 6
ENDMDL
MODEL 3
REMARK VINA RESULT:      -7.7      2.320      2.701
REMARK  Name = 
REMARK  7 active torsions:
REMARK  status: ('A' for Active; 'I' for Inactive)
REMARK    1  A    between atoms: C_1  and  C_2
REMARK    2  A    between atoms: C_2  and  N_3
REMARK    3  A    between atoms: C_4  and  C_5
REMARK    4  A    between atoms: C_5  and  N_6
REMARK    5  A    between atoms: C_15  and  N_16
REMARK    6  A    between atoms: C_17  and  C_19
REMARK    7  A    between atoms: C_23  and  N_24
REMARK                            x       y       z     vdW  Elec       q    Type
REMARK                         _______ _______ _______ _____ _____    ______ ____
ROOT
ATOM      1  N   UNL     1       5.501   5.495  17.853  0.00  0.00    +0.000 N 
ATOM      2  C   UNL     1       5.720   5.858  16.539  0.00  0.00    +0.000 A 
ATOM      3  N   UNL     1       4.870   6.807  16.185  0.00  0.00    +0.000 NA
ATOM      4  C   UNL     1       4.027   6.984  17.253  0.00  0.00    +0.000 A 
ATOM      5  C   UNL     1       2.963   7.888  17.421  0.00  0.00    +0.000 A 
ATOM      6  C   UNL     1       2.212   7.857  18.604  0.00  0.00    +0.000 A 
ATOM      7  C   UNL     1       2.530   6.927  19.603  0.00  0.00    +0.000 A 
ATOM      8  C   UNL     1       3.594   6.031  19.459  0.00  0.00    +0.000 A 
ATOM      9  C   UNL     1       4.343   6.109  18.281  0.00  0.00    +0.000 A 
ENDROOT
BRANCH   6  10
ATOM     10  N   UNL     1       1.127   8.729  18.862  0.00  0.00    +0.000 N 
ATOM     11  C   UNL     1       1.131  10.097  18.677  0.00  0.00    +0.000 C 
ATOM     12  O   UNL     1       2.045  10.765  18.203  0.00  0.00    +0.000 OA
ATOM     13  H   UNL     1       0.250   8.287  19.105  0.00  0.00    +0.000 HD
BRANCH  11  14
ATOM     14  C   UNL     1      -0.115  10.821  19.038  0.00  0.00    +0.000 A 
ATOM     15  C   UNL     1      -0.161  11.802  20.039  0.00  0.00    +0.000 A 
ATOM     16  C   UNL     1      -1.348  12.507  20.267  0.00  0.00    +0.000 A 
ATOM     17  C   UNL     1      -2.487  12.239  19.502  0.00  0.00    +0.000 A 
ATOM     18  C   UNL     1      -2.435  11.255  18.506  0.00  0.00    +0.000 A 
ATOM     19  C   UNL     1      -1.258  10.545  18.275  0.00  0.00    +0.000 A 
BRANCH  18  20
ATOM     20  N   UNL     1      -3.626  10.969  17.695  0.00  0.00    +0.000 N 
ATOM     21  O   UNL     1      -3.834  11.681  16.704  0.00  0.00    +0.000 OA
ATOM     22  O   UNL     1      -4.347  10.023  18.044  0.00  0.00    +0.000 OA
ENDBRANCH  18  20
ENDBRANCH  11  14
ENDBRANCH   6  10
BRANCH   1  24
ATOM     23  C   UNL     1       7.482   5.576  19.348  0.00  0.00    +0.000 C 
ATOM     24  C   UNL     1       6.385   4.724  18.709  0.00  0.00    +0.000 C 
ENDBRANCH   1  24
BRANCH   2  25
ATOM     25  C   UNL     1       6.827   5.338  15.661  0.00  0.00    +0.000 C 
BRANCH  25  26
ATOM     26  N   UNL     1       6.485   5.179  14.217  0.00  0.00    +0.000 NA
ATOM     27  C   UNL     1       7.723   5.172  13.408  0.00  0.00    +0.000 C 
ATOM     28  C   UNL     1       7.564   4.656  11.971  0.00  0.00    +0.000 C 
ATOM     29  C   UNL     1       6.820   3.333  11.912  0.00  0.00    +0.000 C 
ATOM     30  C   UNL     1       5.493   3.475  12.634  0.00  0.00    +0.000 C 
ATOM     31  C   UNL     1       5.711   3.929  14.077  0.00  0.00    +0.000 C 
ENDBRANCH  25  26
ENDBRANCH   2  25
TORSDOF 6
ENDMDL
MODEL 4
REMARK VINA RESULT:      -7.7      3.055     10.929
REMARK  Name = 
REMARK  7 active torsions:
REMARK  status: ('A' for Active; 'I' for Inactive)
REMARK    1  A    between atoms: C_1  and  C_2
REMARK    2  A    between atoms: C_2  and  N_3
REMARK    3  A    between atoms: C_4  and  C_5
REMARK    4  A    between atoms: C_5  and  N_6
REMARK    5  A    between atoms: C_15  and  N_16
REMARK    6  A    between atoms: C_17  and  C_19
REMARK    7  A    between atoms: C_23  and  N_24
REMARK                            x       y       z     vdW  Elec       q    Type
REMARK                         _______ _______ _______ _____ _____    ______ ____
ROOT
ATOM      1  N   UNL     1       0.041  12.275  20.742  0.00  0.00    +0.000 N 
ATOM      2  C   UNL     1      -0.556  11.670  21.830  0.00  0.00    +0.000 A 
ATOM      3  N   UNL     1      -0.247  10.385  21.859  0.00  0.00    +0.000 NA
ATOM      4  C   UNL     1       0.476  10.140  20.719  0.00  0.00    +0.000 A 
ATOM      5  C   UNL     1       1.074   8.949  20.271  0.00  0.00    +0.000 A 
ATOM      6  C   UNL     1       1.740   8.933  19.037  0.00  0.00    +0.000 A 
ATOM      7  C   UNL     1       1.799  10.103  18.266  0.00  0.00    +0.000 A 
ATOM      8  C   UNL     1       1.222  11.299  18.704  0.00  0.00    +0.000 A 
ATOM      9  C   UNL     1       0.594  11.289  19.953  0.00  0.00    +0.000 A 
ENDROOT
BRANCH   6  10
ATOM     10  N   UNL     1       2.374   7.784  18.507  0.00  0.00    +0.000 N 
ATOM     11  C   UNL     1       2.557   6.587  19.170  0.00  0.00    +0.000 C 
ATOM     12  O   UNL     1       2.148   6.307  20.293  0.00  0.00    +0.000 OA
ATOM     13  H   UNL     1       2.616   7.823  17.525  0.00  0.00    +0.000 HD
BRANCH  11  14
ATOM     14  C   UNL     1       3.274   5.518  18.428  0.00  0.00    +0.000 A 
ATOM     15  C   UNL     1       2.609   4.485  17.752  0.00  0.00    +0.000 A 
ATOM     16  C   UNL     1       3.343   3.562  16.999  0.00  0.00    +0.000 A 
ATOM     17  C   UNL     1       4.734   3.664  16.917  0.00  0.00    +0.000 A 
ATOM     18  C   UNL     1       5.393   4.697  17.598  0.00  0.00    +0.000 A 
ATOM     19  C   UNL     1       4.670   5.619  18.354  0.00  0.00    +0.000 A 
BRANCH  18  20
ATOM     20  N   UNL     1       6.855   4.814  17.514  0.00  0.00    +0.000 N 
ATOM     21  O   UNL     1       7.340   5.238  16.458  0.00  0.00    +0.000 OA
ATOM     22  O   UNL     1       7.516   4.495  18.513  0.00  0.00    +0.000 OA
ENDBRANCH  18  20
ENDBRANCH  11  14
ENDBRANCH   6  10
BRANCH   1  24
ATOM     23  C   UNL     1      -0.749  14.241  19.446  0.00  0.00    +0.000 C 
ATOM     24  C   UNL     1       0.205  13.699  20.510  0.00  0.00    +0.000 C 
ENDBRANCH   1  24
BRANCH   2  25
ATOM     25  C   UNL     1      -1.355  12.376  22.893  0.00  0.00    +0.000 C 
BRANCH  25  26
ATOM     26  N   UNL     1      -2.825  12.122  22.873  0.00  0.00    +0.000 NA
ATOM     27  C   UNL     1      -3.446  12.674  24.096  0.00  0.00    +0.000 C 
ATOM     28  C   UNL     1      -4.974  12.816  24.050  0.00  0.00    +0.000 C 
ATOM     29  C   UNL     1      -5.450  13.513  22.787  0.00  0.00    +0.000 C 
ATOM     30  C   UNL     1      -4.892  12.789  21.576  0.00  0.00    +0.000 C 
ATOM     31  C   UNL     1      -3.366  12.731  21.640  0.00  0.00    +0.000 C 
ENDBRANCH  25  26
ENDBRANCH   2  25
TORSDOF 6
ENDMDL
MODEL 5
REMARK VINA RESULT:      -7.7      1.432      1.750
REMARK  Name = 
REMARK  7 active torsions:
REMARK  status: ('A' for Active; 'I' for Inactive)
REMARK    1  A    between atoms: C_1  and  C_2
REMARK    2  A    between atoms: C_2  and  N_3
REMARK    3  A    between atoms: C_4  and  C_5
REMARK    4  A    between atoms: C_5  and  N_6
REMARK    5  A    between atoms: C_15  and  N_16
REMARK    6  A    between atoms: C_17  and  C_19
REMARK    7  A    between atoms: C_23  and  N_24
REMARK                            x       y       z     vdW  Elec       q    Type
REMARK                         _______ _______ _______ _____ _____    ______ ____
ROOT
ATOM      1  N   UNL     1       5.396   5.484  17.931  0.00  0.00    +0.000 N 
ATOM      2  C   UNL     1       5.660   5.895  16.640  0.00  0.00    +0.000 A 
ATOM      3  N   UNL     1       4.850   6.886  16.307  0.00  0.00    +0.000 NA
ATOM      4  C   UNL     1       3.987   7.045  17.362  0.00  0.00    +0.000 A 
ATOM      5  C   UNL     1       2.949   7.976  17.543  0.00  0.00    +0.000 A 
ATOM      6  C   UNL     1       2.167   7.920  18.706  0.00  0.00    +0.000 A 
ATOM      7  C   UNL     1       2.430   6.938  19.671  0.00  0.00    +0.000 A 
ATOM      8  C   UNL     1       3.468   6.015  19.513  0.00  0.00    +0.000 A 
ATOM      9  C   UNL     1       4.248   6.117  18.358  0.00  0.00    +0.000 A 
ENDROOT
BRANCH   6  10
ATOM     10  N   UNL     1       1.105   8.816  18.975  0.00  0.00    +0.000 N 
ATOM     11  C   UNL     1       1.134  10.183  18.784  0.00  0.00    +0.000 C 
ATOM     12  O   UNL     1       2.056  10.829  18.294  0.00  0.00    +0.000 OA
ATOM     13  H   UNL     1       0.222   8.393  19.232  0.00  0.00    +0.000 HD
BRANCH  11  14
ATOM     14  C   UNL     1      -0.090  10.934  19.160  0.00  0.00    +0.000 A 
ATOM     15  C   UNL     1      -1.134  11.186  18.258  0.00  0.00    +0.000 A 
ATOM     16  C   UNL     1      -2.299  11.822  18.702  0.00  0.00    +0.000 A 
ATOM     17  C   UNL     1      -2.426  12.209  20.040  0.00  0.00    +0.000 A 
ATOM     18  C   UNL     1      -1.377  11.958  20.935  0.00  0.00    +0.000 A 
ATOM     19  C   UNL     1      -0.212  11.327  20.500  0.00  0.00    +0.000 A 
BRANCH  18  20
ATOM     20  N   UNL     1      -1.504  12.357  22.343  0.00  0.00    +0.000 N 
ATOM     21  O   UNL     1      -0.635  11.970  23.133  0.00  0.00    +0.000 OA
ATOM     22  O   UNL     1      -2.468  13.072  22.654  0.00  0.00    +0.000 OA
ENDBRANCH  18  20
ENDBRANCH  11  14
ENDBRANCH   6  10
BRANCH   1  24
ATOM     23  C   UNL     1       7.343   5.435  19.471  0.00  0.00    +0.000 C 
ATOM     24  C   UNL     1       6.233   4.649  18.775  0.00  0.00    +0.000 C 
ENDBRANCH   1  24
BRANCH   2  25
ATOM     25  C   UNL     1       6.771   5.377  15.767  0.00  0.00    +0.000 C 
BRANCH  25  26
ATOM     26  N   UNL     1       6.437   5.220  14.321  0.00  0.00    +0.000 NA
ATOM     27  C   UNL     1       7.679   5.219  13.518  0.00  0.00    +0.000 C 
ATOM     28  C   UNL     1       7.529   4.706  12.079  0.00  0.00    +0.000 C 
ATOM     29  C   UNL     1       6.790   3.380  12.013  0.00  0.00    +0.000 C 
ATOM     30  C   UNL     1       5.459   3.516  12.729  0.00  0.00    +0.000 C 
ATOM     31  C   UNL     1       5.668   3.967  14.174  0.00  0.00    +0.000 C 
ENDBRANCH  25  26
ENDBRANCH   2  25
TORSDOF 6
ENDMDL
MODEL 6
REMARK VINA RESULT:      -7.7      2.193      2.669
REMARK  Name = 
REMARK  7 active torsions:
REMARK  status: ('A' for Active; 'I' for Inactive)
REMARK    1  A    between atoms: C_1  and  C_2
REMARK    2  A    between atoms: C_2  and  N_3
REMARK    3  A    between atoms: C_4  and  C_5
REMARK    4  A    between atoms: C_5  and  N_6
REMARK    5  A    between atoms: C_15  and  N_16
REMARK    6  A    between atoms: C_17  and  C_19
REMARK    7  A    between atoms: C_23  and  N_24
REMARK                            x       y       z     vdW  Elec       q    Type
REMARK                         _______ _______ _______ _____ _____    ______ ____
ROOT
ATOM      1  N   UNL     1       5.332   5.470  17.897  0.00  0.00    +0.000 N 
ATOM      2  C   UNL     1       5.651   5.880  16.618  0.00  0.00    +0.000 A 
ATOM      3  N   UNL     1       4.904   6.915  16.275  0.00  0.00    +0.000 NA
ATOM      4  C   UNL     1       4.023   7.110  17.309  0.00  0.00    +0.000 A 
ATOM      5  C   UNL     1       3.032   8.094  17.474  0.00  0.00    +0.000 A 
ATOM      6  C   UNL     1       2.218   8.068  18.616  0.00  0.00    +0.000 A 
ATOM      7  C   UNL     1       2.403   7.064  19.576  0.00  0.00    +0.000 A 
ATOM      8  C   UNL     1       3.394   6.088  19.435  0.00  0.00    +0.000 A 
ATOM      9  C   UNL     1       4.208   6.160  18.301  0.00  0.00    +0.000 A 
ENDROOT
BRANCH   6  10
ATOM     10  N   UNL     1       1.198   9.016  18.868  0.00  0.00    +0.000 N 
ATOM     11  C   UNL     1       0.786   9.446  20.114  0.00  0.00    +0.000 C 
ATOM     12  O   UNL     1       1.276   9.124  21.193  0.00  0.00    +0.000 OA
ATOM     13  H   UNL     1       0.819   9.487  18.057  0.00  0.00    +0.000 HD
BRANCH  11  14
ATOM     14  C   UNL     1      -0.323  10.433  20.145  0.00  0.00    +0.000 A 
ATOM     15  C   UNL     1      -0.504  11.340  21.199  0.00  0.00    +0.000 A 
ATOM     16  C   UNL     1      -1.517  12.302  21.122  0.00  0.00    +0.000 A 
ATOM     17  C   UNL     1      -2.349  12.364  20.001  0.00  0.00    +0.000 A 
ATOM     18  C   UNL     1      -2.165  11.451  18.952  0.00  0.00    +0.000 A 
ATOM     19  C   UNL     1      -1.161  10.487  19.022  0.00  0.00    +0.000 A 
BRANCH  18  20
ATOM     20  N   UNL     1      -3.033  11.511  17.769  0.00  0.00    +0.000 N 
ATOM     21  O   UNL     1      -4.241  11.709  17.948  0.00  0.00    +0.000 OA
ATOM     22  O   UNL     1      -2.501  11.374  16.657  0.00  0.00    +0.000 OA
ENDBRANCH  18  20
ENDBRANCH  11  14
ENDBRANCH   6  10
BRANCH   1  24
ATOM     23  C   UNL     1       7.226   5.304  19.494  0.00  0.00    +0.000 C 
ATOM     24  C   UNL     1       6.101   4.583  18.752  0.00  0.00    +0.000 C 
ENDBRANCH   1  24
BRANCH   2  25
ATOM     25  C   UNL     1       6.755   5.311  15.768  0.00  0.00    +0.000 C 
BRANCH  25  26
ATOM     26  N   UNL     1       6.457   5.200  14.310  0.00  0.00    +0.000 NA
ATOM     27  C   UNL     1       7.720   5.121  13.545  0.00  0.00    +0.000 C 
ATOM     28  C   UNL     1       7.579   4.643  12.093  0.00  0.00    +0.000 C 
ATOM     29  C   UNL     1       6.750   3.375  11.982  0.00  0.00    +0.000 C 
ATOM     30  C   UNL     1       5.410   3.595  12.660  0.00  0.00    +0.000 C 
ATOM     31  C   UNL     1       5.605   4.008  14.118  0.00  0.00    +0.000 C 
ENDBRANCH  25  26
ENDBRANCH   2  25
TORSDOF 6
ENDMDL
MODEL 7
REMARK VINA RESULT:      -7.7      3.477     10.776
REMARK  Name = 
REMARK  7 active torsions:
REMARK  status: ('A' for Active; 'I' for Inactive)
REMARK    1  A    between atoms: C_1  and  C_2
REMARK    2  A    between atoms: C_2  and  N_3
REMARK    3  A    between atoms: C_4  and  C_5
REMARK    4  A    between atoms: C_5  and  N_6
REMARK    5  A    between atoms: C_15  and  N_16
REMARK    6  A    between atoms: C_17  and  C_19
REMARK    7  A    between atoms: C_23  and  N_24
REMARK                            x       y       z     vdW  Elec       q    Type
REMARK                         _______ _______ _______ _____ _____    ______ ____
ROOT
ATOM      1  N   UNL     1      -0.650  12.785  19.354  0.00  0.00    +0.000 N 
ATOM      2  C   UNL     1      -1.907  12.215  19.400  0.00  0.00    +0.000 A 
ATOM      3  N   UNL     1      -1.830  10.927  19.112  0.00  0.00    +0.000 NA
ATOM      4  C   UNL     1      -0.521  10.687  18.778  0.00  0.00    +0.000 A 
ATOM      5  C   UNL     1       0.111   9.483  18.420  0.00  0.00    +0.000 A 
ATOM      6  C   UNL     1       1.472   9.493  18.081  0.00  0.00    +0.000 A 
ATOM      7  C   UNL     1       2.183  10.701  18.102  0.00  0.00    +0.000 A 
ATOM      8  C   UNL     1       1.573  11.904  18.470  0.00  0.00    +0.000 A 
ATOM      9  C   UNL     1       0.224  11.855  18.833  0.00  0.00    +0.000 A 
ENDROOT
BRANCH   6  10
ATOM     10  N   UNL     1       2.191   8.332  17.712  0.00  0.00    +0.000 N 
ATOM     11  C   UNL     1       2.511   7.280  18.548  0.00  0.00    +0.000 C 
ATOM     12  O   UNL     1       2.170   7.155  19.721  0.00  0.00    +0.000 OA
ATOM     13  H   UNL     1       2.393   8.229  16.725  0.00  0.00    +0.000 HD
BRANCH  11  14
ATOM     14  C   UNL     1       3.297   6.171  17.953  0.00  0.00    +0.000 A 
ATOM     15  C   UNL     1       2.846   4.843  17.935  0.00  0.00    +0.000 A 
ATOM     16  C   UNL     1       3.597   3.862  17.278  0.00  0.00    +0.000 A 
ATOM     17  C   UNL     1       4.795   4.198  16.641  0.00  0.00    +0.000 A 
ATOM     18  C   UNL     1       5.242   5.527  16.666  0.00  0.00    +0.000 A 
ATOM     19  C   UNL     1       4.502   6.510  17.320  0.00  0.00    +0.000 A 
BRANCH  18  20
ATOM     20  N   UNL     1       6.498   5.889  15.995  0.00  0.00    +0.000 N 
ATOM     21  O   UNL     1       6.543   5.791  14.762  0.00  0.00    +0.000 OA
ATOM     22  O   UNL     1       7.435   6.287  16.702  0.00  0.00    +0.000 OA
ENDBRANCH  18  20
ENDBRANCH  11  14
ENDBRANCH   6  10
BRANCH   1  24
ATOM     23  C   UNL     1       0.258  13.993  21.325  0.00  0.00    +0.000 C 
ATOM     24  C   UNL     1      -0.252  14.076  19.886  0.00  0.00    +0.000 C 
ENDBRANCH   1  24
BRANCH   2  25
ATOM     25  C   UNL     1      -3.170  12.918  19.819  0.00  0.00    +0.000 C 
BRANCH  25  26
ATOM     26  N   UNL     1      -4.385  12.056  19.923  0.00  0.00    +0.000 NA
ATOM     27  C   UNL     1      -5.239  12.528  21.035  0.00  0.00    +0.000 C 
ATOM     28  C   UNL     1      -6.674  11.984  21.036  0.00  0.00    +0.000 C 
ATOM     29  C   UNL     1      -7.346  12.129  19.681  0.00  0.00    +0.000 C 
ATOM     30  C   UNL     1      -6.475  11.482  18.620  0.00  0.00    +0.000 C 
ATOM     31  C   UNL     1      -5.078  12.103  18.620  0.00  0.00    +0.000 C 
ENDBRANCH  25  26
ENDBRANCH   2  25
TORSDOF 6
ENDMDL
MODEL 8
REMARK VINA RESULT:      -7.7      3.288      4.564
REMARK  Name = 
REMARK  7 active torsions:
REMARK  status: ('A' for Active; 'I' for Inactive)
REMARK    1  A    between atoms: C_1  and  C_2
REMARK    2  A    between atoms: C_2  and  N_3
REMARK    3  A    between atoms: C_4  and  C_5
REMARK    4  A    between atoms: C_5  and  N_6
REMARK    5  A    between atoms: C_15  and  N_16
REMARK    6  A    between atoms: C_17  and  C_19
REMARK    7  A    between atoms: C_23  and  N_24
REMARK                            x       y       z     vdW  Elec       q    Type
REMARK                         _______ _______ _______ _____ _____    ______ ____
ROOT
ATOM      1  N   UNL     1       2.420   5.932  19.744  0.00  0.00    +0.000 N 
ATOM      2  C   UNL     1       2.956   5.782  18.481  0.00  0.00    +0.000 A 
ATOM      3  N   UNL     1       2.936   6.938  17.840  0.00  0.00    +0.000 NA
ATOM      4  C   UNL     1       2.286   7.821  18.665  0.00  0.00    +0.000 A 
ATOM      5  C   UNL     1       2.018   9.190  18.487  0.00  0.00    +0.000 A 
ATOM      6  C   UNL     1       1.295   9.885  19.468  0.00  0.00    +0.000 A 
ATOM      7  C   UNL     1       0.849   9.207  20.611  0.00  0.00    +0.000 A 
ATOM      8  C   UNL     1       1.121   7.849  20.810  0.00  0.00    +0.000 A 
ATOM      9  C   UNL     1       1.870   7.194  19.830  0.00  0.00    +0.000 A 
ENDROOT
BRANCH   6  10
ATOM     10  N   UNL     1       0.981  11.261  19.376  0.00  0.00    +0.000 N 
ATOM     11  C   UNL     1       1.705  12.209  18.679  0.00  0.00    +0.000 C 
ATOM     12  O   UNL     1       2.693  12.001  17.981  0.00  0.00    +0.000 OA
ATOM     13  H   UNL     1       0.094  11.542  19.773  0.00  0.00    +0.000 HD
BRANCH  11  14
ATOM     14  C   UNL     1       1.205  13.606  18.740  0.00  0.00    +0.000 A 
ATOM     15  C   UNL     1      -0.108  13.928  19.114  0.00  0.00    +0.000 A 
ATOM     16  C   UNL     1      -0.487  15.269  19.237  0.00  0.00    +0.000 A 
ATOM     17  C   UNL     1       0.436  16.290  18.988  0.00  0.00    +0.000 A 
ATOM     18  C   UNL     1       1.745  15.961  18.612  0.00  0.00    +0.000 A 
ATOM     19  C   UNL     1       2.131  14.627  18.484  0.00  0.00    +0.000 A 
BRANCH  18  20
ATOM     20  N   UNL     1       2.723  17.027  18.353  0.00  0.00    +0.000 N 
ATOM     21  O   UNL     1       3.295  17.533  19.326  0.00  0.00    +0.000 OA
ATOM     22  O   UNL     1       2.927  17.346  17.173  0.00  0.00    +0.000 OA
ENDBRANCH  18  20
ENDBRANCH  11  14
ENDBRANCH   6  10
BRANCH   1  24
ATOM     23  C   UNL     1       1.396   3.978  20.884  0.00  0.00    +0.000 C 
ATOM     24  C   UNL     1       2.526   5.007  20.858  0.00  0.00    +0.000 C 
ENDBRANCH   1  24
BRANCH   2  25
ATOM     25  C   UNL     1       3.574   4.521  17.938  0.00  0.00    +0.000 C 
BRANCH  25  26
ATOM     26  N   UNL     1       5.059   4.537  17.798  0.00  0.00    +0.000 NA
ATOM     27  C   UNL     1       5.434   5.169  16.515  0.00  0.00    +0.000 C 
ATOM     28  C   UNL     1       6.907   5.585  16.394  0.00  0.00    +0.000 C 
ATOM     29  C   UNL     1       7.381   6.382  17.598  0.00  0.00    +0.000 C 
ATOM     30  C   UNL     1       7.097   5.592  18.862  0.00  0.00    +0.000 C 
ATOM     31  C   UNL     1       5.609   5.258  18.965  0.00  0.00    +0.000 C 
ENDBRANCH  25  26
ENDBRANCH   2  25
TORSDOF 6
ENDMDL
MODEL 9
REMARK VINA RESULT:      -7.7      3.030     10.980
REMARK  Name = 
REMARK  7 active torsions:
REMARK  status: ('A' for Active; 'I' for Inactive)
REMARK    1  A    between atoms: C_1  and  C_2
REMARK    2  A    between atoms: C_2  and  N_3
REMARK    3  A    between atoms: C_4  and  C_5
REMARK    4  A    between atoms: C_5  and  N_6
REMARK    5  A    between atoms: C_15  and  N_16
REMARK    6  A    between atoms: C_17  and  C_19
REMARK    7  A    between atoms: C_23  and  N_24
REMARK                            x       y       z     vdW  Elec       q    Type
REMARK                         _______ _______ _______ _____ _____    ______ ____
ROOT
ATOM      1  N   UNL     1       0.130  13.233  19.591  0.00  0.00    +0.000 N 
ATOM      2  C   UNL     1      -1.083  12.740  20.029  0.00  0.00    +0.000 A 
ATOM      3  N   UNL     1      -1.113  11.425  19.892  0.00  0.00    +0.000 NA
ATOM      4  C   UNL     1       0.057  11.080  19.264  0.00  0.00    +0.000 A 
ATOM      5  C   UNL     1       0.547   9.811  18.906  0.00  0.00    +0.000 A 
ATOM      6  C   UNL     1       1.771   9.710  18.229  0.00  0.00    +0.000 A 
ATOM      7  C   UNL     1       2.489  10.872  17.917  0.00  0.00    +0.000 A 
ATOM      8  C   UNL     1       2.023  12.140  18.278  0.00  0.00    +0.000 A 
ATOM      9  C   UNL     1       0.816  12.205  18.980  0.00  0.00    +0.000 A 
ENDROOT
BRANCH   6  10
ATOM     10  N   UNL     1       2.343   8.477  17.832  0.00  0.00    +0.000 N 
ATOM     11  C   UNL     1       2.570   7.392  18.655  0.00  0.00    +0.000 C 
ATOM     12  O   UNL     1       2.258   7.298  19.839  0.00  0.00    +0.000 OA
ATOM     13  H   UNL     1       2.498   8.359  16.839  0.00  0.00    +0.000 HD
BRANCH  11  14
ATOM     14  C   UNL     1       3.207   6.205  18.030  0.00  0.00    +0.000 A 
ATOM     15  C   UNL     1       2.592   4.945  17.990  0.00  0.00    +0.000 A 
ATOM     16  C   UNL     1       3.210   3.891  17.308  0.00  0.00    +0.000 A 
ATOM     17  C   UNL     1       4.436   4.088  16.665  0.00  0.00    +0.000 A 
ATOM     18  C   UNL     1       5.046   5.349  16.712  0.00  0.00    +0.000 A 
ATOM     19  C   UNL     1       4.440   6.403  17.393  0.00  0.00    +0.000 A 
BRANCH  18  20
ATOM     20  N   UNL     1       6.333   5.565  16.037  0.00  0.00    +0.000 N 
ATOM     21  O   UNL     1       6.312   5.832  14.829  0.00  0.00    +0.000 OA
ATOM     22  O   UNL     1       7.363   5.481  16.720  0.00  0.00    +0.000 OA
ENDBRANCH  18  20
ENDBRANCH  11  14
ENDBRANCH   6  10
BRANCH   1  24
ATOM     23  C   UNL     1       1.463  14.632  21.150  0.00  0.00    +0.000 C 
ATOM     24  C   UNL     1       0.681  14.553  19.839  0.00  0.00    +0.000 C 
ENDBRANCH   1  24
BRANCH   2  25
ATOM     25  C   UNL     1      -2.177  13.552  20.669  0.00  0.00    +0.000 C 
BRANCH  25  26
ATOM     26  N   UNL     1      -3.111  12.794  21.554  0.00  0.00    +0.000 NA
ATOM     27  C   UNL     1      -2.673  12.913  22.962  0.00  0.00    +0.000 C 
ATOM     28  C   UNL     1      -3.717  12.505  24.010  0.00  0.00    +0.000 C 
ATOM     29  C   UNL     1      -5.068  13.154  23.761  0.00  0.00    +0.000 C 
ATOM     30  C   UNL     1      -5.513  12.853  22.342  0.00  0.00    +0.000 C 
ATOM     31  C   UNL     1      -4.468  13.335  21.337  0.00  0.00    +0.000 C 
ENDBRANCH  25  26
ENDBRANCH   2  25
TORSDOF 6
ENDMDL
