MODEL 1
REMARK VINA RESULT:      -7.4      0.000      0.000
REMARK  Name = 
REMARK  4 active torsions:
REMARK  status: ('A' for Active; 'I' for Inactive)
REMARK    1  A    between atoms: C_1  and  C_2
REMARK    2  A    between atoms: C_2  and  C_3
REMARK    3  A    between atoms: C_3  and  N_4
REMARK    4  A    between atoms: N_6  and  C_7
REMARK                            x       y       z     vdW  Elec       q    Type
REMARK                         _______ _______ _______ _____ _____    ______ ____
ROOT
ATOM      1  N   UNL     1       2.579   5.884  19.817  0.00  0.00    +0.000 N 
ATOM      2  C   UNL     1       3.300   5.712  18.654  0.00  0.00    +0.000 A 
ATOM      3  N   UNL     1       3.946   4.550  18.370  0.00  0.00    +0.000 N 
ATOM      4  N   UNL     1       3.252   6.800  17.917  0.00  0.00    +0.000 NA
ATOM      5  C   UNL     1       2.464   7.687  18.589  0.00  0.00    +0.000 A 
ATOM      6  C   UNL     1       2.080   8.983  18.218  0.00  0.00    +0.000 A 
ATOM      7  C   UNL     1       1.273   9.721  19.089  0.00  0.00    +0.000 A 
ATOM      8  C   UNL     1       0.863   9.178  20.307  0.00  0.00    +0.000 A 
ATOM      9  C   UNL     1       1.232   7.882  20.690  0.00  0.00    +0.000 A 
ATOM     10  C   UNL     1       2.033   7.154  19.800  0.00  0.00    +0.000 A 
ATOM     11  H   UNL     1       3.420   3.689  18.452  0.00  0.00    +0.000 HD
ENDROOT
BRANCH   3  12
ATOM     12  C   UNL     1       4.992   4.478  17.421  0.00  0.00    +0.000 A 
ATOM     13  C   UNL     1       6.334   4.666  17.792  0.00  0.00    +0.000 A 
ATOM     14  C   UNL     1       7.357   4.641  16.845  0.00  0.00    +0.000 A 
ATOM     15  C   UNL     1       7.055   4.425  15.505  0.00  0.00    +0.000 A 
ATOM     16  C   UNL     1       5.733   4.213  15.119  0.00  0.00    +0.000 A 
ATOM     17  C   UNL     1       4.709   4.230  16.072  0.00  0.00    +0.000 A 
ENDBRANCH   3  12
BRANCH   1  18
ATOM     18  C   UNL     1       2.451   4.926  20.903  0.00  0.00    +0.000 C 
BRANCH  18  20
ATOM     19  C   UNL     1       1.465   2.696  21.544  0.00  0.00    +0.000 C 
ATOM     20  C   UNL     1       1.277   3.962  20.723  0.00  0.00    +0.000 C 
ENDBRANCH  18  20
ENDBRANCH   1  18
TORSDOF 3
ENDMDL
MODEL 2
REMARK VINA RESULT:      -7.3      0.267      1.135
REMARK  Name = 
REMARK  4 active torsions:
REMARK  status: ('A' for Active; 'I' for Inactive)
REMARK    1  A    between atoms: C_1  and  C_2
REMARK    2  A    between atoms: C_2  and  C_3
REMARK    3  A    between atoms: C_3  and  N_4
REMARK    4  A    between atoms: N_6  and  C_7
REMARK                            x       y       z     vdW  Elec       q    Type
REMARK                         _______ _______ _______ _____ _____    ______ ____
ROOT
ATOM      1  N   UNL     1       2.495   6.141  19.748  0.00  0.00    +0.000 N 
ATOM      2  C   UNL     1       3.254   5.919  18.619  0.00  0.00    +0.000 A 
ATOM      3  N   UNL     1       3.887   4.737  18.395  0.00  0.00    +0.000 N 
ATOM      4  N   UNL     1       3.253   6.983  17.846  0.00  0.00    +0.000 NA
ATOM      5  C   UNL     1       2.459   7.906  18.461  0.00  0.00    +0.000 A 
ATOM      6  C   UNL     1       2.113   9.195  18.035  0.00  0.00    +0.000 A 
ATOM      7  C   UNL     1       1.288   9.976  18.853  0.00  0.00    +0.000 A 
ATOM      8  C   UNL     1       0.824   9.479  20.071  0.00  0.00    +0.000 A 
ATOM      9  C   UNL     1       1.155   8.189  20.507  0.00  0.00    +0.000 A 
ATOM     10  C   UNL     1       1.974   7.419  19.671  0.00  0.00    +0.000 A 
ATOM     11  H   UNL     1       3.342   3.889  18.484  0.00  0.00    +0.000 HD
ENDROOT
BRANCH   3  12
ATOM     12  C   UNL     1       4.966   4.616  17.488  0.00  0.00    +0.000 A 
ATOM     13  C   UNL     1       4.759   4.251  16.147  0.00  0.00    +0.000 A 
ATOM     14  C   UNL     1       5.829   4.085  15.268  0.00  0.00    +0.000 A 
ATOM     15  C   UNL     1       7.131   4.284  15.717  0.00  0.00    +0.000 A 
ATOM     16  C   UNL     1       7.356   4.669  17.037  0.00  0.00    +0.000 A 
ATOM     17  C   UNL     1       6.280   4.842  17.915  0.00  0.00    +0.000 A 
ENDBRANCH   3  12
BRANCH   1  18
ATOM     18  C   UNL     1       2.309   5.220  20.858  0.00  0.00    +0.000 C 
BRANCH  18  20
ATOM     19  C   UNL     1       1.456   2.894  21.326  0.00  0.00    +0.000 C 
ATOM     20  C   UNL     1       1.178   4.217  20.628  0.00  0.00    +0.000 C 
ENDBRANCH  18  20
ENDBRANCH   1  18
TORSDOF 3
ENDMDL
MODEL 3
REMARK VINA RESULT:      -7.0      2.350      6.380
REMARK  Name = 
REMARK  4 active torsions:
REMARK  status: ('A' for Active; 'I' for Inactive)
REMARK    1  A    between atoms: C_1  and  C_2
REMARK    2  A    between atoms: C_2  and  C_3
REMARK    3  A    between atoms: C_3  and  N_4
REMARK    4  A    between atoms: N_6  and  C_7
REMARK                            x       y       z     vdW  Elec       q    Type
REMARK                         _______ _______ _______ _____ _____    ______ ____
ROOT
ATOM      1  N   UNL     1       6.465   4.875  17.529  0.00  0.00    +0.000 N 
ATOM      2  C   UNL     1       5.165   4.748  17.973  0.00  0.00    +0.000 A 
ATOM      3  N   UNL     1       4.831   4.900  19.281  0.00  0.00    +0.000 N 
ATOM      4  N   UNL     1       4.361   4.474  16.970  0.00  0.00    +0.000 NA
ATOM      5  C   UNL     1       5.136   4.450  15.848  0.00  0.00    +0.000 A 
ATOM      6  C   UNL     1       4.756   4.227  14.517  0.00  0.00    +0.000 A 
ATOM      7  C   UNL     1       5.743   4.232  13.526  0.00  0.00    +0.000 A 
ATOM      8  C   UNL     1       7.080   4.451  13.858  0.00  0.00    +0.000 A 
ATOM      9  C   UNL     1       7.475   4.683  15.182  0.00  0.00    +0.000 A 
ATOM     10  C   UNL     1       6.472   4.684  16.160  0.00  0.00    +0.000 A 
ATOM     11  H   UNL     1       5.163   5.730  19.756  0.00  0.00    +0.000 HD
ENDROOT
BRANCH   3  12
ATOM     12  C   UNL     1       3.624   4.394  19.818  0.00  0.00    +0.000 A 
ATOM     13  C   UNL     1       3.462   3.026  20.095  0.00  0.00    +0.000 A 
ATOM     14  C   UNL     1       2.255   2.523  20.579  0.00  0.00    +0.000 A 
ATOM     15  C   UNL     1       1.184   3.384  20.799  0.00  0.00    +0.000 A 
ATOM     16  C   UNL     1       1.332   4.748  20.553  0.00  0.00    +0.000 A 
ATOM     17  C   UNL     1       2.547   5.251  20.074  0.00  0.00    +0.000 A 
ENDBRANCH   3  12
BRANCH   1  18
ATOM     18  C   UNL     1       7.638   5.117  18.353  0.00  0.00    +0.000 C 
BRANCH  18  20
ATOM     19  C   UNL     1       7.672   7.513  17.569  0.00  0.00    +0.000 C 
ATOM     20  C   UNL     1       7.796   6.582  18.765  0.00  0.00    +0.000 C 
ENDBRANCH  18  20
ENDBRANCH   1  18
TORSDOF 3
ENDMDL
MODEL 4
REMARK VINA RESULT:      -7.0      2.352      6.397
REMARK  Name = 
REMARK  4 active torsions:
REMARK  status: ('A' for Active; 'I' for Inactive)
REMARK    1  A    between atoms: C_1  and  C_2
REMARK    2  A    between atoms: C_2  and  C_3
REMARK    3  A    between atoms: C_3  and  N_4
REMARK    4  A    between atoms: N_6  and  C_7
REMARK                            x       y       z     vdW  Elec       q    Type
REMARK                         _______ _______ _______ _____ _____    ______ ____
ROOT
ATOM      1  N   UNL     1       6.473   4.878  17.522  0.00  0.00    +0.000 N 
ATOM      2  C   UNL     1       5.171   4.752  17.960  0.00  0.00    +0.000 A 
ATOM      3  N   UNL     1       4.832   4.896  19.268  0.00  0.00    +0.000 N 
ATOM      4  N   UNL     1       4.369   4.487  16.951  0.00  0.00    +0.000 NA
ATOM      5  C   UNL     1       5.149   4.469  15.833  0.00  0.00    +0.000 A 
ATOM      6  C   UNL     1       4.774   4.257  14.499  0.00  0.00    +0.000 A 
ATOM      7  C   UNL     1       5.765   4.265  13.512  0.00  0.00    +0.000 A 
ATOM      8  C   UNL     1       7.101   4.477  13.850  0.00  0.00    +0.000 A 
ATOM      9  C   UNL     1       7.492   4.698  15.177  0.00  0.00    +0.000 A 
ATOM     10  C   UNL     1       6.485   4.696  16.152  0.00  0.00    +0.000 A 
ATOM     11  H   UNL     1       5.165   5.721  19.750  0.00  0.00    +0.000 HD
ENDROOT
BRANCH   3  12
ATOM     12  C   UNL     1       3.622   4.389  19.797  0.00  0.00    +0.000 A 
ATOM     13  C   UNL     1       2.516   5.223  20.027  0.00  0.00    +0.000 A 
ATOM     14  C   UNL     1       1.341   4.730  20.594  0.00  0.00    +0.000 A 
ATOM     15  C   UNL     1       1.252   3.385  20.940  0.00  0.00    +0.000 A 
ATOM     16  C   UNL     1       2.330   2.535  20.699  0.00  0.00    +0.000 A 
ATOM     17  C   UNL     1       3.504   3.032  20.123  0.00  0.00    +0.000 A 
ENDBRANCH   3  12
BRANCH   1  18
ATOM     18  C   UNL     1       7.644   5.109  18.352  0.00  0.00    +0.000 C 
BRANCH  18  20
ATOM     19  C   UNL     1       7.614   7.501  17.554  0.00  0.00    +0.000 C 
ATOM     20  C   UNL     1       7.827   6.577  18.743  0.00  0.00    +0.000 C 
ENDBRANCH  18  20
ENDBRANCH   1  18
TORSDOF 3
ENDMDL
MODEL 5
REMARK VINA RESULT:      -6.9      3.019      6.720
REMARK  Name = 
REMARK  4 active torsions:
REMARK  status: ('A' for Active; 'I' for Inactive)
REMARK    1  A    between atoms: C_1  and  C_2
REMARK    2  A    between atoms: C_2  and  C_3
REMARK    3  A    between atoms: C_3  and  N_4
REMARK    4  A    between atoms: N_6  and  C_7
REMARK                            x       y       z     vdW  Elec       q    Type
REMARK                         _______ _______ _______ _____ _____    ______ ____
ROOT
ATOM      1  N   UNL     1       6.406   5.279  16.159  0.00  0.00    +0.000 N 
ATOM      2  C   UNL     1       5.178   4.720  16.440  0.00  0.00    +0.000 A 
ATOM      3  N   UNL     1       4.583   4.856  17.655  0.00  0.00    +0.000 N 
ATOM      4  N   UNL     1       4.713   4.077  15.391  0.00  0.00    +0.000 NA
ATOM      5  C   UNL     1       5.634   4.240  14.399  0.00  0.00    +0.000 A 
ATOM      6  C   UNL     1       5.601   3.773  13.078  0.00  0.00    +0.000 A 
ATOM      7  C   UNL     1       6.683   4.052  12.237  0.00  0.00    +0.000 A 
ATOM      8  C   UNL     1       7.776   4.780  12.707  0.00  0.00    +0.000 A 
ATOM      9  C   UNL     1       7.822   5.262  14.023  0.00  0.00    +0.000 A 
ATOM     10  C   UNL     1       6.724   4.980  14.848  0.00  0.00    +0.000 A 
ATOM     11  H   UNL     1       4.512   5.789  18.040  0.00  0.00    +0.000 HD
ENDROOT
BRANCH   3  12
ATOM     12  C   UNL     1       3.556   3.989  18.097  0.00  0.00    +0.000 A 
ATOM     13  C   UNL     1       3.842   2.708  18.596  0.00  0.00    +0.000 A 
ATOM     14  C   UNL     1       2.824   1.838  18.986  0.00  0.00    +0.000 A 
ATOM     15  C   UNL     1       1.495   2.238  18.884  0.00  0.00    +0.000 A 
ATOM     16  C   UNL     1       1.191   3.514  18.412  0.00  0.00    +0.000 A 
ATOM     17  C   UNL     1       2.215   4.387  18.030  0.00  0.00    +0.000 A 
ENDBRANCH   3  12
BRANCH   1  18
ATOM     18  C   UNL     1       7.253   6.012  17.086  0.00  0.00    +0.000 C 
BRANCH  18  20
ATOM     19  C   UNL     1       8.002   8.310  17.802  0.00  0.00    +0.000 C 
ATOM     20  C   UNL     1       6.862   7.484  17.227  0.00  0.00    +0.000 C 
ENDBRANCH  18  20
ENDBRANCH   1  18
TORSDOF 3
ENDMDL
MODEL 6
REMARK VINA RESULT:      -6.9      3.088      6.789
REMARK  Name = 
REMARK  4 active torsions:
REMARK  status: ('A' for Active; 'I' for Inactive)
REMARK    1  A    between atoms: C_1  and  C_2
REMARK    2  A    between atoms: C_2  and  C_3
REMARK    3  A    between atoms: C_3  and  N_4
REMARK    4  A    between atoms: N_6  and  C_7
REMARK                            x       y       z     vdW  Elec       q    Type
REMARK                         _______ _______ _______ _____ _____    ______ ____
ROOT
ATOM      1  N   UNL     1       6.403   5.246  16.122  0.00  0.00    +0.000 N 
ATOM      2  C   UNL     1       5.172   4.680  16.379  0.00  0.00    +0.000 A 
ATOM      3  N   UNL     1       4.562   4.796  17.588  0.00  0.00    +0.000 N 
ATOM      4  N   UNL     1       4.723   4.051  15.315  0.00  0.00    +0.000 NA
ATOM      5  C   UNL     1       5.656   4.232  14.337  0.00  0.00    +0.000 A 
ATOM      6  C   UNL     1       5.641   3.784  13.009  0.00  0.00    +0.000 A 
ATOM      7  C   UNL     1       6.733   4.079  12.187  0.00  0.00    +0.000 A 
ATOM      8  C   UNL     1       7.818   4.802  12.681  0.00  0.00    +0.000 A 
ATOM      9  C   UNL     1       7.845   5.264  14.004  0.00  0.00    +0.000 A 
ATOM     10  C   UNL     1       6.738   4.967  14.811  0.00  0.00    +0.000 A 
ATOM     11  H   UNL     1       4.483   5.724  17.986  0.00  0.00    +0.000 HD
ENDROOT
BRANCH   3  12
ATOM     12  C   UNL     1       3.532   3.921  18.004  0.00  0.00    +0.000 A 
ATOM     13  C   UNL     1       2.179   4.290  17.926  0.00  0.00    +0.000 A 
ATOM     14  C   UNL     1       1.169   3.443  18.382  0.00  0.00    +0.000 A 
ATOM     15  C   UNL     1       1.497   2.204  18.924  0.00  0.00    +0.000 A 
ATOM     16  C   UNL     1       2.832   1.809  18.990  0.00  0.00    +0.000 A 
ATOM     17  C   UNL     1       3.842   2.658  18.524  0.00  0.00    +0.000 A 
ENDBRANCH   3  12
BRANCH   1  18
ATOM     18  C   UNL     1       7.235   5.968  17.071  0.00  0.00    +0.000 C 
BRANCH  18  20
ATOM     19  C   UNL     1       8.011   8.260  17.779  0.00  0.00    +0.000 C 
ATOM     20  C   UNL     1       6.865   7.446  17.198  0.00  0.00    +0.000 C 
ENDBRANCH  18  20
ENDBRANCH   1  18
TORSDOF 3
ENDMDL
MODEL 7
REMARK VINA RESULT:      -6.8      1.083      1.326
REMARK  Name = 
REMARK  4 active torsions:
REMARK  status: ('A' for Active; 'I' for Inactive)
REMARK    1  A    between atoms: C_1  and  C_2
REMARK    2  A    between atoms: C_2  and  C_3
REMARK    3  A    between atoms: C_3  and  N_4
REMARK    4  A    between atoms: N_6  and  C_7
REMARK                            x       y       z     vdW  Elec       q    Type
REMARK                         _______ _______ _______ _____ _____    ______ ____
ROOT
ATOM      1  N   UNL     1       3.171   4.682  19.224  0.00  0.00    +0.000 N 
ATOM      2  C   UNL     1       3.749   4.874  17.987  0.00  0.00    +0.000 A 
ATOM      3  N   UNL     1       4.414   3.881  17.338  0.00  0.00    +0.000 N 
ATOM      4  N   UNL     1       3.552   6.106  17.572  0.00  0.00    +0.000 NA
ATOM      5  C   UNL     1       2.810   6.724  18.535  0.00  0.00    +0.000 A 
ATOM      6  C   UNL     1       2.315   8.034  18.562  0.00  0.00    +0.000 A 
ATOM      7  C   UNL     1       1.585   8.456  19.679  0.00  0.00    +0.000 A 
ATOM      8  C   UNL     1       1.360   7.587  20.746  0.00  0.00    +0.000 A 
ATOM      9  C   UNL     1       1.841   6.271  20.732  0.00  0.00    +0.000 A 
ATOM     10  C   UNL     1       2.562   5.864  19.601  0.00  0.00    +0.000 A 
ATOM     11  H   UNL     1       3.947   2.987  17.246  0.00  0.00    +0.000 HD
ENDROOT
BRANCH   3  12
ATOM     12  C   UNL     1       5.335   4.141  16.298  0.00  0.00    +0.000 A 
ATOM     13  C   UNL     1       6.608   4.675  16.561  0.00  0.00    +0.000 A 
ATOM     14  C   UNL     1       7.495   4.975  15.528  0.00  0.00    +0.000 A 
ATOM     15  C   UNL     1       7.124   4.742  14.207  0.00  0.00    +0.000 A 
ATOM     16  C   UNL     1       5.875   4.192  13.926  0.00  0.00    +0.000 A 
ATOM     17  C   UNL     1       4.990   3.885  14.965  0.00  0.00    +0.000 A 
ENDBRANCH   3  12
BRANCH   1  18
ATOM     18  C   UNL     1       3.230   3.471  20.025  0.00  0.00    +0.000 C 
BRANCH  18  20
ATOM     19  C   UNL     1       1.362   2.690  21.529  0.00  0.00    +0.000 C 
ATOM     20  C   UNL     1       1.893   2.732  20.104  0.00  0.00    +0.000 C 
ENDBRANCH  18  20
ENDBRANCH   1  18
TORSDOF 3
ENDMDL
MODEL 8
REMARK VINA RESULT:      -6.8      1.709      6.345
REMARK  Name = 
REMARK  4 active torsions:
REMARK  status: ('A' for Active; 'I' for Inactive)
REMARK    1  A    between atoms: C_1  and  C_2
REMARK    2  A    between atoms: C_2  and  C_3
REMARK    3  A    between atoms: C_3  and  N_4
REMARK    4  A    between atoms: N_6  and  C_7
REMARK                            x       y       z     vdW  Elec       q    Type
REMARK                         _______ _______ _______ _____ _____    ______ ____
ROOT
ATOM      1  N   UNL     1       3.820   5.603  17.692  0.00  0.00    +0.000 N 
ATOM      2  C   UNL     1       2.729   6.376  18.030  0.00  0.00    +0.000 A 
ATOM      3  N   UNL     1       2.760   7.734  17.972  0.00  0.00    +0.000 N 
ATOM      4  N   UNL     1       1.719   5.615  18.391  0.00  0.00    +0.000 NA
ATOM      5  C   UNL     1       2.142   4.325  18.260  0.00  0.00    +0.000 A 
ATOM      6  C   UNL     1       1.436   3.137  18.495  0.00  0.00    +0.000 A 
ATOM      7  C   UNL     1       2.092   1.916  18.309  0.00  0.00    +0.000 A 
ATOM      8  C   UNL     1       3.425   1.883  17.900  0.00  0.00    +0.000 A 
ATOM      9  C   UNL     1       4.143   3.061  17.653  0.00  0.00    +0.000 A 
ATOM     10  C   UNL     1       3.467   4.275  17.836  0.00  0.00    +0.000 A 
ATOM     11  H   UNL     1       3.096   8.159  17.117  0.00  0.00    +0.000 HD
ENDROOT
BRANCH   3  12
ATOM     12  C   UNL     1       1.836   8.543  18.673  0.00  0.00    +0.000 A 
ATOM     13  C   UNL     1       1.684   8.445  20.066  0.00  0.00    +0.000 A 
ATOM     14  C   UNL     1       0.738   9.210  20.748  0.00  0.00    +0.000 A 
ATOM     15  C   UNL     1      -0.075  10.092  20.044  0.00  0.00    +0.000 A 
ATOM     16  C   UNL     1       0.075  10.222  18.665  0.00  0.00    +0.000 A 
ATOM     17  C   UNL     1       1.031   9.459  17.985  0.00  0.00    +0.000 A 
ENDBRANCH   3  12
BRANCH   1  18
ATOM     18  C   UNL     1       5.134   6.089  17.301  0.00  0.00    +0.000 C 
BRANCH  18  20
ATOM     19  C   UNL     1       6.329   5.068  15.330  0.00  0.00    +0.000 C 
ATOM     20  C   UNL     1       5.338   6.128  15.786  0.00  0.00    +0.000 C 
ENDBRANCH  18  20
ENDBRANCH   1  18
TORSDOF 3
ENDMDL
MODEL 9
REMARK VINA RESULT:      -6.8      1.706      6.395
REMARK  Name = 
REMARK  4 active torsions:
REMARK  status: ('A' for Active; 'I' for Inactive)
REMARK    1  A    between atoms: C_1  and  C_2
REMARK    2  A    between atoms: C_2  and  C_3
REMARK    3  A    between atoms: C_3  and  N_4
REMARK    4  A    between atoms: N_6  and  C_7
REMARK                            x       y       z     vdW  Elec       q    Type
REMARK                         _______ _______ _______ _____ _____    ______ ____
ROOT
ATOM      1  N   UNL     1       3.818   5.557  17.715  0.00  0.00    +0.000 N 
ATOM      2  C   UNL     1       2.734   6.342  18.046  0.00  0.00    +0.000 A 
ATOM      3  N   UNL     1       2.776   7.699  17.976  0.00  0.00    +0.000 N 
ATOM      4  N   UNL     1       1.718   5.593  18.415  0.00  0.00    +0.000 NA
ATOM      5  C   UNL     1       2.130   4.298  18.295  0.00  0.00    +0.000 A 
ATOM      6  C   UNL     1       1.415   3.119  18.542  0.00  0.00    +0.000 A 
ATOM      7  C   UNL     1       2.060   1.890  18.366  0.00  0.00    +0.000 A 
ATOM      8  C   UNL     1       3.393   1.843  17.957  0.00  0.00    +0.000 A 
ATOM      9  C   UNL     1       4.120   3.012  17.699  0.00  0.00    +0.000 A 
ATOM     10  C   UNL     1       3.454   4.233  17.872  0.00  0.00    +0.000 A 
ATOM     11  H   UNL     1       3.115   8.114  17.117  0.00  0.00    +0.000 HD
ENDROOT
BRANCH   3  12
ATOM     12  C   UNL     1       1.860   8.522  18.671  0.00  0.00    +0.000 A 
ATOM     13  C   UNL     1       1.091   9.490  18.003  0.00  0.00    +0.000 A 
ATOM     14  C   UNL     1       0.224  10.332  18.698  0.00  0.00    +0.000 A 
ATOM     15  C   UNL     1       0.109  10.219  20.080  0.00  0.00    +0.000 A 
ATOM     16  C   UNL     1       0.845   9.250  20.759  0.00  0.00    +0.000 A 
ATOM     17  C   UNL     1       1.708   8.401  20.058  0.00  0.00    +0.000 A 
ENDBRANCH   3  12
BRANCH   1  18
ATOM     18  C   UNL     1       5.136   6.028  17.319  0.00  0.00    +0.000 C 
BRANCH  18  20
ATOM     19  C   UNL     1       5.795   5.098  15.070  0.00  0.00    +0.000 C 
ATOM     20  C   UNL     1       5.253   6.305  15.820  0.00  0.00    +0.000 C 
ENDBRANCH  18  20
ENDBRANCH   1  18
TORSDOF 3
ENDMDL
