MODEL 1
REMARK VINA RESULT:      -8.0      0.000      0.000
REMARK  Name = 
REMARK  11 active torsions:
REMARK  status: ('A' for Active; 'I' for Inactive)
REMARK    1  A    between atoms: C_1  and  N_2
REMARK    2  A    between atoms: N_2  and  C_3
REMARK    3  A    between atoms: C_3  and  C_4
REMARK    4  A    between atoms: N_6  and  C_7
REMARK    5  A    between atoms: C_10  and  C_11
REMARK    6  A    between atoms: C_19  and  C_20
REMARK    7  A    between atoms: C_22  and  C_23
REMARK    8  A    between atoms: C_23  and  C_24
REMARK    9  A    between atoms: C_23  and  C_25
REMARK   10  A    between atoms: C_23  and  S_26
REMARK   11  A    between atoms: S_26  and  C_27
REMARK                            x       y       z     vdW  Elec       q    Type
REMARK                         _______ _______ _______ _____ _____    ______ ____
ROOT
ATOM      1  C   UNL     1       0.372  10.901  19.213  0.00  0.00    +0.000 A 
ATOM      2  N   UNL     1      -0.951  10.841  19.036  0.00  0.00    +0.000 NA
ATOM      3  C   UNL     1      -1.678  11.955  19.158  0.00  0.00    +0.000 A 
ATOM      4  N   UNL     1      -3.041  11.797  19.001  0.00  0.00    +0.000 N 
ATOM      5  C   UNL     1      -3.951  12.678  19.749  0.00  0.00    +0.000 C 
ATOM      6  C   UNL     1      -5.321  11.994  19.865  0.00  0.00    +0.000 C 
ATOM      7  O   UNL     1      -5.867  11.724  18.566  0.00  0.00    +0.000 OA
ATOM      8  C   UNL     1      -5.003  10.828  17.847  0.00  0.00    +0.000 C 
ATOM      9  C   UNL     1      -3.577  11.411  17.661  0.00  0.00    +0.000 C 
ATOM     10  C   UNL     1      -2.751  10.390  16.879  0.00  0.00    +0.000 C 
ATOM     11  C   UNL     1      -1.058  13.153  19.469  0.00  0.00    +0.000 A 
ATOM     12  C   UNL     1       0.328  13.168  19.614  0.00  0.00    +0.000 A 
ATOM     13  N   UNL     1       1.040  12.027  19.506  0.00  0.00    +0.000 NA
ENDROOT
BRANCH   1  17
ATOM     14  C   UNL     1       2.651   7.243  18.977  0.00  0.00    +0.000 A 
ATOM     15  C   UNL     1       1.954   7.583  20.131  0.00  0.00    +0.000 A 
ATOM     16  C   UNL     1       1.206   8.760  20.189  0.00  0.00    +0.000 A 
ATOM     17  C   UNL     1       1.121   9.639  19.097  0.00  0.00    +0.000 A 
ATOM     18  C   UNL     1       1.805   9.270  17.926  0.00  0.00    +0.000 A 
ATOM     19  C   UNL     1       2.577   8.097  17.871  0.00  0.00    +0.000 A 
BRANCH  14  22
ATOM     20  C   UNL     1       3.111   4.872  18.369  0.00  0.00    +0.000 C 
ATOM     21  O   UNL     1       2.093   4.621  17.732  0.00  0.00    +0.000 OA
ATOM     22  N   UNL     1       3.473   6.103  18.894  0.00  0.00    +0.000 N 
ATOM     23  H   UNL     1       4.407   6.167  19.282  0.00  0.00    +0.000 HD
BRANCH  20  24
ATOM     24  C   UNL     1       4.150   3.778  18.625  0.00  0.00    +0.000 C 
BRANCH  24  26
ATOM     25  C   UNL     1       3.492   1.453  18.424  0.00  0.00    +0.000 C 
ATOM     26  N   UNL     1       3.982   2.632  17.706  0.00  0.00    +0.000 NA
ATOM     27  H   UNL     1       3.275   2.891  17.016  0.00  0.00    +0.000 HD
ENDBRANCH  24  26
ENDBRANCH  20  24
ENDBRANCH  14  22
ENDBRANCH   1  17
BRANCH  12  28
ATOM     28  C   UNL     1       1.147  14.451  19.754  0.00  0.00    +0.000 C 
ATOM     29  C   UNL     1       2.331  14.482  18.760  0.00  0.00    +0.000 C 
ATOM     30  C   UNL     1       0.268  15.685  19.469  0.00  0.00    +0.000 C 
BRANCH  28  31
ATOM     31  S   UNL     1       1.792  14.572  21.455  0.00  0.00    +0.000 S 
ATOM     32  C   UNL     1       2.101  16.297  21.763  0.00  0.00    +0.000 C 
ATOM     33  O   UNL     1       0.732  14.178  22.365  0.00  0.00    +0.000 OA
ATOM     34  O   UNL     1       3.075  13.888  21.531  0.00  0.00    +0.000 OA
ENDBRANCH  28  31
ENDBRANCH  12  28
TORSDOF 6
ENDMDL
MODEL 2
REMARK VINA RESULT:      -7.9      0.944      1.273
REMARK  Name = 
REMARK  11 active torsions:
REMARK  status: ('A' for Active; 'I' for Inactive)
REMARK    1  A    between atoms: C_1  and  N_2
REMARK    2  A    between atoms: N_2  and  C_3
REMARK    3  A    between atoms: C_3  and  C_4
REMARK    4  A    between atoms: N_6  and  C_7
REMARK    5  A    between atoms: C_10  and  C_11
REMARK    6  A    between atoms: C_19  and  C_20
REMARK    7  A    between atoms: C_22  and  C_23
REMARK    8  A    between atoms: C_23  and  C_24
REMARK    9  A    between atoms: C_23  and  C_25
REMARK   10  A    between atoms: C_23  and  S_26
REMARK   11  A    between atoms: S_26  and  C_27
REMARK                            x       y       z     vdW  Elec       q    Type
REMARK                         _______ _______ _______ _____ _____    ______ ____
ROOT
ATOM      1  C   UNL     1       0.639  10.541  19.442  0.00  0.00    +0.000 A 
ATOM      2  N   UNL     1      -0.679  10.574  19.223  0.00  0.00    +0.000 NA
ATOM      3  C   UNL     1      -1.304  11.753  19.172  0.00  0.00    +0.000 A 
ATOM      4  N   UNL     1      -2.671  11.696  18.984  0.00  0.00    +0.000 N 
ATOM      5  C   UNL     1      -3.516  12.744  19.577  0.00  0.00    +0.000 C 
ATOM      6  C   UNL     1      -4.946  12.203  19.727  0.00  0.00    +0.000 C 
ATOM      7  O   UNL     1      -5.479  11.813  18.453  0.00  0.00    +0.000 OA
ATOM      8  C   UNL     1      -4.681  10.758  17.889  0.00  0.00    +0.000 C 
ATOM      9  C   UNL     1      -3.204  11.186  17.685  0.00  0.00    +0.000 C 
ATOM     10  C   UNL     1      -2.453  10.002  17.073  0.00  0.00    +0.000 C 
ATOM     11  C   UNL     1      -0.586  12.924  19.351  0.00  0.00    +0.000 A 
ATOM     12  C   UNL     1       0.791  12.836  19.546  0.00  0.00    +0.000 A 
ATOM     13  N   UNL     1       1.399  11.633  19.613  0.00  0.00    +0.000 NA
ENDROOT
BRANCH   1  17
ATOM     14  C   UNL     1       2.408   6.606  19.565  0.00  0.00    +0.000 A 
ATOM     15  C   UNL     1       2.479   7.391  18.420  0.00  0.00    +0.000 A 
ATOM     16  C   UNL     1       1.919   8.669  18.397  0.00  0.00    +0.000 A 
ATOM     17  C   UNL     1       1.272   9.214  19.518  0.00  0.00    +0.000 A 
ATOM     18  C   UNL     1       1.232   8.424  20.679  0.00  0.00    +0.000 A 
ATOM     19  C   UNL     1       1.775   7.128  20.699  0.00  0.00    +0.000 A 
BRANCH  14  22
ATOM     20  C   UNL     1       4.203   4.891  19.370  0.00  0.00    +0.000 C 
ATOM     21  O   UNL     1       5.179   5.626  19.252  0.00  0.00    +0.000 OA
ATOM     22  N   UNL     1       2.897   5.287  19.613  0.00  0.00    +0.000 N 
ATOM     23  H   UNL     1       2.234   4.546  19.811  0.00  0.00    +0.000 HD
BRANCH  20  24
ATOM     24  C   UNL     1       4.367   3.372  19.284  0.00  0.00    +0.000 C 
BRANCH  24  26
ATOM     25  C   UNL     1       2.902   2.302  17.676  0.00  0.00    +0.000 C 
ATOM     26  N   UNL     1       4.229   2.879  17.897  0.00  0.00    +0.000 NA
ATOM     27  H   UNL     1       4.325   3.682  17.274  0.00  0.00    +0.000 HD
ENDBRANCH  24  26
ENDBRANCH  20  24
ENDBRANCH  14  22
ENDBRANCH   1  17
BRANCH  12  28
ATOM     28  C   UNL     1       1.720  14.051  19.552  0.00  0.00    +0.000 C 
ATOM     29  C   UNL     1       2.957  13.826  18.651  0.00  0.00    +0.000 C 
ATOM     30  C   UNL     1       0.982  15.297  19.026  0.00  0.00    +0.000 C 
BRANCH  28  31
ATOM     31  S   UNL     1       2.276  14.376  21.258  0.00  0.00    +0.000 S 
ATOM     32  C   UNL     1       2.741  16.093  21.325  0.00  0.00    +0.000 C 
ATOM     33  O   UNL     1       1.130  14.228  22.138  0.00  0.00    +0.000 OA
ATOM     34  O   UNL     1       3.476  13.599  21.528  0.00  0.00    +0.000 OA
ENDBRANCH  28  31
ENDBRANCH  12  28
TORSDOF 6
ENDMDL
MODEL 3
REMARK VINA RESULT:      -7.9      0.801      1.166
REMARK  Name = 
REMARK  11 active torsions:
REMARK  status: ('A' for Active; 'I' for Inactive)
REMARK    1  A    between atoms: C_1  and  N_2
REMARK    2  A    between atoms: N_2  and  C_3
REMARK    3  A    between atoms: C_3  and  C_4
REMARK    4  A    between atoms: N_6  and  C_7
REMARK    5  A    between atoms: C_10  and  C_11
REMARK    6  A    between atoms: C_19  and  C_20
REMARK    7  A    between atoms: C_22  and  C_23
REMARK    8  A    between atoms: C_23  and  C_24
REMARK    9  A    between atoms: C_23  and  C_25
REMARK   10  A    between atoms: C_23  and  S_26
REMARK   11  A    between atoms: S_26  and  C_27
REMARK                            x       y       z     vdW  Elec       q    Type
REMARK                         _______ _______ _______ _____ _____    ______ ____
ROOT
ATOM      1  C   UNL     1       0.580  10.749  19.315  0.00  0.00    +0.000 A 
ATOM      2  N   UNL     1      -0.746  10.752  19.157  0.00  0.00    +0.000 NA
ATOM      3  C   UNL     1      -1.411  11.908  19.222  0.00  0.00    +0.000 A 
ATOM      4  N   UNL     1      -2.782  11.817  19.090  0.00  0.00    +0.000 N 
ATOM      5  C   UNL     1      -3.632  12.788  19.795  0.00  0.00    +0.000 C 
ATOM      6  C   UNL     1      -5.036  12.188  19.967  0.00  0.00    +0.000 C 
ATOM      7  O   UNL     1      -5.615  11.873  18.692  0.00  0.00    +0.000 OA
ATOM      8  C   UNL     1      -4.810  10.891  18.017  0.00  0.00    +0.000 C 
ATOM      9  C   UNL     1      -3.358  11.384  17.781  0.00  0.00    +0.000 C 
ATOM     10  C   UNL     1      -2.599  10.275  17.050  0.00  0.00    +0.000 C 
ATOM     11  C   UNL     1      -0.723  13.087  19.455  0.00  0.00    +0.000 A 
ATOM     12  C   UNL     1       0.664  13.035  19.583  0.00  0.00    +0.000 A 
ATOM     13  N   UNL     1       1.312  11.852  19.534  0.00  0.00    +0.000 NA
ENDROOT
BRANCH   1  17
ATOM     14  C   UNL     1       2.478   6.880  19.068  0.00  0.00    +0.000 A 
ATOM     15  C   UNL     1       2.478   7.752  17.985  0.00  0.00    +0.000 A 
ATOM     16  C   UNL     1       1.876   9.008  18.082  0.00  0.00    +0.000 A 
ATOM     17  C   UNL     1       1.258   9.443  19.265  0.00  0.00    +0.000 A 
ATOM     18  C   UNL     1       1.291   8.566  20.363  0.00  0.00    +0.000 A 
ATOM     19  C   UNL     1       1.876   7.293  20.262  0.00  0.00    +0.000 A 
BRANCH  14  22
ATOM     20  C   UNL     1       2.425   4.491  18.369  0.00  0.00    +0.000 C 
ATOM     21  O   UNL     1       1.448   4.515  17.627  0.00  0.00    +0.000 OA
ATOM     22  N   UNL     1       3.011   5.580  18.996  0.00  0.00    +0.000 N 
ATOM     23  H   UNL     1       3.888   5.403  19.472  0.00  0.00    +0.000 HD
BRANCH  20  24
ATOM     24  C   UNL     1       3.144   3.171  18.655  0.00  0.00    +0.000 C 
BRANCH  24  26
ATOM     25  C   UNL     1       1.732   2.521  20.516  0.00  0.00    +0.000 C 
ATOM     26  N   UNL     1       2.222   2.145  19.188  0.00  0.00    +0.000 NA
ATOM     27  H   UNL     1       1.417   2.099  18.563  0.00  0.00    +0.000 HD
ENDBRANCH  24  26
ENDBRANCH  20  24
ENDBRANCH  14  22
ENDBRANCH   1  17
BRANCH  12  28
ATOM     28  C   UNL     1       1.552  14.277  19.638  0.00  0.00    +0.000 C 
ATOM     29  C   UNL     1       2.761  14.156  18.680  0.00  0.00    +0.000 C 
ATOM     30  C   UNL     1       0.755  15.529  19.226  0.00  0.00    +0.000 C 
BRANCH  28  31
ATOM     31  S   UNL     1       2.163  14.506  21.341  0.00  0.00    +0.000 S 
ATOM     32  C   UNL     1       2.620  16.220  21.493  0.00  0.00    +0.000 C 
ATOM     33  O   UNL     1       1.048  14.299  22.248  0.00  0.00    +0.000 OA
ATOM     34  O   UNL     1       3.376  13.723  21.526  0.00  0.00    +0.000 OA
ENDBRANCH  28  31
ENDBRANCH  12  28
TORSDOF 6
ENDMDL
MODEL 4
REMARK VINA RESULT:      -7.8      1.098      1.454
REMARK  Name = 
REMARK  11 active torsions:
REMARK  status: ('A' for Active; 'I' for Inactive)
REMARK    1  A    between atoms: C_1  and  N_2
REMARK    2  A    between atoms: N_2  and  C_3
REMARK    3  A    between atoms: C_3  and  C_4
REMARK    4  A    between atoms: N_6  and  C_7
REMARK    5  A    between atoms: C_10  and  C_11
REMARK    6  A    between atoms: C_19  and  C_20
REMARK    7  A    between atoms: C_22  and  C_23
REMARK    8  A    between atoms: C_23  and  C_24
REMARK    9  A    between atoms: C_23  and  C_25
REMARK   10  A    between atoms: C_23  and  S_26
REMARK   11  A    between atoms: S_26  and  C_27
REMARK                            x       y       z     vdW  Elec       q    Type
REMARK                         _______ _______ _______ _____ _____    ______ ____
ROOT
ATOM      1  C   UNL     1       0.516  10.709  19.308  0.00  0.00    +0.000 A 
ATOM      2  N   UNL     1      -0.787  10.702  19.017  0.00  0.00    +0.000 NA
ATOM      3  C   UNL     1      -1.488  11.833  19.125  0.00  0.00    +0.000 A 
ATOM      4  N   UNL     1      -2.837  11.729  18.847  0.00  0.00    +0.000 N 
ATOM      5  C   UNL     1      -3.781  12.609  19.553  0.00  0.00    +0.000 C 
ATOM      6  C   UNL     1      -5.176  11.968  19.523  0.00  0.00    +0.000 C 
ATOM      7  O   UNL     1      -5.616  11.769  18.171  0.00  0.00    +0.000 OA
ATOM      8  C   UNL     1      -4.721  10.874  17.490  0.00  0.00    +0.000 C 
ATOM      9  C   UNL     1      -3.267  11.416  17.451  0.00  0.00    +0.000 C 
ATOM     10  C   UNL     1      -2.408  10.400  16.698  0.00  0.00    +0.000 C 
ATOM     11  C   UNL     1      -0.862  12.997  19.540  0.00  0.00    +0.000 A 
ATOM     12  C   UNL     1       0.506  12.958  19.802  0.00  0.00    +0.000 A 
ATOM     13  N   UNL     1       1.191  11.799  19.705  0.00  0.00    +0.000 NA
ENDROOT
BRANCH   1  17
ATOM     14  C   UNL     1       2.523   6.909  18.903  0.00  0.00    +0.000 A 
ATOM     15  C   UNL     1       2.393   7.773  17.821  0.00  0.00    +0.000 A 
ATOM     16  C   UNL     1       1.758   9.008  17.968  0.00  0.00    +0.000 A 
ATOM     17  C   UNL     1       1.233   9.428  19.201  0.00  0.00    +0.000 A 
ATOM     18  C   UNL     1       1.397   8.560  20.294  0.00  0.00    +0.000 A 
ATOM     19  C   UNL     1       2.016   7.307  20.145  0.00  0.00    +0.000 A 
BRANCH  14  22
ATOM     20  C   UNL     1       4.359   5.339  18.301  0.00  0.00    +0.000 C 
ATOM     21  O   UNL     1       5.253   6.146  18.064  0.00  0.00    +0.000 OA
ATOM     22  N   UNL     1       3.094   5.628  18.787  0.00  0.00    +0.000 N 
ATOM     23  H   UNL     1       2.522   4.833  19.049  0.00  0.00    +0.000 HD
BRANCH  20  24
ATOM     24  C   UNL     1       4.600   3.842  18.097  0.00  0.00    +0.000 C 
BRANCH  24  26
ATOM     25  C   UNL     1       4.285   2.323  19.961  0.00  0.00    +0.000 C 
ATOM     26  N   UNL     1       5.226   3.216  19.281  0.00  0.00    +0.000 NA
ATOM     27  H   UNL     1       6.009   2.649  18.953  0.00  0.00    +0.000 HD
ENDBRANCH  24  26
ENDBRANCH  20  24
ENDBRANCH  14  22
ENDBRANCH   1  17
BRANCH  12  28
ATOM     28  C   UNL     1       1.348  14.206  20.067  0.00  0.00    +0.000 C 
ATOM     29  C   UNL     1       2.850  13.861  20.205  0.00  0.00    +0.000 C 
ATOM     30  C   UNL     1       1.207  15.209  18.906  0.00  0.00    +0.000 C 
BRANCH  28  31
ATOM     31  S   UNL     1       0.777  15.004  21.603  0.00  0.00    +0.000 S 
ATOM     32  C   UNL     1       2.166  15.904  22.259  0.00  0.00    +0.000 C 
ATOM     33  O   UNL     1      -0.222  15.997  21.247  0.00  0.00    +0.000 OA
ATOM     34  O   UNL     1       0.434  13.980  22.578  0.00  0.00    +0.000 OA
ENDBRANCH  28  31
ENDBRANCH  12  28
TORSDOF 6
ENDMDL
MODEL 5
REMARK VINA RESULT:      -7.7      1.064      1.418
REMARK  Name = 
REMARK  11 active torsions:
REMARK  status: ('A' for Active; 'I' for Inactive)
REMARK    1  A    between atoms: C_1  and  N_2
REMARK    2  A    between atoms: N_2  and  C_3
REMARK    3  A    between atoms: C_3  and  C_4
REMARK    4  A    between atoms: N_6  and  C_7
REMARK    5  A    between atoms: C_10  and  C_11
REMARK    6  A    between atoms: C_19  and  C_20
REMARK    7  A    between atoms: C_22  and  C_23
REMARK    8  A    between atoms: C_23  and  C_24
REMARK    9  A    between atoms: C_23  and  C_25
REMARK   10  A    between atoms: C_23  and  S_26
REMARK   11  A    between atoms: S_26  and  C_27
REMARK                            x       y       z     vdW  Elec       q    Type
REMARK                         _______ _______ _______ _____ _____    ______ ____
ROOT
ATOM      1  C   UNL     1       0.532  10.839  19.159  0.00  0.00    +0.000 A 
ATOM      2  N   UNL     1      -0.799  10.807  19.048  0.00  0.00    +0.000 NA
ATOM      3  C   UNL     1      -1.488  11.948  19.115  0.00  0.00    +0.000 A 
ATOM      4  N   UNL     1      -2.861  11.822  19.033  0.00  0.00    +0.000 N 
ATOM      5  C   UNL     1      -3.710  12.786  19.751  0.00  0.00    +0.000 C 
ATOM      6  C   UNL     1      -5.091  12.156  19.981  0.00  0.00    +0.000 C 
ATOM      7  O   UNL     1      -5.706  11.804  18.733  0.00  0.00    +0.000 OA
ATOM      8  C   UNL     1      -4.901  10.829  18.047  0.00  0.00    +0.000 C 
ATOM      9  C   UNL     1      -3.471  11.352  17.753  0.00  0.00    +0.000 C 
ATOM     10  C   UNL     1      -2.711  10.249  17.015  0.00  0.00    +0.000 C 
ATOM     11  C   UNL     1      -0.822  13.147  19.304  0.00  0.00    +0.000 A 
ATOM     12  C   UNL     1       0.569  13.130  19.385  0.00  0.00    +0.000 A 
ATOM     13  N   UNL     1       1.244  11.962  19.333  0.00  0.00    +0.000 NA
ENDROOT
BRANCH   1  17
ATOM     14  C   UNL     1       2.513   7.011  18.915  0.00  0.00    +0.000 A 
ATOM     15  C   UNL     1       2.436   7.853  17.811  0.00  0.00    +0.000 A 
ATOM     16  C   UNL     1       1.809   9.097  17.907  0.00  0.00    +0.000 A 
ATOM     17  C   UNL     1       1.239   9.548  19.108  0.00  0.00    +0.000 A 
ATOM     18  C   UNL     1       1.349   8.702  20.225  0.00  0.00    +0.000 A 
ATOM     19  C   UNL     1       1.960   7.440  20.127  0.00  0.00    +0.000 A 
BRANCH  14  22
ATOM     20  C   UNL     1       4.314   5.398  18.323  0.00  0.00    +0.000 C 
ATOM     21  O   UNL     1       5.198   6.185  17.997  0.00  0.00    +0.000 OA
ATOM     22  N   UNL     1       3.074   5.722  18.849  0.00  0.00    +0.000 N 
ATOM     23  H   UNL     1       2.513   4.947  19.184  0.00  0.00    +0.000 HD
BRANCH  20  24
ATOM     24  C   UNL     1       4.541   3.890  18.197  0.00  0.00    +0.000 C 
BRANCH  24  26
ATOM     25  C   UNL     1       4.349   2.281  20.001  0.00  0.00    +0.000 C 
ATOM     26  N   UNL     1       5.184   3.325  19.402  0.00  0.00    +0.000 NA
ATOM     27  H   UNL     1       6.060   2.891  19.111  0.00  0.00    +0.000 HD
ENDBRANCH  24  26
ENDBRANCH  20  24
ENDBRANCH  14  22
ENDBRANCH   1  17
BRANCH  12  28
ATOM     28  C   UNL     1       1.429  14.394  19.388  0.00  0.00    +0.000 C 
ATOM     29  C   UNL     1       2.657  14.249  18.458  0.00  0.00    +0.000 C 
ATOM     30  C   UNL     1       0.612  15.603  18.893  0.00  0.00    +0.000 C 
BRANCH  28  31
ATOM     31  S   UNL     1       2.003  14.729  21.085  0.00  0.00    +0.000 S 
ATOM     32  C   UNL     1       0.566  14.657  22.133  0.00  0.00    +0.000 C 
ATOM     33  O   UNL     1       2.861  13.630  21.493  0.00  0.00    +0.000 OA
ATOM     34  O   UNL     1       2.517  16.088  21.159  0.00  0.00    +0.000 OA
ENDBRANCH  28  31
ENDBRANCH  12  28
TORSDOF 6
ENDMDL
MODEL 6
REMARK VINA RESULT:      -7.7      0.939      1.355
REMARK  Name = 
REMARK  11 active torsions:
REMARK  status: ('A' for Active; 'I' for Inactive)
REMARK    1  A    between atoms: C_1  and  N_2
REMARK    2  A    between atoms: N_2  and  C_3
REMARK    3  A    between atoms: C_3  and  C_4
REMARK    4  A    between atoms: N_6  and  C_7
REMARK    5  A    between atoms: C_10  and  C_11
REMARK    6  A    between atoms: C_19  and  C_20
REMARK    7  A    between atoms: C_22  and  C_23
REMARK    8  A    between atoms: C_23  and  C_24
REMARK    9  A    between atoms: C_23  and  C_25
REMARK   10  A    between atoms: C_23  and  S_26
REMARK   11  A    between atoms: S_26  and  C_27
REMARK                            x       y       z     vdW  Elec       q    Type
REMARK                         _______ _______ _______ _____ _____    ______ ____
ROOT
ATOM      1  C   UNL     1       0.427  10.704  19.379  0.00  0.00    +0.000 A 
ATOM      2  N   UNL     1      -0.854  10.666  19.002  0.00  0.00    +0.000 NA
ATOM      3  C   UNL     1      -1.597  11.772  19.098  0.00  0.00    +0.000 A 
ATOM      4  N   UNL     1      -2.920  11.636  18.726  0.00  0.00    +0.000 N 
ATOM      5  C   UNL     1      -3.937  12.463  19.394  0.00  0.00    +0.000 C 
ATOM      6  C   UNL     1      -5.305  11.781  19.250  0.00  0.00    +0.000 C 
ATOM      7  O   UNL     1      -5.649  11.614  17.867  0.00  0.00    +0.000 OA
ATOM      8  C   UNL     1      -4.681  10.770  17.220  0.00  0.00    +0.000 C 
ATOM      9  C   UNL     1      -3.247  11.357  17.296  0.00  0.00    +0.000 C 
ATOM     10  C   UNL     1      -2.307  10.393  16.570  0.00  0.00    +0.000 C 
ATOM     11  C   UNL     1      -1.038  12.940  19.589  0.00  0.00    +0.000 A 
ATOM     12  C   UNL     1       0.311  12.934  19.941  0.00  0.00    +0.000 A 
ATOM     13  N   UNL     1       1.037  11.800  19.854  0.00  0.00    +0.000 NA
ENDROOT
BRANCH   1  17
ATOM     14  C   UNL     1       2.580   6.983  18.991  0.00  0.00    +0.000 A 
ATOM     15  C   UNL     1       2.515   7.890  17.939  0.00  0.00    +0.000 A 
ATOM     16  C   UNL     1       1.831   9.099  18.082  0.00  0.00    +0.000 A 
ATOM     17  C   UNL     1       1.190   9.449  19.282  0.00  0.00    +0.000 A 
ATOM     18  C   UNL     1       1.288   8.538  20.347  0.00  0.00    +0.000 A 
ATOM     19  C   UNL     1       1.956   7.311  20.200  0.00  0.00    +0.000 A 
BRANCH  14  22
ATOM     20  C   UNL     1       2.643   4.594  18.293  0.00  0.00    +0.000 C 
ATOM     21  O   UNL     1       1.608   4.543  17.635  0.00  0.00    +0.000 OA
ATOM     22  N   UNL     1       3.198   5.725  18.871  0.00  0.00    +0.000 N 
ATOM     23  H   UNL     1       4.123   5.615  19.271  0.00  0.00    +0.000 HD
BRANCH  20  24
ATOM     24  C   UNL     1       3.478   3.331  18.514  0.00  0.00    +0.000 C 
BRANCH  24  26
ATOM     25  C   UNL     1       4.898   3.832  16.614  0.00  0.00    +0.000 C 
ATOM     26  N   UNL     1       4.868   3.497  18.040  0.00  0.00    +0.000 NA
ATOM     27  H   UNL     1       5.277   4.282  18.550  0.00  0.00    +0.000 HD
ENDBRANCH  24  26
ENDBRANCH  20  24
ENDBRANCH  14  22
ENDBRANCH   1  17
BRANCH  12  28
ATOM     28  C   UNL     1       1.093  14.198  20.300  0.00  0.00    +0.000 C 
ATOM     29  C   UNL     1       2.620  13.963  20.224  0.00  0.00    +0.000 C 
ATOM     30  C   UNL     1       0.748  15.340  19.325  0.00  0.00    +0.000 C 
BRANCH  28  31
ATOM     31  S   UNL     1       0.654  14.718  21.992  0.00  0.00    +0.000 S 
ATOM     32  C   UNL     1      -0.651  15.918  21.834  0.00  0.00    +0.000 C 
ATOM     33  O   UNL     1       0.076  13.574  22.676  0.00  0.00    +0.000 OA
ATOM     34  O   UNL     1       1.790  15.399  22.595  0.00  0.00    +0.000 OA
ENDBRANCH  28  31
ENDBRANCH  12  28
TORSDOF 6
ENDMDL
MODEL 7
REMARK VINA RESULT:      -7.6      1.183      1.225
REMARK  Name = 
REMARK  11 active torsions:
REMARK  status: ('A' for Active; 'I' for Inactive)
REMARK    1  A    between atoms: C_1  and  N_2
REMARK    2  A    between atoms: N_2  and  C_3
REMARK    3  A    between atoms: C_3  and  C_4
REMARK    4  A    between atoms: N_6  and  C_7
REMARK    5  A    between atoms: C_10  and  C_11
REMARK    6  A    between atoms: C_19  and  C_20
REMARK    7  A    between atoms: C_22  and  C_23
REMARK    8  A    between atoms: C_23  and  C_24
REMARK    9  A    between atoms: C_23  and  C_25
REMARK   10  A    between atoms: C_23  and  S_26
REMARK   11  A    between atoms: S_26  and  C_27
REMARK                            x       y       z     vdW  Elec       q    Type
REMARK                         _______ _______ _______ _____ _____    ______ ____
ROOT
ATOM      1  C   UNL     1       0.622  10.734  19.165  0.00  0.00    +0.000 A 
ATOM      2  N   UNL     1      -0.711  10.781  19.091  0.00  0.00    +0.000 NA
ATOM      3  C   UNL     1      -1.331  11.959  19.198  0.00  0.00    +0.000 A 
ATOM      4  N   UNL     1      -2.710  11.914  19.152  0.00  0.00    +0.000 N 
ATOM      5  C   UNL     1      -3.481  12.910  19.910  0.00  0.00    +0.000 C 
ATOM      6  C   UNL     1      -4.891  12.357  20.168  0.00  0.00    +0.000 C 
ATOM      7  O   UNL     1      -5.558  12.065  18.932  0.00  0.00    +0.000 OA
ATOM      8  C   UNL     1      -4.831  11.059  18.207  0.00  0.00    +0.000 C 
ATOM      9  C   UNL     1      -3.381  11.504  17.881  0.00  0.00    +0.000 C 
ATOM     10  C   UNL     1      -2.706  10.373  17.103  0.00  0.00    +0.000 C 
ATOM     11  C   UNL     1      -0.591  13.113  19.389  0.00  0.00    +0.000 A 
ATOM     12  C   UNL     1       0.799  13.014  19.431  0.00  0.00    +0.000 A 
ATOM     13  N   UNL     1       1.403  11.810  19.339  0.00  0.00    +0.000 NA
ENDROOT
BRANCH   1  17
ATOM     14  C   UNL     1       2.566   6.884  18.979  0.00  0.00    +0.000 A 
ATOM     15  C   UNL     1       2.051   7.373  20.174  0.00  0.00    +0.000 A 
ATOM     16  C   UNL     1       1.409   8.612  20.219  0.00  0.00    +0.000 A 
ATOM     17  C   UNL     1       1.251   9.406  19.072  0.00  0.00    +0.000 A 
ATOM     18  C   UNL     1       1.748   8.888  17.864  0.00  0.00    +0.000 A 
ATOM     19  C   UNL     1       2.415   7.652  17.819  0.00  0.00    +0.000 A 
BRANCH  14  22
ATOM     20  C   UNL     1       4.488   5.481  18.245  0.00  0.00    +0.000 C 
ATOM     21  O   UNL     1       5.219   6.355  17.788  0.00  0.00    +0.000 OA
ATOM     22  N   UNL     1       3.281   5.674  18.898  0.00  0.00    +0.000 N 
ATOM     23  H   UNL     1       2.868   4.854  19.326  0.00  0.00    +0.000 HD
BRANCH  20  24
ATOM     24  C   UNL     1       4.896   4.009  18.152  0.00  0.00    +0.000 C 
BRANCH  24  26
ATOM     25  C   UNL     1       4.342   2.306  19.786  0.00  0.00    +0.000 C 
ATOM     26  N   UNL     1       5.215   3.440  19.478  0.00  0.00    +0.000 NA
ATOM     27  H   UNL     1       6.174   3.091  19.441  0.00  0.00    +0.000 HD
ENDBRANCH  24  26
ENDBRANCH  20  24
ENDBRANCH  14  22
ENDBRANCH   1  17
BRANCH  12  28
ATOM     28  C   UNL     1       1.731  14.226  19.432  0.00  0.00    +0.000 C 
ATOM     29  C   UNL     1       3.043  13.936  18.665  0.00  0.00    +0.000 C 
ATOM     30  C   UNL     1       1.051  15.429  18.751  0.00  0.00    +0.000 C 
BRANCH  28  31
ATOM     31  S   UNL     1       2.132  14.676  21.152  0.00  0.00    +0.000 S 
ATOM     32  C   UNL     1       3.843  14.254  21.404  0.00  0.00    +0.000 C 
ATOM     33  O   UNL     1       2.046  16.121  21.269  0.00  0.00    +0.000 OA
ATOM     34  O   UNL     1       1.351  13.849  22.060  0.00  0.00    +0.000 OA
ENDBRANCH  28  31
ENDBRANCH  12  28
TORSDOF 6
ENDMDL
MODEL 8
REMARK VINA RESULT:      -7.6      1.047      1.426
REMARK  Name = 
REMARK  11 active torsions:
REMARK  status: ('A' for Active; 'I' for Inactive)
REMARK    1  A    between atoms: C_1  and  N_2
REMARK    2  A    between atoms: N_2  and  C_3
REMARK    3  A    between atoms: C_3  and  C_4
REMARK    4  A    between atoms: N_6  and  C_7
REMARK    5  A    between atoms: C_10  and  C_11
REMARK    6  A    between atoms: C_19  and  C_20
REMARK    7  A    between atoms: C_22  and  C_23
REMARK    8  A    between atoms: C_23  and  C_24
REMARK    9  A    between atoms: C_23  and  C_25
REMARK   10  A    between atoms: C_23  and  S_26
REMARK   11  A    between atoms: S_26  and  C_27
REMARK                            x       y       z     vdW  Elec       q    Type
REMARK                         _______ _______ _______ _____ _____    ______ ____
ROOT
ATOM      1  C   UNL     1       0.381  10.948  19.230  0.00  0.00    +0.000 A 
ATOM      2  N   UNL     1      -0.941  10.879  19.052  0.00  0.00    +0.000 NA
ATOM      3  C   UNL     1      -1.678  11.984  19.191  0.00  0.00    +0.000 A 
ATOM      4  N   UNL     1      -3.039  11.817  19.032  0.00  0.00    +0.000 N 
ATOM      5  C   UNL     1      -3.957  12.679  19.793  0.00  0.00    +0.000 C 
ATOM      6  C   UNL     1      -5.321  11.981  19.899  0.00  0.00    +0.000 C 
ATOM      7  O   UNL     1      -5.865  11.725  18.596  0.00  0.00    +0.000 OA
ATOM      8  C   UNL     1      -4.993  10.848  17.864  0.00  0.00    +0.000 C 
ATOM      9  C   UNL     1      -3.573  11.446  17.686  0.00  0.00    +0.000 C 
ATOM     10  C   UNL     1      -2.737  10.444  16.889  0.00  0.00    +0.000 C 
ATOM     11  C   UNL     1      -1.069  13.183  19.519  0.00  0.00    +0.000 A 
ATOM     12  C   UNL     1       0.317  13.208  19.665  0.00  0.00    +0.000 A 
ATOM     13  N   UNL     1       1.039  12.075  19.539  0.00  0.00    +0.000 NA
ENDROOT
BRANCH   1  17
ATOM     14  C   UNL     1       2.516   7.229  18.739  0.00  0.00    +0.000 A 
ATOM     15  C   UNL     1       2.390   8.130  17.688  0.00  0.00    +0.000 A 
ATOM     16  C   UNL     1       1.712   9.338  17.863  0.00  0.00    +0.000 A 
ATOM     17  C   UNL     1       1.141   9.694  19.095  0.00  0.00    +0.000 A 
ATOM     18  C   UNL     1       1.301   8.789  20.159  0.00  0.00    +0.000 A 
ATOM     19  C   UNL     1       1.963   7.563  19.980  0.00  0.00    +0.000 A 
BRANCH  14  22
ATOM     20  C   UNL     1       4.374   5.730  18.028  0.00  0.00    +0.000 C 
ATOM     21  O   UNL     1       5.217   6.571  17.734  0.00  0.00    +0.000 OA
ATOM     22  N   UNL     1       3.130   5.971  18.591  0.00  0.00    +0.000 N 
ATOM     23  H   UNL     1       2.609   5.155  18.891  0.00  0.00    +0.000 HD
BRANCH  20  24
ATOM     24  C   UNL     1       4.661   4.243  17.813  0.00  0.00    +0.000 C 
BRANCH  24  26
ATOM     25  C   UNL     1       5.867   3.805  15.755  0.00  0.00    +0.000 C 
ATOM     26  N   UNL     1       5.987   4.020  17.199  0.00  0.00    +0.000 NA
ATOM     27  H   UNL     1       6.539   4.868  17.340  0.00  0.00    +0.000 HD
ENDBRANCH  24  26
ENDBRANCH  20  24
ENDBRANCH  14  22
ENDBRANCH   1  17
BRANCH  12  28
ATOM     28  C   UNL     1       1.124  14.497  19.823  0.00  0.00    +0.000 C 
ATOM     29  C   UNL     1       2.324  14.541  18.847  0.00  0.00    +0.000 C 
ATOM     30  C   UNL     1       0.242  15.725  19.532  0.00  0.00    +0.000 C 
BRANCH  28  31
ATOM     31  S   UNL     1       1.744  14.613  21.534  0.00  0.00    +0.000 S 
ATOM     32  C   UNL     1       2.011  16.341  21.865  0.00  0.00    +0.000 C 
ATOM     33  O   UNL     1       0.679  14.186  22.426  0.00  0.00    +0.000 OA
ATOM     34  O   UNL     1       3.040  13.956  21.622  0.00  0.00    +0.000 OA
ENDBRANCH  28  31
ENDBRANCH  12  28
TORSDOF 6
ENDMDL
MODEL 9
REMARK VINA RESULT:      -7.6      1.093      1.189
REMARK  Name = 
REMARK  11 active torsions:
REMARK  status: ('A' for Active; 'I' for Inactive)
REMARK    1  A    between atoms: C_1  and  N_2
REMARK    2  A    between atoms: N_2  and  C_3
REMARK    3  A    between atoms: C_3  and  C_4
REMARK    4  A    between atoms: N_6  and  C_7
REMARK    5  A    between atoms: C_10  and  C_11
REMARK    6  A    between atoms: C_19  and  C_20
REMARK    7  A    between atoms: C_22  and  C_23
REMARK    8  A    between atoms: C_23  and  C_24
REMARK    9  A    between atoms: C_23  and  C_25
REMARK   10  A    between atoms: C_23  and  S_26
REMARK   11  A    between atoms: S_26  and  C_27
REMARK                            x       y       z     vdW  Elec       q    Type
REMARK                         _______ _______ _______ _____ _____    ______ ____
ROOT
ATOM      1  C   UNL     1       0.043  11.005  19.625  0.00  0.00    +0.000 A 
ATOM      2  N   UNL     1      -1.282  10.956  19.462  0.00  0.00    +0.000 NA
ATOM      3  C   UNL     1      -1.984  12.092  19.469  0.00  0.00    +0.000 A 
ATOM      4  N   UNL     1      -3.351  11.949  19.336  0.00  0.00    +0.000 N 
ATOM      5  C   UNL     1      -4.236  12.924  19.992  0.00  0.00    +0.000 C 
ATOM      6  C   UNL     1      -5.620  12.286  20.186  0.00  0.00    +0.000 C 
ATOM      7  O   UNL     1      -6.182  11.893  18.925  0.00  0.00    +0.000 OA
ATOM      8  C   UNL     1      -5.342  10.908  18.300  0.00  0.00    +0.000 C 
ATOM      9  C   UNL     1      -3.905  11.436  18.047  0.00  0.00    +0.000 C 
ATOM     10  C   UNL     1      -3.106  10.321  17.372  0.00  0.00    +0.000 C 
ATOM     11  C   UNL     1      -1.337  13.302  19.650  0.00  0.00    +0.000 A 
ATOM     12  C   UNL     1       0.050  13.301  19.786  0.00  0.00    +0.000 A 
ATOM     13  N   UNL     1       0.737  12.139  19.795  0.00  0.00    +0.000 NA
ENDROOT
BRANCH   1  17
ATOM     14  C   UNL     1       2.235   7.289  19.770  0.00  0.00    +0.000 A 
ATOM     15  C   UNL     1       1.493   7.729  20.860  0.00  0.00    +0.000 A 
ATOM     16  C   UNL     1       0.773   8.924  20.795  0.00  0.00    +0.000 A 
ATOM     17  C   UNL     1       0.763   9.721  19.639  0.00  0.00    +0.000 A 
ATOM     18  C   UNL     1       1.493   9.251  18.533  0.00  0.00    +0.000 A 
ATOM     19  C   UNL     1       2.236   8.060  18.602  0.00  0.00    +0.000 A 
BRANCH  14  22
ATOM     20  C   UNL     1       2.722   4.906  19.235  0.00  0.00    +0.000 C 
ATOM     21  O   UNL     1       1.807   4.680  18.449  0.00  0.00    +0.000 OA
ATOM     22  N   UNL     1       3.030   6.128  19.812  0.00  0.00    +0.000 N 
ATOM     23  H   UNL     1       3.896   6.169  20.338  0.00  0.00    +0.000 HD
BRANCH  20  24
ATOM     24  C   UNL     1       3.681   3.786  19.644  0.00  0.00    +0.000 C 
BRANCH  24  26
ATOM     25  C   UNL     1       2.377   2.900  21.487  0.00  0.00    +0.000 C 
ATOM     26  N   UNL     1       2.961   2.609  20.175  0.00  0.00    +0.000 NA
ATOM     27  H   UNL     1       2.194   2.401  19.535  0.00  0.00    +0.000 HD
ENDBRANCH  24  26
ENDBRANCH  20  24
ENDBRANCH  14  22
ENDBRANCH   1  17
BRANCH  12  28
ATOM     28  C   UNL     1       0.898  14.574  19.787  0.00  0.00    +0.000 C 
ATOM     29  C   UNL     1       2.367  14.280  19.403  0.00  0.00    +0.000 C 
ATOM     30  C   UNL     1       0.346  15.590  18.768  0.00  0.00    +0.000 C 
BRANCH  28  31
ATOM     31  S   UNL     1       0.854  15.326  21.447  0.00  0.00    +0.000 S 
ATOM     32  C   UNL     1       2.369  16.242  21.632  0.00  0.00    +0.000 C 
ATOM     33  O   UNL     1      -0.220  16.304  21.467  0.00  0.00    +0.000 OA
ATOM     34  O   UNL     1       0.866  14.274  22.452  0.00  0.00    +0.000 OA
ENDBRANCH  28  31
ENDBRANCH  12  28
TORSDOF 6
ENDMDL
