MODEL 1
REMARK VINA RESULT:      -8.2      0.000      0.000
REMARK  Name = 
REMARK  7 active torsions:
REMARK  status: ('A' for Active; 'I' for Inactive)
REMARK    1  A    between atoms: C_1  and  C_2
REMARK    2  A    between atoms: C_7  and  C_8
REMARK    3  A    between atoms: N_10  and  C_11
REMARK    4  A    between atoms: C_14  and  C_15
REMARK    5  A    between atoms: C_21  and  N_22
REMARK    6  A    between atoms: N_22  and  C_23
REMARK    7  A    between atoms: N_22  and  C_24
REMARK                            x       y       z     vdW  Elec       q    Type
REMARK                         _______ _______ _______ _____ _____    ______ ____
ROOT
ATOM      1  C   UNL     1       8.292   9.531  18.036  0.00  0.00    +0.000 A 
ATOM      2  C   UNL     1       8.958   9.432  19.257  0.00  0.00    +0.000 A 
ATOM      3  C   UNL     1       9.574  10.591  19.884  0.00  0.00    +0.000 A 
ATOM      4  C   UNL     1       9.558  11.927  19.349  0.00  0.00    +0.000 A 
ATOM      5  C   UNL     1       8.948  12.004  18.108  0.00  0.00    +0.000 A 
ATOM      6  C   UNL     1       8.347  10.835  17.469  0.00  0.00    +0.000 A 
ENDROOT
BRANCH   4   7
ATOM      7  C   UNL     1      10.282  13.058  20.134  0.00  0.00    +0.000 C 
ATOM      8  O   UNL     1      10.758  12.616  21.200  0.00  0.00    +0.000 OA
ATOM      9  N   UNL     1      10.318  14.517  19.947  0.00  0.00    +0.000 N 
ATOM     10  C   UNL     1      10.557  15.255  21.217  0.00  0.00    +0.000 C 
ATOM     11  C   UNL     1       9.238  15.490  21.919  0.00  0.00    +0.000 C 
ATOM     12  C   UNL     1       8.226  16.352  21.087  0.00  0.00    +0.000 C 
ATOM     13  C   UNL     1       8.194  16.823  19.581  0.00  0.00    +0.000 C 
ATOM     14  C   UNL     1       9.476  16.616  18.789  0.00  0.00    +0.000 A 
ATOM     15  C   UNL     1       9.756  17.733  17.927  0.00  0.00    +0.000 A 
ATOM     16  C   UNL     1      10.833  17.756  17.075  0.00  0.00    +0.000 A 
ATOM     17  C   UNL     1      11.692  16.666  17.131  0.00  0.00    +0.000 A 
ATOM     18  C   UNL     1      11.454  15.552  17.991  0.00  0.00    +0.000 A 
ATOM     19  C   UNL     1      10.308  15.447  18.813  0.00  0.00    +0.000 A 
BRANCH  13  20
ATOM     20  N   UNL     1       6.981  16.329  18.843  0.00  0.00    +0.000 NA
ATOM     21  C   UNL     1       6.711  14.922  19.160  0.00  0.00    +0.000 C 
ATOM     22  C   UNL     1       5.761  17.108  19.113  0.00  0.00    +0.000 C 
ENDBRANCH  13  20
ENDBRANCH   4   7
BRANCH   1  25
ATOM     23  C   UNL     1       7.465   7.098  17.688  0.00  0.00    +0.000 C 
ATOM     24  O   UNL     1       8.067   6.632  18.667  0.00  0.00    +0.000 OA
ATOM     25  N   UNL     1       7.567   8.448  17.333  0.00  0.00    +0.000 N 
ATOM     26  H   UNL     1       7.053   8.749  16.522  0.00  0.00    +0.000 HD
BRANCH  23  33
ATOM     27  C   UNL     1       4.209   6.369  17.906  0.00  0.00    +0.000 C 
ATOM     28  C   UNL     1       5.195   5.724  16.985  0.00  0.00    +0.000 A 
ATOM     29  C   UNL     1       4.618   4.686  16.142  0.00  0.00    +0.000 A 
ATOM     30  C   UNL     1       5.361   3.966  15.223  0.00  0.00    +0.000 A 
ATOM     31  C   UNL     1       6.703   4.265  15.116  0.00  0.00    +0.000 A 
ATOM     32  C   UNL     1       7.291   5.274  15.943  0.00  0.00    +0.000 A 
ATOM     33  C   UNL     1       6.569   6.042  16.903  0.00  0.00    +0.000 A 
ENDBRANCH  23  33
ENDBRANCH   1  25
TORSDOF 4
ENDMDL
MODEL 2
REMARK VINA RESULT:      -7.8      3.632     11.133
REMARK  Name = 
REMARK  7 active torsions:
REMARK  status: ('A' for Active; 'I' for Inactive)
REMARK    1  A    between atoms: C_1  and  C_2
REMARK    2  A    between atoms: C_7  and  C_8
REMARK    3  A    between atoms: N_10  and  C_11
REMARK    4  A    between atoms: C_14  and  C_15
REMARK    5  A    between atoms: C_21  and  N_22
REMARK    6  A    between atoms: N_22  and  C_23
REMARK    7  A    between atoms: N_22  and  C_24
REMARK                            x       y       z     vdW  Elec       q    Type
REMARK                         _______ _______ _______ _____ _____    ______ ____
ROOT
ATOM      1  C   UNL     1       8.094   7.408  18.512  0.00  0.00    +0.000 A 
ATOM      2  C   UNL     1       7.968   6.231  19.249  0.00  0.00    +0.000 A 
ATOM      3  C   UNL     1       7.082   5.159  18.825  0.00  0.00    +0.000 A 
ATOM      4  C   UNL     1       6.273   5.176  17.634  0.00  0.00    +0.000 A 
ATOM      5  C   UNL     1       6.358   6.373  16.942  0.00  0.00    +0.000 A 
ATOM      6  C   UNL     1       7.233   7.458  17.380  0.00  0.00    +0.000 A 
ENDROOT
BRANCH   4   7
ATOM      7  C   UNL     1       5.361   3.954  17.330  0.00  0.00    +0.000 C 
ATOM      8  O   UNL     1       5.617   3.484  16.203  0.00  0.00    +0.000 OA
ATOM      9  N   UNL     1       4.174   3.419  18.016  0.00  0.00    +0.000 N 
ATOM     10  C   UNL     1       3.256   2.692  17.097  0.00  0.00    +0.000 C 
ATOM     11  C   UNL     1       2.303   3.676  16.456  0.00  0.00    +0.000 C 
ATOM     12  C   UNL     1       1.394   4.436  17.484  0.00  0.00    +0.000 C 
ATOM     13  C   UNL     1       1.426   4.571  19.056  0.00  0.00    +0.000 C 
ATOM     14  C   UNL     1       2.367   3.627  19.790  0.00  0.00    +0.000 A 
ATOM     15  C   UNL     1       1.777   3.122  21.000  0.00  0.00    +0.000 A 
ATOM     16  C   UNL     1       2.453   2.291  21.860  0.00  0.00    +0.000 A 
ATOM     17  C   UNL     1       3.728   1.900  21.470  0.00  0.00    +0.000 A 
ATOM     18  C   UNL     1       4.333   2.367  20.265  0.00  0.00    +0.000 A 
ATOM     19  C   UNL     1       3.708   3.296  19.401  0.00  0.00    +0.000 A 
BRANCH  13  20
ATOM     20  N   UNL     1       1.576   5.996  19.514  0.00  0.00    +0.000 NA
ATOM     21  C   UNL     1       1.739   6.065  20.970  0.00  0.00    +0.000 C 
ATOM     22  C   UNL     1       2.702   6.708  18.886  0.00  0.00    +0.000 C 
ENDBRANCH  13  20
ENDBRANCH   4   7
BRANCH   1  25
ATOM     23  C   UNL     1       8.848   9.889  18.468  0.00  0.00    +0.000 C 
ATOM     24  O   UNL     1       7.881  10.290  17.803  0.00  0.00    +0.000 OA
ATOM     25  N   UNL     1       9.008   8.538  18.797  0.00  0.00    +0.000 N 
ATOM     26  H   UNL     1       9.822   8.290  19.334  0.00  0.00    +0.000 HD
BRANCH  23  33
ATOM     27  C   UNL     1       9.211  11.493  21.379  0.00  0.00    +0.000 C 
ATOM     28  C   UNL     1      10.021  11.721  20.143  0.00  0.00    +0.000 A 
ATOM     29  C   UNL     1      11.034  12.755  20.288  0.00  0.00    +0.000 A 
ATOM     30  C   UNL     1      11.887  13.120  19.261  0.00  0.00    +0.000 A 
ATOM     31  C   UNL     1      11.755  12.458  18.059  0.00  0.00    +0.000 A 
ATOM     32  C   UNL     1      10.757  11.446  17.892  0.00  0.00    +0.000 A 
ATOM     33  C   UNL     1       9.856  11.035  18.918  0.00  0.00    +0.000 A 
ENDBRANCH  23  33
ENDBRANCH   1  25
TORSDOF 4
ENDMDL
MODEL 3
REMARK VINA RESULT:      -7.7      0.688      1.354
REMARK  Name = 
REMARK  7 active torsions:
REMARK  status: ('A' for Active; 'I' for Inactive)
REMARK    1  A    between atoms: C_1  and  C_2
REMARK    2  A    between atoms: C_7  and  C_8
REMARK    3  A    between atoms: N_10  and  C_11
REMARK    4  A    between atoms: C_14  and  C_15
REMARK    5  A    between atoms: C_21  and  N_22
REMARK    6  A    between atoms: N_22  and  C_23
REMARK    7  A    between atoms: N_22  and  C_24
REMARK                            x       y       z     vdW  Elec       q    Type
REMARK                         _______ _______ _______ _____ _____    ______ ____
ROOT
ATOM      1  C   UNL     1       8.216   9.370  18.035  0.00  0.00    +0.000 A 
ATOM      2  C   UNL     1       9.007   9.269  19.179  0.00  0.00    +0.000 A 
ATOM      3  C   UNL     1       9.728  10.414  19.710  0.00  0.00    +0.000 A 
ATOM      4  C   UNL     1       9.702  11.740  19.149  0.00  0.00    +0.000 A 
ATOM      5  C   UNL     1       8.965  11.817  17.979  0.00  0.00    +0.000 A 
ATOM      6  C   UNL     1       8.256  10.660  17.435  0.00  0.00    +0.000 A 
ENDROOT
BRANCH   4   7
ATOM      7  C   UNL     1      10.547  12.857  19.826  0.00  0.00    +0.000 C 
ATOM      8  O   UNL     1      11.308  12.370  20.688  0.00  0.00    +0.000 OA
ATOM      9  N   UNL     1      10.458  14.324  19.775  0.00  0.00    +0.000 N 
ATOM     10  C   UNL     1      10.983  14.977  21.006  0.00  0.00    +0.000 C 
ATOM     11  C   UNL     1       9.883  15.057  22.041  0.00  0.00    +0.000 C 
ATOM     12  C   UNL     1       8.646  15.904  21.582  0.00  0.00    +0.000 C 
ATOM     13  C   UNL     1       8.197  16.488  20.186  0.00  0.00    +0.000 C 
ATOM     14  C   UNL     1       9.236  16.439  19.076  0.00  0.00    +0.000 A 
ATOM     15  C   UNL     1       9.222  17.638  18.281  0.00  0.00    +0.000 A 
ATOM     16  C   UNL     1      10.036  17.808  17.188  0.00  0.00    +0.000 A 
ATOM     17  C   UNL     1      10.935  16.783  16.918  0.00  0.00    +0.000 A 
ATOM     18  C   UNL     1      10.988  15.591  17.701  0.00  0.00    +0.000 A 
ATOM     19  C   UNL     1      10.104  15.337  18.775  0.00  0.00    +0.000 A 
BRANCH  13  20
ATOM     20  N   UNL     1       6.860  15.964  19.740  0.00  0.00    +0.000 NA
ATOM     21  C   UNL     1       6.362  14.939  20.665  0.00  0.00    +0.000 C 
ATOM     22  C   UNL     1       5.828  17.006  19.602  0.00  0.00    +0.000 C 
ENDBRANCH  13  20
ENDBRANCH   4   7
BRANCH   1  25
ATOM     23  C   UNL     1       7.308   6.952  17.799  0.00  0.00    +0.000 C 
ATOM     24  O   UNL     1       8.036   6.471  18.680  0.00  0.00    +0.000 OA
ATOM     25  N   UNL     1       7.381   8.303  17.438  0.00  0.00    +0.000 N 
ATOM     26  H   UNL     1       6.761   8.616  16.710  0.00  0.00    +0.000 HD
BRANCH  23  33
ATOM     27  C   UNL     1       7.494   5.154  14.987  0.00  0.00    +0.000 C 
ATOM     28  C   UNL     1       6.358   5.150  15.960  0.00  0.00    +0.000 A 
ATOM     29  C   UNL     1       5.264   4.268  15.580  0.00  0.00    +0.000 A 
ATOM     30  C   UNL     1       4.119   4.121  16.343  0.00  0.00    +0.000 A 
ATOM     31  C   UNL     1       4.035   4.848  17.511  0.00  0.00    +0.000 A 
ATOM     32  C   UNL     1       5.095   5.729  17.896  0.00  0.00    +0.000 A 
ATOM     33  C   UNL     1       6.293   5.915  17.146  0.00  0.00    +0.000 A 
ENDBRANCH  23  33
ENDBRANCH   1  25
TORSDOF 4
ENDMDL
MODEL 4
REMARK VINA RESULT:      -7.6      8.321     10.543
REMARK  Name = 
REMARK  7 active torsions:
REMARK  status: ('A' for Active; 'I' for Inactive)
REMARK    1  A    between atoms: C_1  and  C_2
REMARK    2  A    between atoms: C_7  and  C_8
REMARK    3  A    between atoms: N_10  and  C_11
REMARK    4  A    between atoms: C_14  and  C_15
REMARK    5  A    between atoms: C_21  and  N_22
REMARK    6  A    between atoms: N_22  and  C_23
REMARK    7  A    between atoms: N_22  and  C_24
REMARK                            x       y       z     vdW  Elec       q    Type
REMARK                         _______ _______ _______ _____ _____    ______ ____
ROOT
ATOM      1  C   UNL     1       1.444   8.275  20.100  0.00  0.00    +0.000 A 
ATOM      2  C   UNL     1       1.484   9.001  18.910  0.00  0.00    +0.000 A 
ATOM      3  C   UNL     1       0.905  10.331  18.810  0.00  0.00    +0.000 A 
ATOM      4  C   UNL     1       0.260  11.036  19.887  0.00  0.00    +0.000 A 
ATOM      5  C   UNL     1       0.169  10.283  21.046  0.00  0.00    +0.000 A 
ATOM      6  C   UNL     1       0.734   8.938  21.140  0.00  0.00    +0.000 A 
ENDROOT
BRANCH   4   7
ATOM      7  C   UNL     1      -0.328  12.449  19.612  0.00  0.00    +0.000 C 
ATOM      8  O   UNL     1       0.574  13.240  19.267  0.00  0.00    +0.000 OA
ATOM      9  N   UNL     1      -1.653  13.031  19.876  0.00  0.00    +0.000 N 
ATOM     10  C   UNL     1      -1.608  14.506  20.069  0.00  0.00    +0.000 C 
ATOM     11  C   UNL     1      -1.307  14.815  21.519  0.00  0.00    +0.000 C 
ATOM     12  C   UNL     1      -2.386  14.269  22.517  0.00  0.00    +0.000 C 
ATOM     13  C   UNL     1      -3.591  13.262  22.357  0.00  0.00    +0.000 C 
ATOM     14  C   UNL     1      -3.960  12.882  20.931  0.00  0.00    +0.000 A 
ATOM     15  C   UNL     1      -5.386  12.812  20.751  0.00  0.00    +0.000 A 
ATOM     16  C   UNL     1      -5.962  12.439  19.561  0.00  0.00    +0.000 A 
ATOM     17  C   UNL     1      -5.096  12.192  18.503  0.00  0.00    +0.000 A 
ATOM     18  C   UNL     1      -3.678  12.273  18.644  0.00  0.00    +0.000 A 
ATOM     19  C   UNL     1      -3.043  12.562  19.875  0.00  0.00    +0.000 A 
BRANCH  13  20
ATOM     20  N   UNL     1      -3.467  12.061  23.254  0.00  0.00    +0.000 NA
ATOM     21  C   UNL     1      -2.064  11.650  23.390  0.00  0.00    +0.000 C 
ATOM     22  C   UNL     1      -4.024  12.264  24.601  0.00  0.00    +0.000 C 
ENDBRANCH  13  20
ENDBRANCH   4   7
BRANCH   1  25
ATOM     23  C   UNL     1       2.354   5.943  19.424  0.00  0.00    +0.000 C 
ATOM     24  O   UNL     1       2.058   6.048  18.225  0.00  0.00    +0.000 OA
ATOM     25  N   UNL     1       2.054   6.950  20.350  0.00  0.00    +0.000 N 
ATOM     26  H   UNL     1       2.322   6.787  21.306  0.00  0.00    +0.000 HD
BRANCH  23  33
ATOM     27  C   UNL     1       5.168   4.580  18.239  0.00  0.00    +0.000 C 
ATOM     28  C   UNL     1       4.294   4.005  19.308  0.00  0.00    +0.000 A 
ATOM     29  C   UNL     1       4.766   2.729  19.827  0.00  0.00    +0.000 A 
ATOM     30  C   UNL     1       4.101   2.030  20.819  0.00  0.00    +0.000 A 
ATOM     31  C   UNL     1       2.945   2.587  21.324  0.00  0.00    +0.000 A 
ATOM     32  C   UNL     1       2.459   3.833  20.819  0.00  0.00    +0.000 A 
ATOM     33  C   UNL     1       3.107   4.592  19.800  0.00  0.00    +0.000 A 
ENDBRANCH  23  33
ENDBRANCH   1  25
TORSDOF 4
ENDMDL
MODEL 5
REMARK VINA RESULT:      -7.6      8.877     11.339
REMARK  Name = 
REMARK  7 active torsions:
REMARK  status: ('A' for Active; 'I' for Inactive)
REMARK    1  A    between atoms: C_1  and  C_2
REMARK    2  A    between atoms: C_7  and  C_8
REMARK    3  A    between atoms: N_10  and  C_11
REMARK    4  A    between atoms: C_14  and  C_15
REMARK    5  A    between atoms: C_21  and  N_22
REMARK    6  A    between atoms: N_22  and  C_23
REMARK    7  A    between atoms: N_22  and  C_24
REMARK                            x       y       z     vdW  Elec       q    Type
REMARK                         _______ _______ _______ _____ _____    ______ ____
ROOT
ATOM      1  C   UNL     1       0.533  10.039  19.795  0.00  0.00    +0.000 A 
ATOM      2  C   UNL     1      -0.716  10.253  19.214  0.00  0.00    +0.000 A 
ATOM      3  C   UNL     1      -1.400  11.531  19.328  0.00  0.00    +0.000 A 
ATOM      4  C   UNL     1      -0.884  12.687  20.013  0.00  0.00    +0.000 A 
ATOM      5  C   UNL     1       0.328  12.447  20.639  0.00  0.00    +0.000 A 
ATOM      6  C   UNL     1       1.005  11.155  20.541  0.00  0.00    +0.000 A 
ENDROOT
BRANCH   4   7
ATOM      7  C   UNL     1      -1.750  13.979  20.061  0.00  0.00    +0.000 C 
ATOM      8  O   UNL     1      -1.052  14.985  19.819  0.00  0.00    +0.000 OA
ATOM      9  N   UNL     1      -3.125  14.223  20.523  0.00  0.00    +0.000 N 
ATOM     10  C   UNL     1      -3.335  15.618  20.998  0.00  0.00    +0.000 C 
ATOM     11  C   UNL     1      -2.947  15.716  22.457  0.00  0.00    +0.000 C 
ATOM     12  C   UNL     1      -3.796  14.793  23.398  0.00  0.00    +0.000 C 
ATOM     13  C   UNL     1      -4.802  13.607  23.125  0.00  0.00    +0.000 C 
ATOM     14  C   UNL     1      -5.241  13.423  21.680  0.00  0.00    +0.000 A 
ATOM     15  C   UNL     1      -6.640  13.099  21.586  0.00  0.00    +0.000 A 
ATOM     16  C   UNL     1      -7.257  12.837  20.387  0.00  0.00    +0.000 A 
ATOM     17  C   UNL     1      -6.475  12.964  19.246  0.00  0.00    +0.000 A 
ATOM     18  C   UNL     1      -5.091  13.305  19.305  0.00  0.00    +0.000 A 
ATOM     19  C   UNL     1      -4.396  13.490  20.522  0.00  0.00    +0.000 A 
BRANCH  13  20
ATOM     20  N   UNL     1      -4.364  12.315  23.758  0.00  0.00    +0.000 NA
ATOM     21  C   UNL     1      -2.936  12.074  23.523  0.00  0.00    +0.000 C 
ATOM     22  C   UNL     1      -4.614  12.247  25.207  0.00  0.00    +0.000 C 
ENDBRANCH  13  20
ENDBRANCH   4   7
BRANCH   1  25
ATOM     23  C   UNL     1       1.992   8.286  18.562  0.00  0.00    +0.000 C 
ATOM     24  O   UNL     1       1.861   8.797  17.440  0.00  0.00    +0.000 OA
ATOM     25  N   UNL     1       1.359   8.815  19.693  0.00  0.00    +0.000 N 
ATOM     26  H   UNL     1       1.510   8.340  20.567  0.00  0.00    +0.000 HD
BRANCH  23  33
ATOM     27  C   UNL     1       1.969   5.567  20.507  0.00  0.00    +0.000 C 
ATOM     28  C   UNL     1       2.945   5.856  19.411  0.00  0.00    +0.000 A 
ATOM     29  C   UNL     1       3.955   4.822  19.237  0.00  0.00    +0.000 A 
ATOM     30  C   UNL     1       4.951   4.898  18.280  0.00  0.00    +0.000 A 
ATOM     31  C   UNL     1       4.965   6.009  17.464  0.00  0.00    +0.000 A 
ATOM     32  C   UNL     1       3.988   7.042  17.626  0.00  0.00    +0.000 A 
ATOM     33  C   UNL     1       2.943   7.010  18.596  0.00  0.00    +0.000 A 
ENDBRANCH  23  33
ENDBRANCH   1  25
TORSDOF 4
ENDMDL
MODEL 6
REMARK VINA RESULT:      -7.5      8.420     10.336
REMARK  Name = 
REMARK  7 active torsions:
REMARK  status: ('A' for Active; 'I' for Inactive)
REMARK    1  A    between atoms: C_1  and  C_2
REMARK    2  A    between atoms: C_7  and  C_8
REMARK    3  A    between atoms: N_10  and  C_11
REMARK    4  A    between atoms: C_14  and  C_15
REMARK    5  A    between atoms: C_21  and  N_22
REMARK    6  A    between atoms: N_22  and  C_23
REMARK    7  A    between atoms: N_22  and  C_24
REMARK                            x       y       z     vdW  Elec       q    Type
REMARK                         _______ _______ _______ _____ _____    ______ ____
ROOT
ATOM      1  C   UNL     1       1.621   8.000  20.056  0.00  0.00    +0.000 A 
ATOM      2  C   UNL     1       1.710   8.689  18.847  0.00  0.00    +0.000 A 
ATOM      3  C   UNL     1       1.170  10.030  18.693  0.00  0.00    +0.000 A 
ATOM      4  C   UNL     1       0.517  10.782  19.732  0.00  0.00    +0.000 A 
ATOM      5  C   UNL     1       0.378  10.068  20.910  0.00  0.00    +0.000 A 
ATOM      6  C   UNL     1       0.904   8.712  21.057  0.00  0.00    +0.000 A 
ENDROOT
BRANCH   4   7
ATOM      7  C   UNL     1      -0.026  12.202  19.401  0.00  0.00    +0.000 C 
ATOM      8  O   UNL     1       0.903  12.955  19.042  0.00  0.00    +0.000 OA
ATOM      9  N   UNL     1      -1.337  12.830  19.627  0.00  0.00    +0.000 N 
ATOM     10  C   UNL     1      -1.251  14.309  19.770  0.00  0.00    +0.000 C 
ATOM     11  C   UNL     1      -0.960  14.659  21.212  0.00  0.00    +0.000 C 
ATOM     12  C   UNL     1      -2.068  14.179  22.213  0.00  0.00    +0.000 C 
ATOM     13  C   UNL     1      -3.299  13.201  22.071  0.00  0.00    +0.000 C 
ATOM     14  C   UNL     1      -3.661  12.783  20.654  0.00  0.00    +0.000 A 
ATOM     15  C   UNL     1      -5.085  12.748  20.456  0.00  0.00    +0.000 A 
ATOM     16  C   UNL     1      -5.656  12.350  19.272  0.00  0.00    +0.000 A 
ATOM     17  C   UNL     1      -4.785  12.042  18.236  0.00  0.00    +0.000 A 
ATOM     18  C   UNL     1      -3.367  12.089  18.393  0.00  0.00    +0.000 A 
ATOM     19  C   UNL     1      -2.740  12.401  19.622  0.00  0.00    +0.000 A 
BRANCH  13  20
ATOM     20  N   UNL     1      -3.221  12.029  23.010  0.00  0.00    +0.000 NA
ATOM     21  C   UNL     1      -1.826  11.670  23.287  0.00  0.00    +0.000 C 
ATOM     22  C   UNL     1      -3.908  12.247  24.294  0.00  0.00    +0.000 C 
ENDBRANCH  13  20
ENDBRANCH   4   7
BRANCH   1  25
ATOM     23  C   UNL     1       2.350   5.574  19.500  0.00  0.00    +0.000 C 
ATOM     24  O   UNL     1       1.942   5.598  18.329  0.00  0.00    +0.000 OA
ATOM     25  N   UNL     1       2.190   6.667  20.359  0.00  0.00    +0.000 N 
ATOM     26  H   UNL     1       2.542   6.568  21.297  0.00  0.00    +0.000 HD
BRANCH  23  33
ATOM     27  C   UNL     1       1.467   3.176  21.657  0.00  0.00    +0.000 C 
ATOM     28  C   UNL     1       2.710   3.198  20.826  0.00  0.00    +0.000 A 
ATOM     29  C   UNL     1       3.573   2.044  21.033  0.00  0.00    +0.000 A 
ATOM     30  C   UNL     1       4.772   1.873  20.364  0.00  0.00    +0.000 A 
ATOM     31  C   UNL     1       5.142   2.849  19.463  0.00  0.00    +0.000 A 
ATOM     32  C   UNL     1       4.313   3.997  19.254  0.00  0.00    +0.000 A 
ATOM     33  C   UNL     1       3.071   4.218  19.917  0.00  0.00    +0.000 A 
ENDBRANCH  23  33
ENDBRANCH   1  25
TORSDOF 4
ENDMDL
MODEL 7
REMARK VINA RESULT:      -7.4      8.113     10.177
REMARK  Name = 
REMARK  7 active torsions:
REMARK  status: ('A' for Active; 'I' for Inactive)
REMARK    1  A    between atoms: C_1  and  C_2
REMARK    2  A    between atoms: C_7  and  C_8
REMARK    3  A    between atoms: N_10  and  C_11
REMARK    4  A    between atoms: C_14  and  C_15
REMARK    5  A    between atoms: C_21  and  N_22
REMARK    6  A    between atoms: N_22  and  C_23
REMARK    7  A    between atoms: N_22  and  C_24
REMARK                            x       y       z     vdW  Elec       q    Type
REMARK                         _______ _______ _______ _____ _____    ______ ____
ROOT
ATOM      1  C   UNL     1       1.811   8.120  20.012  0.00  0.00    +0.000 A 
ATOM      2  C   UNL     1       1.000   8.909  20.827  0.00  0.00    +0.000 A 
ATOM      3  C   UNL     1       0.482  10.190  20.374  0.00  0.00    +0.000 A 
ATOM      4  C   UNL     1       0.724  10.768  19.078  0.00  0.00    +0.000 A 
ATOM      5  C   UNL     1       1.581  10.008  18.300  0.00  0.00    +0.000 A 
ATOM      6  C   UNL     1       2.116   8.729  18.763  0.00  0.00    +0.000 A 
ENDROOT
BRANCH   4   7
ATOM      7  C   UNL     1       0.113  12.162  18.754  0.00  0.00    +0.000 C 
ATOM      8  O   UNL     1       0.980  12.918  18.269  0.00  0.00    +0.000 OA
ATOM      9  N   UNL     1      -1.181  12.770  19.095  0.00  0.00    +0.000 N 
ATOM     10  C   UNL     1      -1.118  14.256  19.172  0.00  0.00    +0.000 C 
ATOM     11  C   UNL     1      -0.683  14.670  20.560  0.00  0.00    +0.000 C 
ATOM     12  C   UNL     1      -1.665  14.208  21.692  0.00  0.00    +0.000 C 
ATOM     13  C   UNL     1      -2.880  13.199  21.721  0.00  0.00    +0.000 C 
ATOM     14  C   UNL     1      -3.380  12.717  20.368  0.00  0.00    +0.000 A 
ATOM     15  C   UNL     1      -4.816  12.644  20.326  0.00  0.00    +0.000 A 
ATOM     16  C   UNL     1      -5.500  12.186  19.227  0.00  0.00    +0.000 A 
ATOM     17  C   UNL     1      -4.737  11.855  18.115  0.00  0.00    +0.000 A 
ATOM     18  C   UNL     1      -3.312  11.937  18.117  0.00  0.00    +0.000 A 
ATOM     19  C   UNL     1      -2.565  12.312  19.258  0.00  0.00    +0.000 A 
BRANCH  13  20
ATOM     20  N   UNL     1      -2.673  12.068  22.690  0.00  0.00    +0.000 NA
ATOM     21  C   UNL     1      -1.254  11.930  23.040  0.00  0.00    +0.000 C 
ATOM     22  C   UNL     1      -3.448  12.200  23.935  0.00  0.00    +0.000 C 
ENDBRANCH  13  20
ENDBRANCH   4   7
BRANCH   1  25
ATOM     23  C   UNL     1       2.361   5.635  19.511  0.00  0.00    +0.000 C 
ATOM     24  O   UNL     1       1.844   5.630  18.384  0.00  0.00    +0.000 OA
ATOM     25  N   UNL     1       2.340   6.773  20.327  0.00  0.00    +0.000 N 
ATOM     26  H   UNL     1       2.775   6.697  21.231  0.00  0.00    +0.000 HD
BRANCH  23  33
ATOM     27  C   UNL     1       5.081   4.088  18.335  0.00  0.00    +0.000 C 
ATOM     28  C   UNL     1       4.199   3.598  19.438  0.00  0.00    +0.000 A 
ATOM     29  C   UNL     1       4.615   2.320  19.997  0.00  0.00    +0.000 A 
ATOM     30  C   UNL     1       3.932   1.692  21.024  0.00  0.00    +0.000 A 
ATOM     31  C   UNL     1       2.815   2.325  21.526  0.00  0.00    +0.000 A 
ATOM     32  C   UNL     1       2.383   3.576  20.982  0.00  0.00    +0.000 A 
ATOM     33  C   UNL     1       3.051   4.263  19.926  0.00  0.00    +0.000 A 
ENDBRANCH  23  33
ENDBRANCH   1  25
TORSDOF 4
ENDMDL
MODEL 8
REMARK VINA RESULT:      -7.4     10.069     12.590
REMARK  Name = 
REMARK  7 active torsions:
REMARK  status: ('A' for Active; 'I' for Inactive)
REMARK    1  A    between atoms: C_1  and  C_2
REMARK    2  A    between atoms: C_7  and  C_8
REMARK    3  A    between atoms: N_10  and  C_11
REMARK    4  A    between atoms: C_14  and  C_15
REMARK    5  A    between atoms: C_21  and  N_22
REMARK    6  A    between atoms: N_22  and  C_23
REMARK    7  A    between atoms: N_22  and  C_24
REMARK                            x       y       z     vdW  Elec       q    Type
REMARK                         _______ _______ _______ _____ _____    ______ ____
ROOT
ATOM      1  C   UNL     1      -0.144  10.633  20.850  0.00  0.00    +0.000 A 
ATOM      2  C   UNL     1      -0.347  10.723  22.226  0.00  0.00    +0.000 A 
ATOM      3  C   UNL     1      -1.354  11.607  22.791  0.00  0.00    +0.000 A 
ATOM      4  C   UNL     1      -2.236  12.450  22.027  0.00  0.00    +0.000 A 
ATOM      5  C   UNL     1      -1.986  12.401  20.666  0.00  0.00    +0.000 A 
ATOM      6  C   UNL     1      -0.959  11.527  20.101  0.00  0.00    +0.000 A 
ENDROOT
BRANCH   4   7
ATOM      7  C   UNL     1      -3.249  13.356  22.784  0.00  0.00    +0.000 C 
ATOM      8  O   UNL     1      -2.854  13.580  23.947  0.00  0.00    +0.000 OA
ATOM      9  N   UNL     1      -4.614  13.794  22.453  0.00  0.00    +0.000 N 
ATOM     10  C   UNL     1      -5.437  14.079  23.661  0.00  0.00    +0.000 C 
ATOM     11  C   UNL     1      -6.084  12.799  24.141  0.00  0.00    +0.000 C 
ATOM     12  C   UNL     1      -7.048  12.146  23.090  0.00  0.00    +0.000 C 
ATOM     13  C   UNL     1      -7.301  12.405  21.553  0.00  0.00    +0.000 C 
ATOM     14  C   UNL     1      -6.678  13.666  20.976  0.00  0.00    +0.000 A 
ATOM     15  C   UNL     1      -7.562  14.322  20.050  0.00  0.00    +0.000 A 
ATOM     16  C   UNL     1      -7.201  15.454  19.361  0.00  0.00    +0.000 A 
ATOM     17  C   UNL     1      -5.950  15.984  19.651  0.00  0.00    +0.000 A 
ATOM     18  C   UNL     1      -5.058  15.370  20.580  0.00  0.00    +0.000 A 
ATOM     19  C   UNL     1      -5.353  14.153  21.239  0.00  0.00    +0.000 A 
BRANCH  13  20
ATOM     20  N   UNL     1      -7.026  11.192  20.707  0.00  0.00    +0.000 NA
ATOM     21  C   UNL     1      -7.903  10.078  21.086  0.00  0.00    +0.000 C 
ATOM     22  C   UNL     1      -7.175  11.429  19.261  0.00  0.00    +0.000 C 
ENDBRANCH  13  20
ENDBRANCH   4   7
BRANCH   1  25
ATOM     23  C   UNL     1       1.108   8.396  20.456  0.00  0.00    +0.000 C 
ATOM     24  O   UNL     1       0.640   7.827  21.453  0.00  0.00    +0.000 OA
ATOM     25  N   UNL     1       0.794   9.726  20.150  0.00  0.00    +0.000 N 
ATOM     26  H   UNL     1       1.219  10.119  19.327  0.00  0.00    +0.000 HD
BRANCH  23  33
ATOM     27  C   UNL     1       2.061   5.209  20.792  0.00  0.00    +0.000 C 
ATOM     28  C   UNL     1       2.473   6.139  19.696  0.00  0.00    +0.000 A 
ATOM     29  C   UNL     1       3.380   5.540  18.728  0.00  0.00    +0.000 A 
ATOM     30  C   UNL     1       3.881   6.231  17.640  0.00  0.00    +0.000 A 
ATOM     31  C   UNL     1       3.486   7.543  17.483  0.00  0.00    +0.000 A 
ATOM     32  C   UNL     1       2.605   8.154  18.430  0.00  0.00    +0.000 A 
ATOM     33  C   UNL     1       2.062   7.485  19.566  0.00  0.00    +0.000 A 
ENDBRANCH  23  33
ENDBRANCH   1  25
TORSDOF 4
ENDMDL
MODEL 9
REMARK VINA RESULT:      -7.4      1.579      2.350
REMARK  Name = 
REMARK  7 active torsions:
REMARK  status: ('A' for Active; 'I' for Inactive)
REMARK    1  A    between atoms: C_1  and  C_2
REMARK    2  A    between atoms: C_7  and  C_8
REMARK    3  A    between atoms: N_10  and  C_11
REMARK    4  A    between atoms: C_14  and  C_15
REMARK    5  A    between atoms: C_21  and  N_22
REMARK    6  A    between atoms: N_22  and  C_23
REMARK    7  A    between atoms: N_22  and  C_24
REMARK                            x       y       z     vdW  Elec       q    Type
REMARK                         _______ _______ _______ _____ _____    ______ ____
ROOT
ATOM      1  C   UNL     1       8.292   9.480  18.019  0.00  0.00    +0.000 A 
ATOM      2  C   UNL     1       9.037   9.514  19.197  0.00  0.00    +0.000 A 
ATOM      3  C   UNL     1       9.553  10.763  19.735  0.00  0.00    +0.000 A 
ATOM      4  C   UNL     1       9.352  12.062  19.148  0.00  0.00    +0.000 A 
ATOM      5  C   UNL     1       8.665  12.011  17.947  0.00  0.00    +0.000 A 
ATOM      6  C   UNL     1       8.164  10.753  17.396  0.00  0.00    +0.000 A 
ENDROOT
BRANCH   4   7
ATOM      7  C   UNL     1       9.988  13.302  19.838  0.00  0.00    +0.000 C 
ATOM      8  O   UNL     1      11.188  13.087  20.109  0.00  0.00    +0.000 OA
ATOM      9  N   UNL     1       9.397  14.534  20.383  0.00  0.00    +0.000 N 
ATOM     10  C   UNL     1      10.206  15.123  21.485  0.00  0.00    +0.000 C 
ATOM     11  C   UNL     1       9.809  14.485  22.798  0.00  0.00    +0.000 C 
ATOM     12  C   UNL     1       8.305  14.712  23.180  0.00  0.00    +0.000 C 
ATOM     13  C   UNL     1       7.059  15.255  22.376  0.00  0.00    +0.000 C 
ATOM     14  C   UNL     1       7.360  15.906  21.035  0.00  0.00    +0.000 A 
ATOM     15  C   UNL     1       6.553  17.077  20.817  0.00  0.00    +0.000 A 
ATOM     16  C   UNL     1       6.609  17.806  19.655  0.00  0.00    +0.000 A 
ATOM     17  C   UNL     1       7.541  17.396  18.710  0.00  0.00    +0.000 A 
ATOM     18  C   UNL     1       8.371  16.252  18.905  0.00  0.00    +0.000 A 
ATOM     19  C   UNL     1       8.279  15.420  20.045  0.00  0.00    +0.000 A 
BRANCH  13  20
ATOM     20  N   UNL     1       5.943  14.252  22.287  0.00  0.00    +0.000 NA
ATOM     21  C   UNL     1       6.298  13.009  22.981  0.00  0.00    +0.000 C 
ATOM     22  C   UNL     1       4.662  14.736  22.827  0.00  0.00    +0.000 C 
ENDBRANCH  13  20
ENDBRANCH   4   7
BRANCH   1  25
ATOM     23  C   UNL     1       7.601   6.982  17.904  0.00  0.00    +0.000 C 
ATOM     24  O   UNL     1       8.179   6.657  18.952  0.00  0.00    +0.000 OA
ATOM     25  N   UNL     1       7.655   8.291  17.408  0.00  0.00    +0.000 N 
ATOM     26  H   UNL     1       7.166   8.475  16.548  0.00  0.00    +0.000 HD
BRANCH  23  33
ATOM     27  C   UNL     1       4.971   5.190  18.927  0.00  0.00    +0.000 C 
ATOM     28  C   UNL     1       5.685   5.037  17.623  0.00  0.00    +0.000 A 
ATOM     29  C   UNL     1       5.139   3.988  16.775  0.00  0.00    +0.000 A 
ATOM     30  C   UNL     1       5.657   3.684  15.528  0.00  0.00    +0.000 A 
ATOM     31  C   UNL     1       6.735   4.423  15.090  0.00  0.00    +0.000 A 
ATOM     32  C   UNL     1       7.294   5.451  15.913  0.00  0.00    +0.000 A 
ATOM     33  C   UNL     1       6.797   5.803  17.202  0.00  0.00    +0.000 A 
ENDBRANCH  23  33
ENDBRANCH   1  25
TORSDOF 4
ENDMDL
