MODEL 1
REMARK VINA RESULT:      -8.8      0.000      0.000
REMARK  Name = 
REMARK  4 active torsions:
REMARK  status: ('A' for Active; 'I' for Inactive)
REMARK    1  A    between atoms: C_2  and  C_3
REMARK    2  A    between atoms: C_2  and  C_14
REMARK    3  A    between atoms: C_4  and  C_5
REMARK    4  A    between atoms: C_15  and  C_16
REMARK                            x       y       z     vdW  Elec       q    Type
REMARK                         _______ _______ _______ _____ _____    ______ ____
ROOT
ATOM      1  C   UNL     1       5.888   5.370  17.608  0.00  0.00    +0.000 A 
ATOM      2  C   UNL     1       5.283   4.573  16.670  0.00  0.00    +0.000 A 
ATOM      3  C   UNL     1       5.852   4.498  15.281  0.00  0.00    +0.000 A 
ATOM      4  C   UNL     1       5.342   3.647  14.290  0.00  0.00    +0.000 A 
ATOM      5  C   UNL     1       5.970   3.545  13.042  0.00  0.00    +0.000 A 
ATOM      6 BR   UNL     1       5.307   2.338  11.748  0.00  0.00    +0.000 Br
ATOM      7  C   UNL     1       7.097   4.307  12.744  0.00  0.00    +0.000 A 
ATOM      8  C   UNL     1       7.592   5.187  13.700  0.00  0.00    +0.000 A 
ATOM      9  C   UNL     1       6.970   5.266  14.949  0.00  0.00    +0.000 A 
ATOM     10  N   UNL     1       7.509   6.113  15.895  0.00  0.00    +0.000 N 
ATOM     11  C   UNL     1       7.078   6.193  17.179  0.00  0.00    +0.000 A 
ATOM     12  O   UNL     1       7.721   6.932  17.919  0.00  0.00    +0.000 OA
ATOM     13  H   UNL     1       8.320   6.681  15.684  0.00  0.00    +0.000 HD
ENDROOT
BRANCH   2  14
ATOM     14  C   UNL     1       4.105   3.737  17.045  0.00  0.00    +0.000 A 
ATOM     15  C   UNL     1       2.797   4.230  16.925  0.00  0.00    +0.000 A 
ATOM     16  C   UNL     1       1.713   3.461  17.363  0.00  0.00    +0.000 A 
ATOM     17  C   UNL     1       1.928   2.195  17.913  0.00  0.00    +0.000 A 
ATOM     18  C   UNL     1       3.222   1.685  18.001  0.00  0.00    +0.000 A 
ATOM     19  C   UNL     1       4.305   2.448  17.561  0.00  0.00    +0.000 A 
ENDBRANCH   2  14
BRANCH   1  21
ATOM     20  O   UNL     1       5.785   4.611  19.914  0.00  0.00    +0.000 OA
ATOM     21  C   UNL     1       5.407   5.411  19.059  0.00  0.00    +0.000 C 
BRANCH  21  22
ATOM     22  C   UNL     1       4.465   6.470  19.504  0.00  0.00    +0.000 C 
ATOM     23  C   UNL     1       3.174   6.433  19.142  0.00  0.00    +0.000 C 
BRANCH  23  24
ATOM     24  C   UNL     1       2.306   7.418  19.665  0.00  0.00    +0.000 A 
ATOM     25  N   UNL     1       1.745   8.455  19.077  0.00  0.00    +0.000 NA
ATOM     26  C   UNL     1       1.020   9.095  20.047  0.00  0.00    +0.000 A 
ATOM     27  C   UNL     1       0.243  10.257  19.964  0.00  0.00    +0.000 A 
ATOM     28  C   UNL     1      -0.416  10.704  21.116  0.00  0.00    +0.000 A 
ATOM     29  C   UNL     1      -0.296  10.008  22.322  0.00  0.00    +0.000 A 
ATOM     30  C   UNL     1       0.483   8.851  22.423  0.00  0.00    +0.000 A 
ATOM     31  C   UNL     1       1.126   8.427  21.260  0.00  0.00    +0.000 A 
ATOM     32  N   UNL     1       1.954   7.366  20.990  0.00  0.00    +0.000 N 
ATOM     33  H   UNL     1       2.254   6.668  21.656  0.00  0.00    +0.000 HD
ENDBRANCH  23  24
ENDBRANCH  21  22
ENDBRANCH   1  21
TORSDOF 4
ENDMDL
MODEL 2
REMARK VINA RESULT:      -8.6      0.270      1.057
REMARK  Name = 
REMARK  4 active torsions:
REMARK  status: ('A' for Active; 'I' for Inactive)
REMARK    1  A    between atoms: C_2  and  C_3
REMARK    2  A    between atoms: C_2  and  C_14
REMARK    3  A    between atoms: C_4  and  C_5
REMARK    4  A    between atoms: C_15  and  C_16
REMARK                            x       y       z     vdW  Elec       q    Type
REMARK                         _______ _______ _______ _____ _____    ______ ____
ROOT
ATOM      1  C   UNL     1       5.938   5.342  17.561  0.00  0.00    +0.000 A 
ATOM      2  C   UNL     1       5.320   4.552  16.627  0.00  0.00    +0.000 A 
ATOM      3  C   UNL     1       5.876   4.477  15.232  0.00  0.00    +0.000 A 
ATOM      4  C   UNL     1       5.351   3.631  14.244  0.00  0.00    +0.000 A 
ATOM      5  C   UNL     1       5.967   3.529  12.990  0.00  0.00    +0.000 A 
ATOM      6 BR   UNL     1       5.285   2.330  11.699  0.00  0.00    +0.000 Br
ATOM      7  C   UNL     1       7.096   4.285  12.684  0.00  0.00    +0.000 A 
ATOM      8  C   UNL     1       7.606   5.159  13.637  0.00  0.00    +0.000 A 
ATOM      9  C   UNL     1       6.996   5.238  14.892  0.00  0.00    +0.000 A 
ATOM     10  N   UNL     1       7.549   6.080  15.836  0.00  0.00    +0.000 N 
ATOM     11  C   UNL     1       7.130   6.159  17.124  0.00  0.00    +0.000 A 
ATOM     12  O   UNL     1       7.784   6.891  17.859  0.00  0.00    +0.000 OA
ATOM     13  H   UNL     1       8.361   6.643  15.618  0.00  0.00    +0.000 HD
ENDROOT
BRANCH   2  14
ATOM     14  C   UNL     1       4.140   3.722  17.010  0.00  0.00    +0.000 A 
ATOM     15  C   UNL     1       2.832   4.214  16.877  0.00  0.00    +0.000 A 
ATOM     16  C   UNL     1       1.746   3.452  17.323  0.00  0.00    +0.000 A 
ATOM     17  C   UNL     1       1.959   2.196  17.893  0.00  0.00    +0.000 A 
ATOM     18  C   UNL     1       3.252   1.686  17.995  0.00  0.00    +0.000 A 
ATOM     19  C   UNL     1       4.337   2.442  17.547  0.00  0.00    +0.000 A 
ENDBRANCH   2  14
BRANCH   1  21
ATOM     20  O   UNL     1       5.891   4.611  19.878  0.00  0.00    +0.000 OA
ATOM     21  C   UNL     1       5.471   5.382  19.016  0.00  0.00    +0.000 C 
BRANCH  21  22
ATOM     22  C   UNL     1       4.489   6.407  19.458  0.00  0.00    +0.000 C 
ATOM     23  C   UNL     1       3.174   6.147  19.433  0.00  0.00    +0.000 C 
BRANCH  23  24
ATOM     24  C   UNL     1       2.291   7.125  19.944  0.00  0.00    +0.000 A 
ATOM     25  N   UNL     1       1.607   7.148  21.071  0.00  0.00    +0.000 NA
ATOM     26  C   UNL     1       0.890   8.314  21.056  0.00  0.00    +0.000 A 
ATOM     27  C   UNL     1      -0.007   8.825  22.002  0.00  0.00    +0.000 A 
ATOM     28  C   UNL     1      -0.609  10.065  21.751  0.00  0.00    +0.000 A 
ATOM     29  C   UNL     1      -0.325  10.771  20.579  0.00  0.00    +0.000 A 
ATOM     30  C   UNL     1       0.562  10.270  19.620  0.00  0.00    +0.000 A 
ATOM     31  C   UNL     1       1.149   9.035  19.898  0.00  0.00    +0.000 A 
ATOM     32  N   UNL     1       2.040   8.254  19.206  0.00  0.00    +0.000 N 
ATOM     33  H   UNL     1       2.441   8.473  18.305  0.00  0.00    +0.000 HD
ENDBRANCH  23  24
ENDBRANCH  21  22
ENDBRANCH   1  21
TORSDOF 4
ENDMDL
MODEL 3
REMARK VINA RESULT:      -8.1      5.972     11.612
REMARK  Name = 
REMARK  4 active torsions:
REMARK  status: ('A' for Active; 'I' for Inactive)
REMARK    1  A    between atoms: C_2  and  C_3
REMARK    2  A    between atoms: C_2  and  C_14
REMARK    3  A    between atoms: C_4  and  C_5
REMARK    4  A    between atoms: C_15  and  C_16
REMARK                            x       y       z     vdW  Elec       q    Type
REMARK                         _______ _______ _______ _____ _____    ______ ____
ROOT
ATOM      1  C   UNL     1      -2.992  11.934  18.629  0.00  0.00    +0.000 A 
ATOM      2  C   UNL     1      -3.463  12.397  19.831  0.00  0.00    +0.000 A 
ATOM      3  C   UNL     1      -4.927  12.279  20.149  0.00  0.00    +0.000 A 
ATOM      4  C   UNL     1      -5.474  12.654  21.386  0.00  0.00    +0.000 A 
ATOM      5  C   UNL     1      -6.829  12.433  21.664  0.00  0.00    +0.000 A 
ATOM      6 BR   UNL     1      -7.528  12.879  23.362  0.00  0.00    +0.000 Br
ATOM      7  C   UNL     1      -7.672  11.863  20.713  0.00  0.00    +0.000 A 
ATOM      8  C   UNL     1      -7.156  11.524  19.467  0.00  0.00    +0.000 A 
ATOM      9  C   UNL     1      -5.799  11.730  19.206  0.00  0.00    +0.000 A 
ATOM     10  N   UNL     1      -5.303  11.342  17.978  0.00  0.00    +0.000 N 
ATOM     11  C   UNL     1      -3.988  11.374  17.644  0.00  0.00    +0.000 A 
ATOM     12  O   UNL     1      -3.701  10.911  16.545  0.00  0.00    +0.000 OA
ATOM     13  H   UNL     1      -5.910  10.940  17.276  0.00  0.00    +0.000 HD
ENDROOT
BRANCH   2  14
ATOM     14  C   UNL     1      -2.518  12.957  20.841  0.00  0.00    +0.000 A 
ATOM     15  C   UNL     1      -2.242  14.332  20.894  0.00  0.00    +0.000 A 
ATOM     16  C   UNL     1      -1.288  14.823  21.792  0.00  0.00    +0.000 A 
ATOM     17  C   UNL     1      -0.613  13.949  22.646  0.00  0.00    +0.000 A 
ATOM     18  C   UNL     1      -0.909  12.586  22.624  0.00  0.00    +0.000 A 
ATOM     19  C   UNL     1      -1.864  12.094  21.732  0.00  0.00    +0.000 A 
ENDBRANCH   2  14
BRANCH   1  21
ATOM     20  O   UNL     1      -0.890  12.963  17.973  0.00  0.00    +0.000 OA
ATOM     21  C   UNL     1      -1.501  11.944  18.293  0.00  0.00    +0.000 C 
BRANCH  21  22
ATOM     22  C   UNL     1      -0.709  10.689  18.376  0.00  0.00    +0.000 C 
ATOM     23  C   UNL     1       0.618  10.730  18.567  0.00  0.00    +0.000 C 
BRANCH  23  24
ATOM     24  C   UNL     1       1.308   9.506  18.724  0.00  0.00    +0.000 A 
ATOM     25  N   UNL     1       1.263   8.624  19.702  0.00  0.00    +0.000 NA
ATOM     26  C   UNL     1       2.149   7.636  19.364  0.00  0.00    +0.000 A 
ATOM     27  C   UNL     1       2.498   6.471  20.056  0.00  0.00    +0.000 A 
ATOM     28  C   UNL     1       3.437   5.606  19.479  0.00  0.00    +0.000 A 
ATOM     29  C   UNL     1       4.016   5.904  18.243  0.00  0.00    +0.000 A 
ATOM     30  C   UNL     1       3.684   7.069  17.542  0.00  0.00    +0.000 A 
ATOM     31  C   UNL     1       2.745   7.910  18.139  0.00  0.00    +0.000 A 
ATOM     32  N   UNL     1       2.196   9.108  17.756  0.00  0.00    +0.000 N 
ATOM     33  H   UNL     1       2.411   9.611  16.907  0.00  0.00    +0.000 HD
ENDBRANCH  23  24
ENDBRANCH  21  22
ENDBRANCH   1  21
TORSDOF 4
ENDMDL
MODEL 4
REMARK VINA RESULT:      -8.1      5.622     11.127
REMARK  Name = 
REMARK  4 active torsions:
REMARK  status: ('A' for Active; 'I' for Inactive)
REMARK    1  A    between atoms: C_2  and  C_3
REMARK    2  A    between atoms: C_2  and  C_14
REMARK    3  A    between atoms: C_4  and  C_5
REMARK    4  A    between atoms: C_15  and  C_16
REMARK                            x       y       z     vdW  Elec       q    Type
REMARK                         _______ _______ _______ _____ _____    ______ ____
ROOT
ATOM      1  C   UNL     1      -2.121  11.668  18.461  0.00  0.00    +0.000 A 
ATOM      2  C   UNL     1      -2.873  12.164  19.495  0.00  0.00    +0.000 A 
ATOM      3  C   UNL     1      -4.373  12.170  19.386  0.00  0.00    +0.000 A 
ATOM      4  C   UNL     1      -5.214  12.585  20.430  0.00  0.00    +0.000 A 
ATOM      5  C   UNL     1      -6.606  12.479  20.311  0.00  0.00    +0.000 A 
ATOM      6 BR   UNL     1      -7.716  12.975  21.756  0.00  0.00    +0.000 Br
ATOM      7  C   UNL     1      -7.189  11.987  19.145  0.00  0.00    +0.000 A 
ATOM      8  C   UNL     1      -6.372  11.610  18.086  0.00  0.00    +0.000 A 
ATOM      9  C   UNL     1      -4.984  11.701  18.222  0.00  0.00    +0.000 A 
ATOM     10  N   UNL     1      -4.195  11.277  17.172  0.00  0.00    +0.000 N 
ATOM     11  C   UNL     1      -2.841  11.198  17.221  0.00  0.00    +0.000 A 
ATOM     12  O   UNL     1      -2.294  10.718  16.234  0.00  0.00    +0.000 OA
ATOM     13  H   UNL     1      -4.610  10.932  16.316  0.00  0.00    +0.000 HD
ENDROOT
BRANCH   2  14
ATOM     14  C   UNL     1      -2.210  12.638  20.745  0.00  0.00    +0.000 A 
ATOM     15  C   UNL     1      -1.851  11.741  21.762  0.00  0.00    +0.000 A 
ATOM     16  C   UNL     1      -1.310  12.218  22.961  0.00  0.00    +0.000 A 
ATOM     17  C   UNL     1      -1.114  13.587  23.146  0.00  0.00    +0.000 A 
ATOM     18  C   UNL     1      -1.435  14.481  22.126  0.00  0.00    +0.000 A 
ATOM     19  C   UNL     1      -1.971  14.009  20.927  0.00  0.00    +0.000 A 
ENDBRANCH   2  14
BRANCH   1  21
ATOM     20  O   UNL     1       0.150  12.527  18.548  0.00  0.00    +0.000 OA
ATOM     21  C   UNL     1      -0.600  11.552  18.557  0.00  0.00    +0.000 C 
BRANCH  21  22
ATOM     22  C   UNL     1       0.039  10.218  18.702  0.00  0.00    +0.000 C 
ATOM     23  C   UNL     1       1.287  10.007  18.259  0.00  0.00    +0.000 C 
BRANCH  23  24
ATOM     24  C   UNL     1       1.876   8.745  18.500  0.00  0.00    +0.000 A 
ATOM     25  N   UNL     1       1.748   7.928  19.526  0.00  0.00    +0.000 NA
ATOM     26  C   UNL     1       2.559   6.857  19.263  0.00  0.00    +0.000 A 
ATOM     27  C   UNL     1       2.804   5.710  20.029  0.00  0.00    +0.000 A 
ATOM     28  C   UNL     1       3.681   4.743  19.521  0.00  0.00    +0.000 A 
ATOM     29  C   UNL     1       4.301   4.922  18.281  0.00  0.00    +0.000 A 
ATOM     30  C   UNL     1       4.073   6.066  17.508  0.00  0.00    +0.000 A 
ATOM     31  C   UNL     1       3.193   7.011  18.036  0.00  0.00    +0.000 A 
ATOM     32  N   UNL     1       2.745   8.223  17.574  0.00  0.00    +0.000 N 
ATOM     33  H   UNL     1       3.012   8.656  16.702  0.00  0.00    +0.000 HD
ENDBRANCH  23  24
ENDBRANCH  21  22
ENDBRANCH   1  21
TORSDOF 4
ENDMDL
MODEL 5
REMARK VINA RESULT:      -8.0      5.645     11.112
REMARK  Name = 
REMARK  4 active torsions:
REMARK  status: ('A' for Active; 'I' for Inactive)
REMARK    1  A    between atoms: C_2  and  C_3
REMARK    2  A    between atoms: C_2  and  C_14
REMARK    3  A    between atoms: C_4  and  C_5
REMARK    4  A    between atoms: C_15  and  C_16
REMARK                            x       y       z     vdW  Elec       q    Type
REMARK                         _______ _______ _______ _____ _____    ______ ____
ROOT
ATOM      1  C   UNL     1      -2.140  11.803  18.499  0.00  0.00    +0.000 A 
ATOM      2  C   UNL     1      -2.912  12.229  19.549  0.00  0.00    +0.000 A 
ATOM      3  C   UNL     1      -4.410  12.137  19.454  0.00  0.00    +0.000 A 
ATOM      4  C   UNL     1      -5.266  12.475  20.513  0.00  0.00    +0.000 A 
ATOM      5  C   UNL     1      -6.649  12.280  20.404  0.00  0.00    +0.000 A 
ATOM      6 BR   UNL     1      -7.775  12.674  21.869  0.00  0.00    +0.000 Br
ATOM      7  C   UNL     1      -7.210  11.774  19.234  0.00  0.00    +0.000 A 
ATOM      8  C   UNL     1      -6.381  11.472  18.160  0.00  0.00    +0.000 A 
ATOM      9  C   UNL     1      -5.001  11.652  18.286  0.00  0.00    +0.000 A 
ATOM     10  N   UNL     1      -4.197  11.301  17.221  0.00  0.00    +0.000 N 
ATOM     11  C   UNL     1      -2.840  11.311  17.256  0.00  0.00    +0.000 A 
ATOM     12  O   UNL     1      -2.272  10.887  16.255  0.00  0.00    +0.000 OA
ATOM     13  H   UNL     1      -4.596  10.946  16.362  0.00  0.00    +0.000 HD
ENDROOT
BRANCH   2  14
ATOM     14  C   UNL     1      -2.269  12.721  20.802  0.00  0.00    +0.000 A 
ATOM     15  C   UNL     1      -1.853  11.830  21.803  0.00  0.00    +0.000 A 
ATOM     16  C   UNL     1      -1.332  12.320  23.007  0.00  0.00    +0.000 A 
ATOM     17  C   UNL     1      -1.214  13.695  23.212  0.00  0.00    +0.000 A 
ATOM     18  C   UNL     1      -1.591  14.585  22.207  0.00  0.00    +0.000 A 
ATOM     19  C   UNL     1      -2.108  14.100  21.003  0.00  0.00    +0.000 A 
ENDBRANCH   2  14
BRANCH   1  21
ATOM     20  O   UNL     1       0.072  12.807  18.567  0.00  0.00    +0.000 OA
ATOM     21  C   UNL     1      -0.613  11.786  18.579  0.00  0.00    +0.000 C 
BRANCH  21  22
ATOM     22  C   UNL     1       0.113  10.496  18.712  0.00  0.00    +0.000 C 
ATOM     23  C   UNL     1       1.139  10.203  17.900  0.00  0.00    +0.000 C 
BRANCH  23  24
ATOM     24  C   UNL     1       1.847   9.001  18.126  0.00  0.00    +0.000 A 
ATOM     25  N   UNL     1       2.756   8.397  17.388  0.00  0.00    +0.000 NA
ATOM     26  C   UNL     1       3.095   7.254  18.061  0.00  0.00    +0.000 A 
ATOM     27  C   UNL     1       4.004   6.247  17.715  0.00  0.00    +0.000 A 
ATOM     28  C   UNL     1       4.177   5.172  18.596  0.00  0.00    +0.000 A 
ATOM     29  C   UNL     1       3.455   5.104  19.790  0.00  0.00    +0.000 A 
ATOM     30  C   UNL     1       2.537   6.098  20.146  0.00  0.00    +0.000 A 
ATOM     31  C   UNL     1       2.386   7.158  19.252  0.00  0.00    +0.000 A 
ATOM     32  N   UNL     1       1.596   8.280  19.267  0.00  0.00    +0.000 N 
ATOM     33  H   UNL     1       0.940   8.530  19.993  0.00  0.00    +0.000 HD
ENDBRANCH  23  24
ENDBRANCH  21  22
ENDBRANCH   1  21
TORSDOF 4
ENDMDL
MODEL 6
REMARK VINA RESULT:      -7.9      7.560     10.586
REMARK  Name = 
REMARK  4 active torsions:
REMARK  status: ('A' for Active; 'I' for Inactive)
REMARK    1  A    between atoms: C_2  and  C_3
REMARK    2  A    between atoms: C_2  and  C_14
REMARK    3  A    between atoms: C_4  and  C_5
REMARK    4  A    between atoms: C_15  and  C_16
REMARK                            x       y       z     vdW  Elec       q    Type
REMARK                         _______ _______ _______ _____ _____    ______ ____
ROOT
ATOM      1  C   UNL     1       9.510  13.020  19.563  0.00  0.00    +0.000 A 
ATOM      2  C   UNL     1       8.730  13.725  20.443  0.00  0.00    +0.000 A 
ATOM      3  C   UNL     1       8.097  15.016  20.004  0.00  0.00    +0.000 A 
ATOM      4  C   UNL     1       7.223  15.754  20.815  0.00  0.00    +0.000 A 
ATOM      5  C   UNL     1       6.585  16.900  20.322  0.00  0.00    +0.000 A 
ATOM      6 BR   UNL     1       5.356  17.837  21.408  0.00  0.00    +0.000 Br
ATOM      7  C   UNL     1       6.826  17.351  19.026  0.00  0.00    +0.000 A 
ATOM      8  C   UNL     1       7.722  16.655  18.223  0.00  0.00    +0.000 A 
ATOM      9  C   UNL     1       8.337  15.502  18.717  0.00  0.00    +0.000 A 
ATOM     10  N   UNL     1       9.187  14.805  17.883  0.00  0.00    +0.000 N 
ATOM     11  C   UNL     1       9.750  13.610  18.195  0.00  0.00    +0.000 A 
ATOM     12  O   UNL     1      10.411  13.078  17.309  0.00  0.00    +0.000 OA
ATOM     13  H   UNL     1       9.379  15.132  16.945  0.00  0.00    +0.000 HD
ENDROOT
BRANCH   2  14
ATOM     14  C   UNL     1       8.460  13.182  21.807  0.00  0.00    +0.000 A 
ATOM     15  C   UNL     1       7.449  12.234  22.024  0.00  0.00    +0.000 A 
ATOM     16  C   UNL     1       7.156  11.805  23.324  0.00  0.00    +0.000 A 
ATOM     17  C   UNL     1       7.875  12.311  24.408  0.00  0.00    +0.000 A 
ATOM     18  C   UNL     1       8.905  13.226  24.196  0.00  0.00    +0.000 A 
ATOM     19  C   UNL     1       9.202  13.653  22.900  0.00  0.00    +0.000 A 
ENDBRANCH   2  14
BRANCH   1  21
ATOM     20  O   UNL     1      11.184  11.522  20.492  0.00  0.00    +0.000 OA
ATOM     21  C   UNL     1      10.100  11.657  19.926  0.00  0.00    +0.000 C 
BRANCH  21  22
ATOM     22  C   UNL     1       9.344  10.413  19.627  0.00  0.00    +0.000 C 
ATOM     23  C   UNL     1       8.976  10.123  18.370  0.00  0.00    +0.000 C 
BRANCH  23  24
ATOM     24  C   UNL     1       8.335   8.886  18.131  0.00  0.00    +0.000 A 
ATOM     25  N   UNL     1       7.432   8.556  17.229  0.00  0.00    +0.000 NA
ATOM     26  C   UNL     1       7.132   7.239  17.456  0.00  0.00    +0.000 A 
ATOM     27  C   UNL     1       6.227   6.400  16.794  0.00  0.00    +0.000 A 
ATOM     28  C   UNL     1       6.115   5.071  17.220  0.00  0.00    +0.000 A 
ATOM     29  C   UNL     1       6.884   4.595  18.286  0.00  0.00    +0.000 A 
ATOM     30  C   UNL     1       7.786   5.423  18.963  0.00  0.00    +0.000 A 
ATOM     31  C   UNL     1       7.880   6.741  18.516  0.00  0.00    +0.000 A 
ATOM     32  N   UNL     1       8.633   7.811  18.930  0.00  0.00    +0.000 N 
ATOM     33  H   UNL     1       9.293   7.806  19.695  0.00  0.00    +0.000 HD
ENDBRANCH  23  24
ENDBRANCH  21  22
ENDBRANCH   1  21
TORSDOF 4
ENDMDL
MODEL 7
REMARK VINA RESULT:      -7.8      5.245     10.089
REMARK  Name = 
REMARK  4 active torsions:
REMARK  status: ('A' for Active; 'I' for Inactive)
REMARK    1  A    between atoms: C_2  and  C_3
REMARK    2  A    between atoms: C_2  and  C_14
REMARK    3  A    between atoms: C_4  and  C_5
REMARK    4  A    between atoms: C_15  and  C_16
REMARK                            x       y       z     vdW  Elec       q    Type
REMARK                         _______ _______ _______ _____ _____    ______ ____
ROOT
ATOM      1  C   UNL     1      -0.193  11.452  19.833  0.00  0.00    +0.000 A 
ATOM      2  C   UNL     1      -1.515  11.626  19.513  0.00  0.00    +0.000 A 
ATOM      3  C   UNL     1      -2.393  12.455  20.407  0.00  0.00    +0.000 A 
ATOM      4  C   UNL     1      -3.732  12.747  20.107  0.00  0.00    +0.000 A 
ATOM      5  C   UNL     1      -4.478  13.605  20.927  0.00  0.00    +0.000 A 
ATOM      6 BR   UNL     1      -6.257  14.041  20.464  0.00  0.00    +0.000 Br
ATOM      7  C   UNL     1      -3.919  14.165  22.073  0.00  0.00    +0.000 A 
ATOM      8  C   UNL     1      -2.606  13.854  22.407  0.00  0.00    +0.000 A 
ATOM      9  C   UNL     1      -1.864  13.013  21.573  0.00  0.00    +0.000 A 
ATOM     10  N   UNL     1      -0.549  12.758  21.904  0.00  0.00    +0.000 N 
ATOM     11  C   UNL     1       0.311  12.061  21.119  0.00  0.00    +0.000 A 
ATOM     12  O   UNL     1       1.471  11.998  21.515  0.00  0.00    +0.000 OA
ATOM     13  H   UNL     1      -0.138  13.148  22.741  0.00  0.00    +0.000 HD
ENDROOT
BRANCH   2  14
ATOM     14  C   UNL     1      -2.062  11.047  18.251  0.00  0.00    +0.000 A 
ATOM     15  C   UNL     1      -2.009  11.758  17.042  0.00  0.00    +0.000 A 
ATOM     16  C   UNL     1      -2.606  11.232  15.891  0.00  0.00    +0.000 A 
ATOM     17  C   UNL     1      -3.248   9.994  15.937  0.00  0.00    +0.000 A 
ATOM     18  C   UNL     1      -3.274   9.266  17.126  0.00  0.00    +0.000 A 
ATOM     19  C   UNL     1      -2.676   9.785  18.276  0.00  0.00    +0.000 A 
ENDBRANCH   2  14
BRANCH   1  21
ATOM     20  O   UNL     1       1.459  11.256  18.062  0.00  0.00    +0.000 OA
ATOM     21  C   UNL     1       0.766  10.699  18.912  0.00  0.00    +0.000 C 
BRANCH  21  22
ATOM     22  C   UNL     1       0.920   9.226  19.038  0.00  0.00    +0.000 C 
ATOM     23  C   UNL     1       2.090   8.635  18.756  0.00  0.00    +0.000 C 
BRANCH  23  24
ATOM     24  C   UNL     1       2.205   7.244  18.976  0.00  0.00    +0.000 A 
ATOM     25  N   UNL     1       2.358   6.256  18.117  0.00  0.00    +0.000 NA
ATOM     26  C   UNL     1       2.386   5.106  18.861  0.00  0.00    +0.000 A 
ATOM     27  C   UNL     1       2.516   3.775  18.447  0.00  0.00    +0.000 A 
ATOM     28  C   UNL     1       2.527   2.770  19.422  0.00  0.00    +0.000 A 
ATOM     29  C   UNL     1       2.405   3.090  20.777  0.00  0.00    +0.000 A 
ATOM     30  C   UNL     1       2.266   4.414  21.206  0.00  0.00    +0.000 A 
ATOM     31  C   UNL     1       2.261   5.394  20.214  0.00  0.00    +0.000 A 
ATOM     32  N   UNL     1       2.143   6.761  20.259  0.00  0.00    +0.000 N 
ATOM     33  H   UNL     1       2.028   7.315  21.096  0.00  0.00    +0.000 HD
ENDBRANCH  23  24
ENDBRANCH  21  22
ENDBRANCH   1  21
TORSDOF 4
ENDMDL
MODEL 8
REMARK VINA RESULT:      -7.5      4.920     10.111
REMARK  Name = 
REMARK  4 active torsions:
REMARK  status: ('A' for Active; 'I' for Inactive)
REMARK    1  A    between atoms: C_2  and  C_3
REMARK    2  A    between atoms: C_2  and  C_14
REMARK    3  A    between atoms: C_4  and  C_5
REMARK    4  A    between atoms: C_15  and  C_16
REMARK                            x       y       z     vdW  Elec       q    Type
REMARK                         _______ _______ _______ _____ _____    ______ ____
ROOT
ATOM      1  C   UNL     1      -0.118  11.366  19.757  0.00  0.00    +0.000 A 
ATOM      2  C   UNL     1      -1.446  11.535  19.460  0.00  0.00    +0.000 A 
ATOM      3  C   UNL     1      -2.312  12.355  20.375  0.00  0.00    +0.000 A 
ATOM      4  C   UNL     1      -3.657  12.643  20.101  0.00  0.00    +0.000 A 
ATOM      5  C   UNL     1      -4.392  13.492  20.939  0.00  0.00    +0.000 A 
ATOM      6 BR   UNL     1      -6.181  13.923  20.511  0.00  0.00    +0.000 Br
ATOM      7  C   UNL     1      -3.815  14.047  22.079  0.00  0.00    +0.000 A 
ATOM      8  C   UNL     1      -2.495  13.739  22.388  0.00  0.00    +0.000 A 
ATOM      9  C   UNL     1      -1.765  12.908  21.536  0.00  0.00    +0.000 A 
ATOM     10  N   UNL     1      -0.443  12.655  21.841  0.00  0.00    +0.000 N 
ATOM     11  C   UNL     1       0.407  11.968  21.037  0.00  0.00    +0.000 A 
ATOM     12  O   UNL     1       1.573  11.907  21.413  0.00  0.00    +0.000 OA
ATOM     13  H   UNL     1      -0.019  13.043  22.674  0.00  0.00    +0.000 HD
ENDROOT
BRANCH   2  14
ATOM     14  C   UNL     1      -2.013  10.963  18.204  0.00  0.00    +0.000 A 
ATOM     15  C   UNL     1      -1.934  11.658  16.988  0.00  0.00    +0.000 A 
ATOM     16  C   UNL     1      -2.549  11.141  15.842  0.00  0.00    +0.000 A 
ATOM     17  C   UNL     1      -3.235   9.927  15.902  0.00  0.00    +0.000 A 
ATOM     18  C   UNL     1      -3.286   9.213  17.098  0.00  0.00    +0.000 A 
ATOM     19  C   UNL     1      -2.670   9.724  18.242  0.00  0.00    +0.000 A 
ENDBRANCH   2  14
BRANCH   1  21
ATOM     20  O   UNL     1       1.453  11.179  17.912  0.00  0.00    +0.000 OA
ATOM     21  C   UNL     1       0.828  10.622  18.813  0.00  0.00    +0.000 C 
BRANCH  21  22
ATOM     22  C   UNL     1       1.054   9.163  18.980  0.00  0.00    +0.000 C 
ATOM     23  C   UNL     1       2.165   8.585  18.502  0.00  0.00    +0.000 C 
BRANCH  23  24
ATOM     24  C   UNL     1       2.369   7.211  18.764  0.00  0.00    +0.000 A 
ATOM     25  N   UNL     1       2.202   6.523  19.876  0.00  0.00    +0.000 NA
ATOM     26  C   UNL     1       2.569   5.237  19.586  0.00  0.00    +0.000 A 
ATOM     27  C   UNL     1       2.595   4.106  20.411  0.00  0.00    +0.000 A 
ATOM     28  C   UNL     1       3.007   2.886  19.859  0.00  0.00    +0.000 A 
ATOM     29  C   UNL     1       3.390   2.802  18.518  0.00  0.00    +0.000 A 
ATOM     30  C   UNL     1       3.378   3.925  17.683  0.00  0.00    +0.000 A 
ATOM     31  C   UNL     1       2.960   5.126  18.258  0.00  0.00    +0.000 A 
ATOM     32  N   UNL     1       2.828   6.397  17.759  0.00  0.00    +0.000 N 
ATOM     33  H   UNL     1       3.036   6.684  16.813  0.00  0.00    +0.000 HD
ENDBRANCH  23  24
ENDBRANCH  21  22
ENDBRANCH   1  21
TORSDOF 4
ENDMDL
MODEL 9
REMARK VINA RESULT:      -7.5      5.155     10.044
REMARK  Name = 
REMARK  4 active torsions:
REMARK  status: ('A' for Active; 'I' for Inactive)
REMARK    1  A    between atoms: C_2  and  C_3
REMARK    2  A    between atoms: C_2  and  C_14
REMARK    3  A    between atoms: C_4  and  C_5
REMARK    4  A    between atoms: C_15  and  C_16
REMARK                            x       y       z     vdW  Elec       q    Type
REMARK                         _______ _______ _______ _____ _____    ______ ____
ROOT
ATOM      1  C   UNL     1      -0.222  10.927  19.957  0.00  0.00    +0.000 A 
ATOM      2  C   UNL     1      -1.504  11.296  19.643  0.00  0.00    +0.000 A 
ATOM      3  C   UNL     1      -2.287  12.150  20.602  0.00  0.00    +0.000 A 
ATOM      4  C   UNL     1      -3.572  12.637  20.319  0.00  0.00    +0.000 A 
ATOM      5  C   UNL     1      -4.218  13.507  21.207  0.00  0.00    +0.000 A 
ATOM      6 BR   UNL     1      -5.918  14.208  20.772  0.00  0.00    +0.000 Br
ATOM      7  C   UNL     1      -3.613  13.888  22.403  0.00  0.00    +0.000 A 
ATOM      8  C   UNL     1      -2.357  13.383  22.718  0.00  0.00    +0.000 A 
ATOM      9  C   UNL     1      -1.713  12.531  21.817  0.00  0.00    +0.000 A 
ATOM     10  N   UNL     1      -0.448  12.080  22.133  0.00  0.00    +0.000 N 
ATOM     11  C   UNL     1       0.332  11.351  21.296  0.00  0.00    +0.000 A 
ATOM     12  O   UNL     1       1.466  11.104  21.694  0.00  0.00    +0.000 OA
ATOM     13  H   UNL     1      -0.006  12.340  23.006  0.00  0.00    +0.000 HD
ENDROOT
BRANCH   2  14
ATOM     14  C   UNL     1      -2.097  10.906  18.331  0.00  0.00    +0.000 A 
ATOM     15  C   UNL     1      -2.702   9.653  18.150  0.00  0.00    +0.000 A 
ATOM     16  C   UNL     1      -3.172   9.275  16.888  0.00  0.00    +0.000 A 
ATOM     17  C   UNL     1      -3.052  10.147  15.805  0.00  0.00    +0.000 A 
ATOM     18  C   UNL     1      -2.485  11.408  15.985  0.00  0.00    +0.000 A 
ATOM     19  C   UNL     1      -2.018  11.790  17.244  0.00  0.00    +0.000 A 
ENDBRANCH   2  14
BRANCH   1  21
ATOM     20  O   UNL     1       1.114  10.629  17.950  0.00  0.00    +0.000 OA
ATOM     21  C   UNL     1       0.650  10.140  18.979  0.00  0.00    +0.000 C 
BRANCH  21  22
ATOM     22  C   UNL     1       1.004   8.725  19.265  0.00  0.00    +0.000 C 
ATOM     23  C   UNL     1       2.154   8.204  18.815  0.00  0.00    +0.000 C 
BRANCH  23  24
ATOM     24  C   UNL     1       2.479   6.880  19.189  0.00  0.00    +0.000 A 
ATOM     25  N   UNL     1       3.283   6.007  18.617  0.00  0.00    +0.000 NA
ATOM     26  C   UNL     1       3.211   4.869  19.375  0.00  0.00    +0.000 A 
ATOM     27  C   UNL     1       3.855   3.638  19.206  0.00  0.00    +0.000 A 
ATOM     28  C   UNL     1       3.615   2.624  20.143  0.00  0.00    +0.000 A 
ATOM     29  C   UNL     1       2.749   2.837  21.219  0.00  0.00    +0.000 A 
ATOM     30  C   UNL     1       2.092   4.059  21.397  0.00  0.00    +0.000 A 
ATOM     31  C   UNL     1       2.350   5.051  20.451  0.00  0.00    +0.000 A 
ATOM     32  N   UNL     1       1.895   6.337  20.306  0.00  0.00    +0.000 N 
ATOM     33  H   UNL     1       1.239   6.803  20.917  0.00  0.00    +0.000 HD
ENDBRANCH  23  24
ENDBRANCH  21  22
ENDBRANCH   1  21
TORSDOF 4
ENDMDL
