MODEL 1
REMARK VINA RESULT:      -8.2      0.000      0.000
REMARK  Name = 
REMARK  7 active torsions:
REMARK  status: ('A' for Active; 'I' for Inactive)
REMARK    1  A    between atoms: N_1  and  CA_2
REMARK    2  A    between atoms: CA_2  and  C_3
REMARK    3  A    between atoms: CA_2  and  C_5
REMARK    4  A    between atoms: C_3  and  O_4
REMARK    5  A    between atoms: N_9  and  C_10
REMARK    6  A    between atoms: C_13  and  C_14
REMARK    7  A    between atoms: C_14  and  C_16
REMARK                            x       y       z     vdW  Elec       q    Type
REMARK                         _______ _______ _______ _____ _____    ______ ____
ROOT
ATOM      1  C   UNL     1       6.379   3.594  12.553  0.00  0.00    +0.000 A 
ATOM      2  C   UNL     1       7.298   4.321  11.824  0.00  0.00    +0.000 A 
ATOM      3  S   UNL     1       8.097   5.449  12.839  0.00  0.00    +0.000 S 
ATOM      4  C   UNL     1       7.167   4.909  14.180  0.00  0.00    +0.000 A 
ATOM      5  N   UNL     1       7.340   5.430  15.421  0.00  0.00    +0.000 N 
ATOM      6  N   UNL     1       6.297   3.968  13.889  0.00  0.00    +0.000 NA
ATOM      7  H   UNL     1       8.139   6.022  15.590  0.00  0.00    +0.000 HD
ENDROOT
BRANCH   5   8
ATOM      8  C   UNL     1       6.301   5.582  16.356  0.00  0.00    +0.000 A 
ATOM      9  C   UNL     1       5.319   6.563  16.146  0.00  0.00    +0.000 A 
ATOM     10  C   UNL     1       4.263   6.721  17.052  0.00  0.00    +0.000 A 
ATOM     11  C   UNL     1       4.168   5.902  18.179  0.00  0.00    +0.000 A 
ATOM     12  C   UNL     1       5.150   4.931  18.405  0.00  0.00    +0.000 A 
ATOM     13  C   UNL     1       6.211   4.794  17.512  0.00  0.00    +0.000 A 
BRANCH  11  14
ATOM     14  C   UNL     1       2.971   6.026  19.056  0.00  0.00    +0.000 C 
ATOM     15  O   UNL     1       2.508   7.136  19.286  0.00  0.00    +0.000 OA
BRANCH  14  16
ATOM     16  C   UNL     1       2.304   4.829  19.636  0.00  0.00    +0.000 A 
ATOM     17  C   UNL     1       2.493   4.559  20.995  0.00  0.00    +0.000 A 
ATOM     18  C   UNL     1       1.877   3.449  21.577  0.00  0.00    +0.000 A 
ATOM     19  C   UNL     1       1.080   2.608  20.797  0.00  0.00    +0.000 A 
ATOM     20  C   UNL     1       0.907   2.866  19.440  0.00  0.00    +0.000 A 
ATOM     21  C   UNL     1       1.529   3.969  18.854  0.00  0.00    +0.000 A 
ENDBRANCH  14  16
ENDBRANCH  11  14
ENDBRANCH   5   8
BRANCH   1  22
ATOM     22  CA  UNL     1       5.474   2.504  12.052  0.00  0.00    +0.000 C 
BRANCH  22  23
ATOM     23  N   UNL     1       4.317   3.118  11.373  0.00  0.00    +0.000 NA
ATOM     24  H1  UNL     1       4.397   2.922  10.376  0.00  0.00    +0.000 HD
ATOM     25  H2  UNL     1       4.443   4.134  11.455  0.00  0.00    +0.000 HD
ENDBRANCH  22  23
BRANCH  22  26
ATOM     26  C   UNL     1       6.210   1.545  11.094  0.00  0.00    +0.000 C 
BRANCH  26  27
ATOM     27  O   UNL     1       6.032   0.183  11.496  0.00  0.00    +0.000 OA
ATOM     28  H   UNL     1       5.660  -0.300  10.736  0.00  0.00    +0.000 HD
ENDBRANCH  26  27
ENDBRANCH  22  26
ENDBRANCH   1  22
TORSDOF 7
ENDMDL
MODEL 2
REMARK VINA RESULT:      -8.1      0.196      1.405
REMARK  Name = 
REMARK  7 active torsions:
REMARK  status: ('A' for Active; 'I' for Inactive)
REMARK    1  A    between atoms: N_1  and  CA_2
REMARK    2  A    between atoms: CA_2  and  C_3
REMARK    3  A    between atoms: CA_2  and  C_5
REMARK    4  A    between atoms: C_3  and  O_4
REMARK    5  A    between atoms: N_9  and  C_10
REMARK    6  A    between atoms: C_13  and  C_14
REMARK    7  A    between atoms: C_14  and  C_16
REMARK                            x       y       z     vdW  Elec       q    Type
REMARK                         _______ _______ _______ _____ _____    ______ ____
ROOT
ATOM      1  C   UNL     1       6.390   3.505  12.479  0.00  0.00    +0.000 A 
ATOM      2  C   UNL     1       7.320   4.243  11.775  0.00  0.00    +0.000 A 
ATOM      3  S   UNL     1       8.052   5.404  12.803  0.00  0.00    +0.000 S 
ATOM      4  C   UNL     1       7.083   4.861  14.116  0.00  0.00    +0.000 A 
ATOM      5  N   UNL     1       7.195   5.404  15.354  0.00  0.00    +0.000 N 
ATOM      6  N   UNL     1       6.247   3.896  13.805  0.00  0.00    +0.000 NA
ATOM      7  H   UNL     1       7.974   6.017  15.545  0.00  0.00    +0.000 HD
ENDROOT
BRANCH   5   8
ATOM      8  C   UNL     1       6.118   5.546  16.246  0.00  0.00    +0.000 A 
ATOM      9  C   UNL     1       5.989   4.655  17.324  0.00  0.00    +0.000 A 
ATOM     10  C   UNL     1       4.938   4.788  18.238  0.00  0.00    +0.000 A 
ATOM     11  C   UNL     1       4.000   5.813  18.095  0.00  0.00    +0.000 A 
ATOM     12  C   UNL     1       4.111   6.697  17.016  0.00  0.00    +0.000 A 
ATOM     13  C   UNL     1       5.146   6.545  16.097  0.00  0.00    +0.000 A 
BRANCH  11  14
ATOM     14  C   UNL     1       2.964   5.988  19.150  0.00  0.00    +0.000 C 
ATOM     15  O   UNL     1       2.602   7.117  19.455  0.00  0.00    +0.000 OA
BRANCH  14  16
ATOM     16  C   UNL     1       2.336   4.820  19.825  0.00  0.00    +0.000 A 
ATOM     17  C   UNL     1       1.436   4.037  19.093  0.00  0.00    +0.000 A 
ATOM     18  C   UNL     1       0.832   2.928  19.690  0.00  0.00    +0.000 A 
ATOM     19  C   UNL     1       1.123   2.610  21.019  0.00  0.00    +0.000 A 
ATOM     20  C   UNL     1       2.005   3.399  21.753  0.00  0.00    +0.000 A 
ATOM     21  C   UNL     1       2.602   4.513  21.162  0.00  0.00    +0.000 A 
ENDBRANCH  14  16
ENDBRANCH  11  14
ENDBRANCH   5   8
BRANCH   1  22
ATOM     22  CA  UNL     1       5.530   2.388  11.959  0.00  0.00    +0.000 C 
BRANCH  22  23
ATOM     23  N   UNL     1       4.381   2.965  11.237  0.00  0.00    +0.000 NA
ATOM     24  H1  UNL     1       4.575   3.952  11.074  0.00  0.00    +0.000 HD
ATOM     25  H2  UNL     1       3.593   2.954  11.895  0.00  0.00    +0.000 HD
ENDBRANCH  22  23
BRANCH  22  26
ATOM     26  C   UNL     1       6.322   1.439  11.037  0.00  0.00    +0.000 C 
BRANCH  26  27
ATOM     27  O   UNL     1       6.130   0.073  11.420  0.00  0.00    +0.000 OA
ATOM     28  H   UNL     1       6.948  -0.225  11.858  0.00  0.00    +0.000 HD
ENDBRANCH  26  27
ENDBRANCH  22  26
ENDBRANCH   1  22
TORSDOF 7
ENDMDL
MODEL 3
REMARK VINA RESULT:      -7.8      6.736      9.154
REMARK  Name = 
REMARK  7 active torsions:
REMARK  status: ('A' for Active; 'I' for Inactive)
REMARK    1  A    between atoms: N_1  and  CA_2
REMARK    2  A    between atoms: CA_2  and  C_3
REMARK    3  A    between atoms: CA_2  and  C_5
REMARK    4  A    between atoms: C_3  and  O_4
REMARK    5  A    between atoms: N_9  and  C_10
REMARK    6  A    between atoms: C_13  and  C_14
REMARK    7  A    between atoms: C_14  and  C_16
REMARK                            x       y       z     vdW  Elec       q    Type
REMARK                         _______ _______ _______ _____ _____    ______ ____
ROOT
ATOM      1  C   UNL     1      -2.954  11.490  18.470  0.00  0.00    +0.000 A 
ATOM      2  C   UNL     1      -3.274  12.330  19.518  0.00  0.00    +0.000 A 
ATOM      3  S   UNL     1      -1.888  12.617  20.487  0.00  0.00    +0.000 S 
ATOM      4  C   UNL     1      -0.953  11.602  19.461  0.00  0.00    +0.000 A 
ATOM      5  N   UNL     1       0.370  11.399  19.678  0.00  0.00    +0.000 N 
ATOM      6  N   UNL     1      -1.631  11.061  18.475  0.00  0.00    +0.000 NA
ATOM      7  H   UNL     1       0.846  11.983  20.351  0.00  0.00    +0.000 HD
ENDROOT
BRANCH   5   8
ATOM      8  C   UNL     1       1.033  10.193  19.391  0.00  0.00    +0.000 A 
ATOM      9  C   UNL     1       1.099   9.189  20.370  0.00  0.00    +0.000 A 
ATOM     10  C   UNL     1       1.735   7.971  20.102  0.00  0.00    +0.000 A 
ATOM     11  C   UNL     1       2.312   7.733  18.852  0.00  0.00    +0.000 A 
ATOM     12  C   UNL     1       2.264   8.733  17.875  0.00  0.00    +0.000 A 
ATOM     13  C   UNL     1       1.650   9.951  18.156  0.00  0.00    +0.000 A 
BRANCH  11  14
ATOM     14  C   UNL     1       2.878   6.385  18.570  0.00  0.00    +0.000 C 
ATOM     15  O   UNL     1       3.958   6.295  18.001  0.00  0.00    +0.000 OA
BRANCH  14  16
ATOM     16  C   UNL     1       2.175   5.142  18.991  0.00  0.00    +0.000 A 
ATOM     17  C   UNL     1       1.764   4.246  17.999  0.00  0.00    +0.000 A 
ATOM     18  C   UNL     1       1.108   3.065  18.356  0.00  0.00    +0.000 A 
ATOM     19  C   UNL     1       0.858   2.789  19.702  0.00  0.00    +0.000 A 
ATOM     20  C   UNL     1       1.251   3.690  20.688  0.00  0.00    +0.000 A 
ATOM     21  C   UNL     1       1.898   4.875  20.334  0.00  0.00    +0.000 A 
ENDBRANCH  14  16
ENDBRANCH  11  14
ENDBRANCH   5   8
BRANCH   1  22
ATOM     22  CA  UNL     1      -3.870  10.991  17.388  0.00  0.00    +0.000 C 
BRANCH  22  23
ATOM     23  N   UNL     1      -4.656  12.125  16.866  0.00  0.00    +0.000 NA
ATOM     24  H1  UNL     1      -5.525  11.756  16.484  0.00  0.00    +0.000 HD
ATOM     25  H2  UNL     1      -4.138  12.482  16.053  0.00  0.00    +0.000 HD
ENDBRANCH  22  23
BRANCH  22  26
ATOM     26  C   UNL     1      -3.088  10.310  16.247  0.00  0.00    +0.000 C 
BRANCH  26  27
ATOM     27  O   UNL     1      -2.294  11.262  15.530  0.00  0.00    +0.000 OA
ATOM     28  H   UNL     1      -2.390  11.066  14.580  0.00  0.00    +0.000 HD
ENDBRANCH  26  27
ENDBRANCH  22  26
ENDBRANCH   1  22
TORSDOF 7
ENDMDL
MODEL 4
REMARK VINA RESULT:      -7.7      6.521      8.703
REMARK  Name = 
REMARK  7 active torsions:
REMARK  status: ('A' for Active; 'I' for Inactive)
REMARK    1  A    between atoms: N_1  and  CA_2
REMARK    2  A    between atoms: CA_2  and  C_3
REMARK    3  A    between atoms: CA_2  and  C_5
REMARK    4  A    between atoms: C_3  and  O_4
REMARK    5  A    between atoms: N_9  and  C_10
REMARK    6  A    between atoms: C_13  and  C_14
REMARK    7  A    between atoms: C_14  and  C_16
REMARK                            x       y       z     vdW  Elec       q    Type
REMARK                         _______ _______ _______ _____ _____    ______ ____
ROOT
ATOM      1  C   UNL     1      -2.829  10.949  17.720  0.00  0.00    +0.000 A 
ATOM      2  C   UNL     1      -3.259  11.894  18.630  0.00  0.00    +0.000 A 
ATOM      3  S   UNL     1      -1.977  12.325  19.684  0.00  0.00    +0.000 S 
ATOM      4  C   UNL     1      -0.934  11.223  18.874  0.00  0.00    +0.000 A 
ATOM      5  N   UNL     1       0.366  11.079  19.235  0.00  0.00    +0.000 N 
ATOM      6  N   UNL     1      -1.507  10.557  17.898  0.00  0.00    +0.000 NA
ATOM      7  H   UNL     1       0.767  11.746  19.877  0.00  0.00    +0.000 HD
ENDROOT
BRANCH   5   8
ATOM      8  C   UNL     1       1.070   9.864  19.152  0.00  0.00    +0.000 A 
ATOM      9  C   UNL     1       1.115   9.013  20.268  0.00  0.00    +0.000 A 
ATOM     10  C   UNL     1       1.792   7.789  20.203  0.00  0.00    +0.000 A 
ATOM     11  C   UNL     1       2.430   7.393  19.026  0.00  0.00    +0.000 A 
ATOM     12  C   UNL     1       2.402   8.241  17.914  0.00  0.00    +0.000 A 
ATOM     13  C   UNL     1       1.747   9.468  17.991  0.00  0.00    +0.000 A 
BRANCH  11  14
ATOM     14  C   UNL     1       3.040   6.036  18.964  0.00  0.00    +0.000 C 
ATOM     15  O   UNL     1       4.131   5.892  18.427  0.00  0.00    +0.000 OA
BRANCH  14  16
ATOM     16  C   UNL     1       2.369   4.853  19.568  0.00  0.00    +0.000 A 
ATOM     17  C   UNL     1       2.654   4.538  20.901  0.00  0.00    +0.000 A 
ATOM     18  C   UNL     1       2.037   3.439  21.504  0.00  0.00    +0.000 A 
ATOM     19  C   UNL     1       1.144   2.654  20.770  0.00  0.00    +0.000 A 
ATOM     20  C   UNL     1       0.874   2.957  19.438  0.00  0.00    +0.000 A 
ATOM     21  C   UNL     1       1.497   4.048  18.830  0.00  0.00    +0.000 A 
ENDBRANCH  14  16
ENDBRANCH  11  14
ENDBRANCH   5   8
BRANCH   1  22
ATOM     22  CA  UNL     1      -3.631  10.308  16.623  0.00  0.00    +0.000 C 
BRANCH  22  23
ATOM     23  N   UNL     1      -4.805  11.153  16.332  0.00  0.00    +0.000 NA
ATOM     24  H1  UNL     1      -5.110  11.579  17.206  0.00  0.00    +0.000 HD
ATOM     25  H2  UNL     1      -5.562  10.511  16.071  0.00  0.00    +0.000 HD
ENDBRANCH  22  23
BRANCH  22  26
ATOM     26  C   UNL     1      -2.790  10.102  15.346  0.00  0.00    +0.000 C 
BRANCH  26  27
ATOM     27  O   UNL     1      -3.490  10.573  14.190  0.00  0.00    +0.000 OA
ATOM     28  H   UNL     1      -3.363  11.538  14.144  0.00  0.00    +0.000 HD
ENDBRANCH  26  27
ENDBRANCH  22  26
ENDBRANCH   1  22
TORSDOF 7
ENDMDL
MODEL 5
REMARK VINA RESULT:      -7.7      6.562      8.932
REMARK  Name = 
REMARK  7 active torsions:
REMARK  status: ('A' for Active; 'I' for Inactive)
REMARK    1  A    between atoms: N_1  and  CA_2
REMARK    2  A    between atoms: CA_2  and  C_3
REMARK    3  A    between atoms: CA_2  and  C_5
REMARK    4  A    between atoms: C_3  and  O_4
REMARK    5  A    between atoms: N_9  and  C_10
REMARK    6  A    between atoms: C_13  and  C_14
REMARK    7  A    between atoms: C_14  and  C_16
REMARK                            x       y       z     vdW  Elec       q    Type
REMARK                         _______ _______ _______ _____ _____    ______ ____
ROOT
ATOM      1  C   UNL     1      -2.758  11.393  18.422  0.00  0.00    +0.000 A 
ATOM      2  C   UNL     1      -2.982  12.317  19.422  0.00  0.00    +0.000 A 
ATOM      3  S   UNL     1      -1.543  12.578  20.318  0.00  0.00    +0.000 S 
ATOM      4  C   UNL     1      -0.715  11.442  19.329  0.00  0.00    +0.000 A 
ATOM      5  N   UNL     1       0.602  11.169  19.509  0.00  0.00    +0.000 N 
ATOM      6  N   UNL     1      -1.465  10.882  18.407  0.00  0.00    +0.000 NA
ATOM      7  H   UNL     1       1.139  11.764  20.123  0.00  0.00    +0.000 HD
ENDROOT
BRANCH   5   8
ATOM      8  C   UNL     1       1.177   9.907  19.280  0.00  0.00    +0.000 A 
ATOM      9  C   UNL     1       1.743   9.621  18.027  0.00  0.00    +0.000 A 
ATOM     10  C   UNL     1       2.341   8.380  17.780  0.00  0.00    +0.000 A 
ATOM     11  C   UNL     1       2.389   7.405  18.779  0.00  0.00    +0.000 A 
ATOM     12  C   UNL     1       1.815   7.675  20.027  0.00  0.00    +0.000 A 
ATOM     13  C   UNL     1       1.201   8.904  20.258  0.00  0.00    +0.000 A 
BRANCH  11  14
ATOM     14  C   UNL     1       3.132   6.143  18.513  0.00  0.00    +0.000 C 
ATOM     15  O   UNL     1       4.219   6.193  17.951  0.00  0.00    +0.000 OA
BRANCH  14  16
ATOM     16  C   UNL     1       2.599   4.821  18.941  0.00  0.00    +0.000 A 
ATOM     17  C   UNL     1       1.657   4.191  18.121  0.00  0.00    +0.000 A 
ATOM     18  C   UNL     1       1.139   2.945  18.486  0.00  0.00    +0.000 A 
ATOM     19  C   UNL     1       1.559   2.339  19.672  0.00  0.00    +0.000 A 
ATOM     20  C   UNL     1       2.483   2.974  20.497  0.00  0.00    +0.000 A 
ATOM     21  C   UNL     1       2.995   4.223  20.140  0.00  0.00    +0.000 A 
ENDBRANCH  14  16
ENDBRANCH  11  14
ENDBRANCH   5   8
BRANCH   1  22
ATOM     22  CA  UNL     1      -3.747  10.884  17.411  0.00  0.00    +0.000 C 
BRANCH  22  23
ATOM     23  N   UNL     1      -4.463  12.031  16.823  0.00  0.00    +0.000 NA
ATOM     24  H1  UNL     1      -3.800  12.560  16.258  0.00  0.00    +0.000 HD
ATOM     25  H2  UNL     1      -4.699  12.653  17.606  0.00  0.00    +0.000 HD
ENDBRANCH  22  23
BRANCH  22  26
ATOM     26  C   UNL     1      -3.059  10.058  16.305  0.00  0.00    +0.000 C 
BRANCH  26  27
ATOM     27  O   UNL     1      -2.374  10.910  15.380  0.00  0.00    +0.000 OA
ATOM     28  H   UNL     1      -1.524  11.159  15.787  0.00  0.00    +0.000 HD
ENDBRANCH  26  27
ENDBRANCH  22  26
ENDBRANCH   1  22
TORSDOF 7
ENDMDL
MODEL 6
REMARK VINA RESULT:      -7.5      6.081      8.843
REMARK  Name = 
REMARK  7 active torsions:
REMARK  status: ('A' for Active; 'I' for Inactive)
REMARK    1  A    between atoms: N_1  and  CA_2
REMARK    2  A    between atoms: CA_2  and  C_3
REMARK    3  A    between atoms: CA_2  and  C_5
REMARK    4  A    between atoms: C_3  and  O_4
REMARK    5  A    between atoms: N_9  and  C_10
REMARK    6  A    between atoms: C_13  and  C_14
REMARK    7  A    between atoms: C_14  and  C_16
REMARK                            x       y       z     vdW  Elec       q    Type
REMARK                         _______ _______ _______ _____ _____    ______ ____
ROOT
ATOM      1  C   UNL     1      -2.223  10.641  18.202  0.00  0.00    +0.000 A 
ATOM      2  C   UNL     1      -2.309  11.762  19.004  0.00  0.00    +0.000 A 
ATOM      3  S   UNL     1      -0.778  12.114  19.692  0.00  0.00    +0.000 S 
ATOM      4  C   UNL     1      -0.098  10.752  18.891  0.00  0.00    +0.000 A 
ATOM      5  N   UNL     1       1.217  10.444  19.005  0.00  0.00    +0.000 N 
ATOM      6  N   UNL     1      -0.959  10.062  18.177  0.00  0.00    +0.000 NA
ATOM      7  H   UNL     1       1.837  11.118  19.430  0.00  0.00    +0.000 HD
ENDROOT
BRANCH   5   8
ATOM      8  C   UNL     1       1.717   9.130  18.993  0.00  0.00    +0.000 A 
ATOM      9  C   UNL     1       2.376   8.650  17.849  0.00  0.00    +0.000 A 
ATOM     10  C   UNL     1       2.900   7.353  17.820  0.00  0.00    +0.000 A 
ATOM     11  C   UNL     1       2.780   6.514  18.930  0.00  0.00    +0.000 A 
ATOM     12  C   UNL     1       2.113   6.978  20.069  0.00  0.00    +0.000 A 
ATOM     13  C   UNL     1       1.573   8.262  20.084  0.00  0.00    +0.000 A 
BRANCH  11  14
ATOM     14  C   UNL     1       3.450   5.185  18.899  0.00  0.00    +0.000 C 
ATOM     15  O   UNL     1       2.896   4.221  19.413  0.00  0.00    +0.000 OA
BRANCH  14  16
ATOM     16  C   UNL     1       4.765   4.992  18.231  0.00  0.00    +0.000 A 
ATOM     17  C   UNL     1       4.783   4.399  16.964  0.00  0.00    +0.000 A 
ATOM     18  C   UNL     1       5.999   4.208  16.302  0.00  0.00    +0.000 A 
ATOM     19  C   UNL     1       7.192   4.604  16.912  0.00  0.00    +0.000 A 
ATOM     20  C   UNL     1       7.175   5.177  18.180  0.00  0.00    +0.000 A 
ATOM     21  C   UNL     1       5.963   5.360  18.848  0.00  0.00    +0.000 A 
ENDBRANCH  14  16
ENDBRANCH  11  14
ENDBRANCH   5   8
BRANCH   1  22
ATOM     22  CA  UNL     1      -3.328   9.997  17.413  0.00  0.00    +0.000 C 
BRANCH  22  23
ATOM     23  N   UNL     1      -4.605  10.649  17.758  0.00  0.00    +0.000 NA
ATOM     24  H1  UNL     1      -4.756  10.533  18.760  0.00  0.00    +0.000 HD
ATOM     25  H2  UNL     1      -5.342  10.090  17.312  0.00  0.00    +0.000 HD
ENDBRANCH  22  23
BRANCH  22  26
ATOM     26  C   UNL     1      -3.073  10.088  15.895  0.00  0.00    +0.000 C 
BRANCH  26  27
ATOM     27  O   UNL     1      -2.359  11.284  15.566  0.00  0.00    +0.000 OA
ATOM     28  H   UNL     1      -2.388  11.866  16.347  0.00  0.00    +0.000 HD
ENDBRANCH  26  27
ENDBRANCH  22  26
ENDBRANCH   1  22
TORSDOF 7
ENDMDL
MODEL 7
REMARK VINA RESULT:      -7.3      5.043      6.441
REMARK  Name = 
REMARK  7 active torsions:
REMARK  status: ('A' for Active; 'I' for Inactive)
REMARK    1  A    between atoms: N_1  and  CA_2
REMARK    2  A    between atoms: CA_2  and  C_3
REMARK    3  A    between atoms: CA_2  and  C_5
REMARK    4  A    between atoms: C_3  and  O_4
REMARK    5  A    between atoms: N_9  and  C_10
REMARK    6  A    between atoms: C_13  and  C_14
REMARK    7  A    between atoms: C_14  and  C_16
REMARK                            x       y       z     vdW  Elec       q    Type
REMARK                         _______ _______ _______ _____ _____    ______ ____
ROOT
ATOM      1  C   UNL     1       5.154   5.162  16.948  0.00  0.00    +0.000 A 
ATOM      2  C   UNL     1       5.973   4.512  17.850  0.00  0.00    +0.000 A 
ATOM      3  S   UNL     1       5.346   4.672  19.438  0.00  0.00    +0.000 S 
ATOM      4  C   UNL     1       4.032   5.601  18.832  0.00  0.00    +0.000 A 
ATOM      5  N   UNL     1       3.057   6.069  19.649  0.00  0.00    +0.000 N 
ATOM      6  N   UNL     1       4.070   5.804  17.534  0.00  0.00    +0.000 NA
ATOM      7  H   UNL     1       3.013   5.726  20.597  0.00  0.00    +0.000 HD
ENDROOT
BRANCH   5   8
ATOM      8  C   UNL     1       2.384   7.287  19.445  0.00  0.00    +0.000 A 
ATOM      9  C   UNL     1       2.422   7.896  18.181  0.00  0.00    +0.000 A 
ATOM     10  C   UNL     1       1.742   9.097  17.947  0.00  0.00    +0.000 A 
ATOM     11  C   UNL     1       1.012   9.709  18.968  0.00  0.00    +0.000 A 
ATOM     12  C   UNL     1       0.980   9.118  20.236  0.00  0.00    +0.000 A 
ATOM     13  C   UNL     1       1.677   7.934  20.468  0.00  0.00    +0.000 A 
BRANCH  11  14
ATOM     14  C   UNL     1       0.213  10.924  18.648  0.00  0.00    +0.000 C 
ATOM     15  O   UNL     1       0.757  12.021  18.661  0.00  0.00    +0.000 OA
BRANCH  14  16
ATOM     16  C   UNL     1      -1.227  10.834  18.284  0.00  0.00    +0.000 A 
ATOM     17  C   UNL     1      -1.611   9.884  17.332  0.00  0.00    +0.000 A 
ATOM     18  C   UNL     1      -2.955   9.765  16.970  0.00  0.00    +0.000 A 
ATOM     19  C   UNL     1      -3.909  10.602  17.555  0.00  0.00    +0.000 A 
ATOM     20  C   UNL     1      -3.524  11.560  18.489  0.00  0.00    +0.000 A 
ATOM     21  C   UNL     1      -2.181  11.687  18.845  0.00  0.00    +0.000 A 
ENDBRANCH  14  16
ENDBRANCH  11  14
ENDBRANCH   5   8
BRANCH   1  22
ATOM     22  CA  UNL     1       5.336   5.263  15.460  0.00  0.00    +0.000 C 
BRANCH  22  23
ATOM     23  N   UNL     1       5.361   6.688  15.077  0.00  0.00    +0.000 NA
ATOM     24  H1  UNL     1       6.315   7.028  15.196  0.00  0.00    +0.000 HD
ATOM     25  H2  UNL     1       4.812   7.185  15.788  0.00  0.00    +0.000 HD
ENDBRANCH  22  23
BRANCH  22  26
ATOM     26  C   UNL     1       6.626   4.560  14.993  0.00  0.00    +0.000 C 
BRANCH  26  27
ATOM     27  O   UNL     1       7.706   5.493  14.879  0.00  0.00    +0.000 OA
ATOM     28  H   UNL     1       7.656   6.093  15.645  0.00  0.00    +0.000 HD
ENDBRANCH  26  27
ENDBRANCH  22  26
ENDBRANCH   1  22
TORSDOF 7
ENDMDL
MODEL 8
REMARK VINA RESULT:      -7.3      6.411      8.996
REMARK  Name = 
REMARK  7 active torsions:
REMARK  status: ('A' for Active; 'I' for Inactive)
REMARK    1  A    between atoms: N_1  and  CA_2
REMARK    2  A    between atoms: CA_2  and  C_3
REMARK    3  A    between atoms: CA_2  and  C_5
REMARK    4  A    between atoms: C_3  and  O_4
REMARK    5  A    between atoms: N_9  and  C_10
REMARK    6  A    between atoms: C_13  and  C_14
REMARK    7  A    between atoms: C_14  and  C_16
REMARK                            x       y       z     vdW  Elec       q    Type
REMARK                         _______ _______ _______ _____ _____    ______ ____
ROOT
ATOM      1  C   UNL     1      -2.488  11.724  18.475  0.00  0.00    +0.000 A 
ATOM      2  C   UNL     1      -2.852  12.401  19.621  0.00  0.00    +0.000 A 
ATOM      3  S   UNL     1      -1.563  12.379  20.753  0.00  0.00    +0.000 S 
ATOM      4  C   UNL     1      -0.607  11.465  19.655  0.00  0.00    +0.000 A 
ATOM      5  N   UNL     1       0.663  11.095  19.956  0.00  0.00    +0.000 N 
ATOM      6  N   UNL     1      -1.214  11.170  18.528  0.00  0.00    +0.000 NA
ATOM      7  H   UNL     1       1.108  11.506  20.764  0.00  0.00    +0.000 HD
ENDROOT
BRANCH   5   8
ATOM      8  C   UNL     1       1.252   9.895  19.521  0.00  0.00    +0.000 A 
ATOM      9  C   UNL     1       1.328   8.803  20.400  0.00  0.00    +0.000 A 
ATOM     10  C   UNL     1       1.891   7.590  19.985  0.00  0.00    +0.000 A 
ATOM     11  C   UNL     1       2.383   7.446  18.685  0.00  0.00    +0.000 A 
ATOM     12  C   UNL     1       2.325   8.533  17.807  0.00  0.00    +0.000 A 
ATOM     13  C   UNL     1       1.785   9.744  18.234  0.00  0.00    +0.000 A 
BRANCH  11  14
ATOM     14  C   UNL     1       2.869   6.109  18.249  0.00  0.00    +0.000 C 
ATOM     15  O   UNL     1       3.742   6.037  17.393  0.00  0.00    +0.000 OA
BRANCH  14  16
ATOM     16  C   UNL     1       2.340   4.854  18.850  0.00  0.00    +0.000 A 
ATOM     17  C   UNL     1       1.482   4.062  18.080  0.00  0.00    +0.000 A 
ATOM     18  C   UNL     1       0.972   2.873  18.608  0.00  0.00    +0.000 A 
ATOM     19  C   UNL     1       1.314   2.485  19.905  0.00  0.00    +0.000 A 
ATOM     20  C   UNL     1       2.154   3.283  20.678  0.00  0.00    +0.000 A 
ATOM     21  C   UNL     1       2.657   4.476  20.157  0.00  0.00    +0.000 A 
ENDBRANCH  14  16
ENDBRANCH  11  14
ENDBRANCH   5   8
BRANCH   1  22
ATOM     22  CA  UNL     1      -3.317  11.511  17.240  0.00  0.00    +0.000 C 
BRANCH  22  23
ATOM     23  N   UNL     1      -2.421  11.432  16.070  0.00  0.00    +0.000 NA
ATOM     24  H1  UNL     1      -1.745  10.689  16.241  0.00  0.00    +0.000 HD
ATOM     25  H2  UNL     1      -1.870  12.299  16.072  0.00  0.00    +0.000 HD
ENDBRANCH  22  23
BRANCH  22  26
ATOM     26  C   UNL     1      -4.177  10.235  17.343  0.00  0.00    +0.000 C 
BRANCH  26  27
ATOM     27  O   UNL     1      -3.413   9.143  17.865  0.00  0.00    +0.000 OA
ATOM     28  H   UNL     1      -3.991   8.646  18.473  0.00  0.00    +0.000 HD
ENDBRANCH  26  27
ENDBRANCH  22  26
ENDBRANCH   1  22
TORSDOF 7
ENDMDL
MODEL 9
REMARK VINA RESULT:      -7.3      6.323      9.029
REMARK  Name = 
REMARK  7 active torsions:
REMARK  status: ('A' for Active; 'I' for Inactive)
REMARK    1  A    between atoms: N_1  and  CA_2
REMARK    2  A    between atoms: CA_2  and  C_3
REMARK    3  A    between atoms: CA_2  and  C_5
REMARK    4  A    between atoms: C_3  and  O_4
REMARK    5  A    between atoms: N_9  and  C_10
REMARK    6  A    between atoms: C_13  and  C_14
REMARK    7  A    between atoms: C_14  and  C_16
REMARK                            x       y       z     vdW  Elec       q    Type
REMARK                         _______ _______ _______ _____ _____    ______ ____
ROOT
ATOM      1  C   UNL     1      -2.445  11.066  18.254  0.00  0.00    +0.000 A 
ATOM      2  C   UNL     1      -2.699  11.968  19.268  0.00  0.00    +0.000 A 
ATOM      3  S   UNL     1      -1.295  12.186  20.229  0.00  0.00    +0.000 S 
ATOM      4  C   UNL     1      -0.441  11.063  19.246  0.00  0.00    +0.000 A 
ATOM      5  N   UNL     1       0.863  10.767  19.474  0.00  0.00    +0.000 N 
ATOM      6  N   UNL     1      -1.160  10.537  18.280  0.00  0.00    +0.000 NA
ATOM      7  H   UNL     1       1.382  11.338  20.124  0.00  0.00    +0.000 HD
ENDROOT
BRANCH   5   8
ATOM      8  C   UNL     1       1.431   9.502  19.236  0.00  0.00    +0.000 A 
ATOM      9  C   UNL     1       1.382   8.522  20.240  0.00  0.00    +0.000 A 
ATOM     10  C   UNL     1       1.921   7.249  20.020  0.00  0.00    +0.000 A 
ATOM     11  C   UNL     1       2.514   6.932  18.795  0.00  0.00    +0.000 A 
ATOM     12  C   UNL     1       2.580   7.907  17.794  0.00  0.00    +0.000 A 
ATOM     13  C   UNL     1       2.062   9.179  18.027  0.00  0.00    +0.000 A 
BRANCH  11  14
ATOM     14  C   UNL     1       2.973   5.535  18.563  0.00  0.00    +0.000 C 
ATOM     15  O   UNL     1       2.196   4.608  18.749  0.00  0.00    +0.000 OA
BRANCH  14  16
ATOM     16  C   UNL     1       4.350   5.239  18.079  0.00  0.00    +0.000 A 
ATOM     17  C   UNL     1       4.504   4.754  16.776  0.00  0.00    +0.000 A 
ATOM     18  C   UNL     1       5.781   4.472  16.285  0.00  0.00    +0.000 A 
ATOM     19  C   UNL     1       6.898   4.669  17.100  0.00  0.00    +0.000 A 
ATOM     20  C   UNL     1       6.743   5.135  18.403  0.00  0.00    +0.000 A 
ATOM     21  C   UNL     1       5.468   5.408  18.899  0.00  0.00    +0.000 A 
ENDBRANCH  14  16
ENDBRANCH  11  14
ENDBRANCH   5   8
BRANCH   1  22
ATOM     22  CA  UNL     1      -3.398  10.597  17.191  0.00  0.00    +0.000 C 
BRANCH  22  23
ATOM     23  N   UNL     1      -4.168  11.753  16.695  0.00  0.00    +0.000 NA
ATOM     24  H1  UNL     1      -4.743  12.100  17.462  0.00  0.00    +0.000 HD
ATOM     25  H2  UNL     1      -4.837  11.379  16.011  0.00  0.00    +0.000 HD
ENDBRANCH  22  23
BRANCH  22  26
ATOM     26  C   UNL     1      -2.659   9.906  16.027  0.00  0.00    +0.000 C 
BRANCH  26  27
ATOM     27  O   UNL     1      -3.064  10.453  14.767  0.00  0.00    +0.000 OA
ATOM     28  H   UNL     1      -4.037  10.489  14.763  0.00  0.00    +0.000 HD
ENDBRANCH  26  27
ENDBRANCH  22  26
ENDBRANCH   1  22
TORSDOF 7
ENDMDL
