MODEL 1
REMARK VINA RESULT:      -7.7      0.000      0.000
REMARK  Name = 
REMARK  13 active torsions:
REMARK  status: ('A' for Active; 'I' for Inactive)
REMARK    1  A    between atoms: C_1  and  S_2
REMARK    2  A    between atoms: S_2  and  C_5
REMARK    3  A    between atoms: C_10  and  S_11
REMARK    4  A    between atoms: S_11  and  O_14
REMARK    5  A    between atoms: O_14  and  C_15
REMARK    6  A    between atoms: C_17  and  C_18
REMARK    7  A    between atoms: C_18  and  O_19
REMARK    8  A    between atoms: C_21  and  O_22
REMARK    9  A    between atoms: O_22  and  C_23
REMARK   10  A    between atoms: C_23  and  C_24
REMARK   11  A    between atoms: C_24  and  C_25
REMARK   12  A    between atoms: C_25  and  O_26
REMARK   13  A    between atoms: O_26  and  N_27
REMARK                            x       y       z     vdW  Elec       q    Type
REMARK                         _______ _______ _______ _____ _____    ______ ____
ROOT
ATOM      1  C   UNL     1       1.867   8.496  18.903  0.00  0.00    +0.000 A 
ATOM      2  C   UNL     1       1.588   8.497  20.274  0.00  0.00    +0.000 A 
ATOM      3  C   UNL     1       0.579   9.308  20.800  0.00  0.00    +0.000 A 
ATOM      4  C   UNL     1      -0.119  10.151  19.928  0.00  0.00    +0.000 A 
ATOM      5  C   UNL     1       0.113  10.113  18.550  0.00  0.00    +0.000 A 
ATOM      6  C   UNL     1       1.086   9.258  18.034  0.00  0.00    +0.000 A 
ENDROOT
BRANCH   1   7
ATOM      7  O   UNL     1       2.912   7.686  18.538  0.00  0.00    +0.000 OA
BRANCH   7   8
ATOM      8  S   UNL     1       2.933   6.072  18.723  0.00  0.00    +0.000 S 
ATOM      9  O   UNL     1       1.595   5.587  18.419  0.00  0.00    +0.000 OA
ATOM     10  O   UNL     1       3.515   5.728  20.004  0.00  0.00    +0.000 OA
BRANCH   8  16
ATOM     11  C   UNL     1       4.287   3.985  17.370  0.00  0.00    +0.000 A 
ATOM     12  C   UNL     1       5.193   3.549  16.383  0.00  0.00    +0.000 A 
ATOM     13  C   UNL     1       5.784   4.457  15.506  0.00  0.00    +0.000 A 
ATOM     14  C   UNL     1       5.467   5.805  15.599  0.00  0.00    +0.000 A 
ATOM     15  C   UNL     1       4.602   6.254  16.588  0.00  0.00    +0.000 A 
ATOM     16  C   UNL     1       4.024   5.356  17.502  0.00  0.00    +0.000 A 
BRANCH  11  18
ATOM     17  C   UNL     1       1.815   2.836  18.006  0.00  0.00    +0.000 C 
ATOM     18  S   UNL     1       3.550   2.710  18.369  0.00  0.00    +0.000 S 
ATOM     19  O   UNL     1       3.779   3.016  19.762  0.00  0.00    +0.000 OA
ATOM     20  O   UNL     1       4.009   1.436  17.843  0.00  0.00    +0.000 OA
ENDBRANCH  11  18
ENDBRANCH   8  16
ENDBRANCH   7   8
ENDBRANCH   1   7
BRANCH   3  21
ATOM     21  C   UNL     1       0.217   9.253  22.258  0.00  0.00    +0.000 C 
BRANCH  21  22
ATOM     22  O   UNL     1      -0.906   8.413  22.471  0.00  0.00    +0.000 OA
ATOM     23  H   UNL     1      -0.600   7.499  22.343  0.00  0.00    +0.000 HD
ENDBRANCH  21  22
ENDBRANCH   3  21
BRANCH   5  24
ATOM     24  O   UNL     1      -0.657  10.981  17.832  0.00  0.00    +0.000 OA
BRANCH  24  25
ATOM     25  C   UNL     1      -1.961  11.294  18.320  0.00  0.00    +0.000 C 
BRANCH  25  26
ATOM     26  C   UNL     1      -2.961  10.720  17.339  0.00  0.00    +0.000 C 
ATOM     27  C   UNL     1      -3.703   9.442  17.685  0.00  0.00    +0.000 C 
ATOM     28  C   UNL     1      -4.423  10.759  17.754  0.00  0.00    +0.000 C 
BRANCH  26  29
ATOM     29  C   UNL     1      -2.657  11.028  15.885  0.00  0.00    +0.000 C 
BRANCH  29  30
ATOM     30  O   UNL     1      -2.724   9.844  15.072  0.00  0.00    +0.000 OA
BRANCH  30  31
ATOM     31  N   UNL     1      -3.791  10.034  14.166  0.00  0.00    +0.000 NA
ATOM     32  C   UNL     1      -3.436   9.851  12.941  0.00  0.00    +0.000 C 
ATOM     33  N   UNL     1      -2.220   9.492  12.471  0.00  0.00    +0.000 N 
ATOM     34  N   UNL     1      -4.311  10.003  11.923  0.00  0.00    +0.000 N 
ATOM     35  H   UNL     1      -1.522   9.569  13.202  0.00  0.00    +0.000 HD
ATOM     36  H   UNL     1      -1.961   9.991  11.629  0.00  0.00    +0.000 HD
ATOM     37  H   UNL     1      -5.264  10.008  12.280  0.00  0.00    +0.000 HD
ATOM     38  H   UNL     1      -4.199   9.304  11.199  0.00  0.00    +0.000 HD
ENDBRANCH  30  31
ENDBRANCH  29  30
ENDBRANCH  26  29
ENDBRANCH  25  26
ENDBRANCH  24  25
ENDBRANCH   5  24
TORSDOF 12
ENDMDL
MODEL 2
REMARK VINA RESULT:      -7.7      5.269      8.988
REMARK  Name = 
REMARK  13 active torsions:
REMARK  status: ('A' for Active; 'I' for Inactive)
REMARK    1  A    between atoms: C_1  and  S_2
REMARK    2  A    between atoms: S_2  and  C_5
REMARK    3  A    between atoms: C_10  and  S_11
REMARK    4  A    between atoms: S_11  and  O_14
REMARK    5  A    between atoms: O_14  and  C_15
REMARK    6  A    between atoms: C_17  and  C_18
REMARK    7  A    between atoms: C_18  and  O_19
REMARK    8  A    between atoms: C_21  and  O_22
REMARK    9  A    between atoms: O_22  and  C_23
REMARK   10  A    between atoms: C_23  and  C_24
REMARK   11  A    between atoms: C_24  and  C_25
REMARK   12  A    between atoms: C_25  and  O_26
REMARK   13  A    between atoms: O_26  and  N_27
REMARK                            x       y       z     vdW  Elec       q    Type
REMARK                         _______ _______ _______ _____ _____    ______ ____
ROOT
ATOM      1  C   UNL     1       2.322   7.191  19.340  0.00  0.00    +0.000 A 
ATOM      2  C   UNL     1       1.727   6.257  20.195  0.00  0.00    +0.000 A 
ATOM      3  C   UNL     1       2.077   4.906  20.135  0.00  0.00    +0.000 A 
ATOM      4  C   UNL     1       3.006   4.500  19.170  0.00  0.00    +0.000 A 
ATOM      5  C   UNL     1       3.648   5.435  18.353  0.00  0.00    +0.000 A 
ATOM      6  C   UNL     1       3.329   6.788  18.463  0.00  0.00    +0.000 A 
ENDROOT
BRANCH   1   7
ATOM      7  O   UNL     1       1.849   8.471  19.481  0.00  0.00    +0.000 OA
BRANCH   7   8
ATOM      8  S   UNL     1       1.491   9.462  18.245  0.00  0.00    +0.000 S 
ATOM      9  O   UNL     1       0.079   9.278  17.942  0.00  0.00    +0.000 OA
ATOM     10  O   UNL     1       2.451   9.285  17.175  0.00  0.00    +0.000 OA
BRANCH   8  16
ATOM     11  C   UNL     1       1.155  11.689  19.961  0.00  0.00    +0.000 A 
ATOM     12  C   UNL     1       1.353  13.053  20.252  0.00  0.00    +0.000 A 
ATOM     13  C   UNL     1       2.108  13.861  19.404  0.00  0.00    +0.000 A 
ATOM     14  C   UNL     1       2.684  13.312  18.267  0.00  0.00    +0.000 A 
ATOM     15  C   UNL     1       2.471  11.977  17.950  0.00  0.00    +0.000 A 
ATOM     16  C   UNL     1       1.682  11.157  18.776  0.00  0.00    +0.000 A 
BRANCH  11  18
ATOM     17  C   UNL     1      -0.531  12.009  22.172  0.00  0.00    +0.000 C 
ATOM     18  S   UNL     1       0.235  10.759  21.168  0.00  0.00    +0.000 S 
ATOM     19  O   UNL     1       1.159   9.990  21.969  0.00  0.00    +0.000 OA
ATOM     20  O   UNL     1      -0.826  10.067  20.456  0.00  0.00    +0.000 OA
ENDBRANCH  11  18
ENDBRANCH   8  16
ENDBRANCH   7   8
ENDBRANCH   1   7
BRANCH   3  21
ATOM     21  C   UNL     1       1.503   3.910  21.104  0.00  0.00    +0.000 C 
BRANCH  21  22
ATOM     22  O   UNL     1       1.360   2.636  20.497  0.00  0.00    +0.000 OA
ATOM     23  H   UNL     1       0.813   2.764  19.704  0.00  0.00    +0.000 HD
ENDBRANCH  21  22
ENDBRANCH   3  21
BRANCH   5  24
ATOM     24  O   UNL     1       4.539   4.888  17.477  0.00  0.00    +0.000 OA
BRANCH  24  25
ATOM     25  C   UNL     1       4.920   5.649  16.332  0.00  0.00    +0.000 C 
BRANCH  25  26
ATOM     26  C   UNL     1       5.867   4.796  15.515  0.00  0.00    +0.000 C 
ATOM     27  C   UNL     1       5.377   4.147  14.233  0.00  0.00    +0.000 C 
ATOM     28  C   UNL     1       6.281   5.343  14.159  0.00  0.00    +0.000 C 
BRANCH  26  29
ATOM     29  C   UNL     1       6.944   4.104  16.329  0.00  0.00    +0.000 C 
BRANCH  29  30
ATOM     30  O   UNL     1       7.782   5.054  17.007  0.00  0.00    +0.000 OA
BRANCH  30  31
ATOM     31  N   UNL     1       7.876   4.627  18.350  0.00  0.00    +0.000 NA
ATOM     32  C   UNL     1       8.083   5.605  19.164  0.00  0.00    +0.000 C 
ATOM     33  N   UNL     1       8.189   6.922  18.876  0.00  0.00    +0.000 N 
ATOM     34  N   UNL     1       8.221   5.399  20.493  0.00  0.00    +0.000 N 
ATOM     35  H   UNL     1       8.283   7.057  17.875  0.00  0.00    +0.000 HD
ATOM     36  H   UNL     1       8.919   7.383  19.403  0.00  0.00    +0.000 HD
ATOM     37  H   UNL     1       7.883   4.472  20.738  0.00  0.00    +0.000 HD
ATOM     38  H   UNL     1       7.765   6.110  21.050  0.00  0.00    +0.000 HD
ENDBRANCH  30  31
ENDBRANCH  29  30
ENDBRANCH  26  29
ENDBRANCH  25  26
ENDBRANCH  24  25
ENDBRANCH   5  24
TORSDOF 12
ENDMDL
MODEL 3
REMARK VINA RESULT:      -7.5      4.449      9.364
REMARK  Name = 
REMARK  13 active torsions:
REMARK  status: ('A' for Active; 'I' for Inactive)
REMARK    1  A    between atoms: C_1  and  S_2
REMARK    2  A    between atoms: S_2  and  C_5
REMARK    3  A    between atoms: C_10  and  S_11
REMARK    4  A    between atoms: S_11  and  O_14
REMARK    5  A    between atoms: O_14  and  C_15
REMARK    6  A    between atoms: C_17  and  C_18
REMARK    7  A    between atoms: C_18  and  O_19
REMARK    8  A    between atoms: C_21  and  O_22
REMARK    9  A    between atoms: O_22  and  C_23
REMARK   10  A    between atoms: C_23  and  C_24
REMARK   11  A    between atoms: C_24  and  C_25
REMARK   12  A    between atoms: C_25  and  O_26
REMARK   13  A    between atoms: O_26  and  N_27
REMARK                            x       y       z     vdW  Elec       q    Type
REMARK                         _______ _______ _______ _____ _____    ______ ____
ROOT
ATOM      1  C   UNL     1       0.382  10.138  18.743  0.00  0.00    +0.000 A 
ATOM      2  C   UNL     1       0.434  10.010  20.136  0.00  0.00    +0.000 A 
ATOM      3  C   UNL     1       1.149   8.969  20.733  0.00  0.00    +0.000 A 
ATOM      4  C   UNL     1       1.775   8.030  19.905  0.00  0.00    +0.000 A 
ATOM      5  C   UNL     1       1.776   8.184  18.515  0.00  0.00    +0.000 A 
ATOM      6  C   UNL     1       1.105   9.261  17.936  0.00  0.00    +0.000 A 
ENDROOT
BRANCH   1   7
ATOM      7  O   UNL     1      -0.392  11.181  18.299  0.00  0.00    +0.000 OA
BRANCH   7   8
ATOM      8  S   UNL     1      -1.982  11.076  17.979  0.00  0.00    +0.000 S 
ATOM      9  O   UNL     1      -2.372   9.690  18.190  0.00  0.00    +0.000 OA
ATOM     10  O   UNL     1      -2.269  11.683  16.696  0.00  0.00    +0.000 OA
BRANCH   8  16
ATOM     11  C   UNL     1      -4.281  12.196  19.195  0.00  0.00    +0.000 A 
ATOM     12  C   UNL     1      -4.872  13.016  20.176  0.00  0.00    +0.000 A 
ATOM     13  C   UNL     1      -4.094  13.636  21.152  0.00  0.00    +0.000 A 
ATOM     14  C   UNL     1      -2.722  13.432  21.166  0.00  0.00    +0.000 A 
ATOM     15  C   UNL     1      -2.121  12.652  20.187  0.00  0.00    +0.000 A 
ATOM     16  C   UNL     1      -2.887  12.048  19.174  0.00  0.00    +0.000 A 
BRANCH  11  18
ATOM     17  C   UNL     1      -7.000  11.991  18.565  0.00  0.00    +0.000 C 
ATOM     18  S   UNL     1      -5.401  11.407  18.059  0.00  0.00    +0.000 S 
ATOM     19  O   UNL     1      -5.324   9.976  18.243  0.00  0.00    +0.000 OA
ATOM     20  O   UNL     1      -5.136  11.963  16.743  0.00  0.00    +0.000 OA
ENDBRANCH  11  18
ENDBRANCH   8  16
ENDBRANCH   7   8
ENDBRANCH   1   7
BRANCH   3  21
ATOM     21  C   UNL     1       1.279   8.872  22.227  0.00  0.00    +0.000 C 
BRANCH  21  22
ATOM     22  O   UNL     1       0.783  10.042  22.857  0.00  0.00    +0.000 OA
ATOM     23  H   UNL     1       0.545   9.791  23.765  0.00  0.00    +0.000 HD
ENDBRANCH  21  22
ENDBRANCH   3  21
BRANCH   5  24
ATOM     24  O   UNL     1       2.442   7.199  17.847  0.00  0.00    +0.000 OA
BRANCH  24  25
ATOM     25  C   UNL     1       3.859   7.119  17.993  0.00  0.00    +0.000 C 
BRANCH  25  26
ATOM     26  C   UNL     1       4.205   5.672  18.277  0.00  0.00    +0.000 C 
ATOM     27  C   UNL     1       5.348   5.346  19.220  0.00  0.00    +0.000 C 
ATOM     28  C   UNL     1       3.931   5.169  19.684  0.00  0.00    +0.000 C 
BRANCH  26  29
ATOM     29  C   UNL     1       3.891   4.720  17.138  0.00  0.00    +0.000 C 
BRANCH  29  30
ATOM     30  O   UNL     1       5.048   3.959  16.756  0.00  0.00    +0.000 OA
BRANCH  30  31
ATOM     31  N   UNL     1       5.614   4.612  15.639  0.00  0.00    +0.000 NA
ATOM     32  C   UNL     1       6.893   4.739  15.739  0.00  0.00    +0.000 C 
ATOM     33  N   UNL     1       7.698   4.311  16.737  0.00  0.00    +0.000 N 
ATOM     34  N   UNL     1       7.617   5.355  14.778  0.00  0.00    +0.000 N 
ATOM     35  H   UNL     1       7.146   4.030  17.539  0.00  0.00    +0.000 HD
ATOM     36  H   UNL     1       8.420   4.979  16.974  0.00  0.00    +0.000 HD
ATOM     37  H   UNL     1       7.068   5.436  13.926  0.00  0.00    +0.000 HD
ATOM     38  H   UNL     1       8.501   4.897  14.597  0.00  0.00    +0.000 HD
ENDBRANCH  30  31
ENDBRANCH  29  30
ENDBRANCH  26  29
ENDBRANCH  25  26
ENDBRANCH  24  25
ENDBRANCH   5  24
TORSDOF 12
ENDMDL
MODEL 4
REMARK VINA RESULT:      -7.5      4.906      8.843
REMARK  Name = 
REMARK  13 active torsions:
REMARK  status: ('A' for Active; 'I' for Inactive)
REMARK    1  A    between atoms: C_1  and  S_2
REMARK    2  A    between atoms: S_2  and  C_5
REMARK    3  A    between atoms: C_10  and  S_11
REMARK    4  A    between atoms: S_11  and  O_14
REMARK    5  A    between atoms: O_14  and  C_15
REMARK    6  A    between atoms: C_17  and  C_18
REMARK    7  A    between atoms: C_18  and  O_19
REMARK    8  A    between atoms: C_21  and  O_22
REMARK    9  A    between atoms: O_22  and  C_23
REMARK   10  A    between atoms: C_23  and  C_24
REMARK   11  A    between atoms: C_24  and  C_25
REMARK   12  A    between atoms: C_25  and  O_26
REMARK   13  A    between atoms: O_26  and  N_27
REMARK                            x       y       z     vdW  Elec       q    Type
REMARK                         _______ _______ _______ _____ _____    ______ ____
ROOT
ATOM      1  C   UNL     1       2.218   8.268  17.799  0.00  0.00    +0.000 A 
ATOM      2  C   UNL     1       3.576   8.193  17.475  0.00  0.00    +0.000 A 
ATOM      3  C   UNL     1       4.262   6.977  17.537  0.00  0.00    +0.000 A 
ATOM      4  C   UNL     1       3.567   5.843  17.973  0.00  0.00    +0.000 A 
ATOM      5  C   UNL     1       2.197   5.898  18.243  0.00  0.00    +0.000 A 
ATOM      6  C   UNL     1       1.514   7.108  18.122  0.00  0.00    +0.000 A 
ENDROOT
BRANCH   1   7
ATOM      7  O   UNL     1       1.690   9.532  17.736  0.00  0.00    +0.000 OA
BRANCH   7   8
ATOM      8  S   UNL     1       0.829  10.231  18.924  0.00  0.00    +0.000 S 
ATOM      9  O   UNL     1       1.168   9.545  20.162  0.00  0.00    +0.000 OA
ATOM     10  O   UNL     1      -0.566  10.310  18.543  0.00  0.00    +0.000 OA
BRANCH   8  16
ATOM     11  C   UNL     1       0.887  12.807  20.098  0.00  0.00    +0.000 A 
ATOM     12  C   UNL     1       1.367  14.131  20.126  0.00  0.00    +0.000 A 
ATOM     13  C   UNL     1       2.345  14.554  19.227  0.00  0.00    +0.000 A 
ATOM     14  C   UNL     1       2.860  13.657  18.302  0.00  0.00    +0.000 A 
ATOM     15  C   UNL     1       2.373  12.358  18.241  0.00  0.00    +0.000 A 
ATOM     16  C   UNL     1       1.362  11.925  19.117  0.00  0.00    +0.000 A 
BRANCH  11  18
ATOM     17  C   UNL     1      -0.469  13.875  22.302  0.00  0.00    +0.000 C 
ATOM     18  S   UNL     1      -0.304  12.383  21.352  0.00  0.00    +0.000 S 
ATOM     19  O   UNL     1       0.244  11.335  22.180  0.00  0.00    +0.000 OA
ATOM     20  O   UNL     1      -1.572  12.159  20.678  0.00  0.00    +0.000 OA
ENDBRANCH  11  18
ENDBRANCH   8  16
ENDBRANCH   7   8
ENDBRANCH   1   7
BRANCH   3  21
ATOM     21  C   UNL     1       5.699   6.871  17.110  0.00  0.00    +0.000 C 
BRANCH  21  22
ATOM     22  O   UNL     1       6.353   5.811  17.790  0.00  0.00    +0.000 OA
ATOM     23  H   UNL     1       5.937   4.986  17.487  0.00  0.00    +0.000 HD
ENDBRANCH  21  22
ENDBRANCH   3  21
BRANCH   5  24
ATOM     24  O   UNL     1       1.660   4.708  18.640  0.00  0.00    +0.000 OA
BRANCH  24  25
ATOM     25  C   UNL     1       1.359   4.528  20.023  0.00  0.00    +0.000 C 
BRANCH  25  26
ATOM     26  C   UNL     1       1.728   3.105  20.386  0.00  0.00    +0.000 C 
ATOM     27  C   UNL     1       2.683   2.847  21.538  0.00  0.00    +0.000 C 
ATOM     28  C   UNL     1       1.215   2.585  21.718  0.00  0.00    +0.000 C 
BRANCH  26  29
ATOM     29  C   UNL     1       1.701   2.136  19.219  0.00  0.00    +0.000 C 
BRANCH  29  30
ATOM     30  O   UNL     1       2.983   1.521  19.015  0.00  0.00    +0.000 OA
BRANCH  30  31
ATOM     31  N   UNL     1       3.459   1.977  17.766  0.00  0.00    +0.000 NA
ATOM     32  C   UNL     1       4.525   2.693  17.876  0.00  0.00    +0.000 C 
ATOM     33  N   UNL     1       5.204   3.010  19.001  0.00  0.00    +0.000 N 
ATOM     34  N   UNL     1       5.123   3.238  16.793  0.00  0.00    +0.000 N 
ATOM     35  H   UNL     1       4.656   2.775  19.821  0.00  0.00    +0.000 HD
ATOM     36  H   UNL     1       5.526   3.970  19.009  0.00  0.00    +0.000 HD
ATOM     37  H   UNL     1       4.781   2.792  15.945  0.00  0.00    +0.000 HD
ATOM     38  H   UNL     1       6.133   3.199  16.841  0.00  0.00    +0.000 HD
ENDBRANCH  30  31
ENDBRANCH  29  30
ENDBRANCH  26  29
ENDBRANCH  25  26
ENDBRANCH  24  25
ENDBRANCH   5  24
TORSDOF 12
ENDMDL
MODEL 5
REMARK VINA RESULT:      -7.5      4.715      9.134
REMARK  Name = 
REMARK  13 active torsions:
REMARK  status: ('A' for Active; 'I' for Inactive)
REMARK    1  A    between atoms: C_1  and  S_2
REMARK    2  A    between atoms: S_2  and  C_5
REMARK    3  A    between atoms: C_10  and  S_11
REMARK    4  A    between atoms: S_11  and  O_14
REMARK    5  A    between atoms: O_14  and  C_15
REMARK    6  A    between atoms: C_17  and  C_18
REMARK    7  A    between atoms: C_18  and  O_19
REMARK    8  A    between atoms: C_21  and  O_22
REMARK    9  A    between atoms: O_22  and  C_23
REMARK   10  A    between atoms: C_23  and  C_24
REMARK   11  A    between atoms: C_24  and  C_25
REMARK   12  A    between atoms: C_25  and  O_26
REMARK   13  A    between atoms: O_26  and  N_27
REMARK                            x       y       z     vdW  Elec       q    Type
REMARK                         _______ _______ _______ _____ _____    ______ ____
ROOT
ATOM      1  C   UNL     1       2.194   7.288  19.315  0.00  0.00    +0.000 A 
ATOM      2  C   UNL     1       1.846   6.378  20.319  0.00  0.00    +0.000 A 
ATOM      3  C   UNL     1       2.215   5.034  20.227  0.00  0.00    +0.000 A 
ATOM      4  C   UNL     1       2.905   4.609  19.085  0.00  0.00    +0.000 A 
ATOM      5  C   UNL     1       3.307   5.523  18.106  0.00  0.00    +0.000 A 
ATOM      6  C   UNL     1       2.979   6.872  18.240  0.00  0.00    +0.000 A 
ENDROOT
BRANCH   1   7
ATOM      7  O   UNL     1       1.727   8.562  19.518  0.00  0.00    +0.000 OA
BRANCH   7   8
ATOM      8  S   UNL     1       1.403   9.624  18.332  0.00  0.00    +0.000 S 
ATOM      9  O   UNL     1       1.252   8.861  17.102  0.00  0.00    +0.000 OA
ATOM     10  O   UNL     1       2.368  10.703  18.358  0.00  0.00    +0.000 OA
BRANCH   8  16
ATOM     11  C   UNL     1      -0.465  11.201  19.761  0.00  0.00    +0.000 A 
ATOM     12  C   UNL     1      -1.762  11.729  19.911  0.00  0.00    +0.000 A 
ATOM     13  C   UNL     1      -2.740  11.504  18.945  0.00  0.00    +0.000 A 
ATOM     14  C   UNL     1      -2.429  10.762  17.814  0.00  0.00    +0.000 A 
ATOM     15  C   UNL     1      -1.164  10.208  17.668  0.00  0.00    +0.000 A 
ATOM     16  C   UNL     1      -0.176  10.396  18.650  0.00  0.00    +0.000 A 
BRANCH  11  18
ATOM     17  C   UNL     1       1.791  12.788  20.236  0.00  0.00    +0.000 C 
ATOM     18  S   UNL     1       0.704  11.631  21.033  0.00  0.00    +0.000 S 
ATOM     19  O   UNL     1       1.443  10.448  21.408  0.00  0.00    +0.000 OA
ATOM     20  O   UNL     1      -0.027  12.360  22.055  0.00  0.00    +0.000 OA
ENDBRANCH  11  18
ENDBRANCH   8  16
ENDBRANCH   7   8
ENDBRANCH   1   7
BRANCH   3  21
ATOM     21  C   UNL     1       1.917   4.067  21.339  0.00  0.00    +0.000 C 
BRANCH  21  22
ATOM     22  O   UNL     1       0.842   3.209  20.990  0.00  0.00    +0.000 OA
ATOM     23  H   UNL     1       0.145   3.773  20.615  0.00  0.00    +0.000 HD
ENDBRANCH  21  22
ENDBRANCH   3  21
BRANCH   5  24
ATOM     24  O   UNL     1       3.985   4.960  17.065  0.00  0.00    +0.000 OA
BRANCH  24  25
ATOM     25  C   UNL     1       4.938   5.758  16.365  0.00  0.00    +0.000 C 
BRANCH  25  26
ATOM     26  C   UNL     1       5.844   4.816  15.601  0.00  0.00    +0.000 C 
ATOM     27  C   UNL     1       5.424   4.318  14.230  0.00  0.00    +0.000 C 
ATOM     28  C   UNL     1       6.494   5.365  14.342  0.00  0.00    +0.000 C 
BRANCH  26  29
ATOM     29  C   UNL     1       6.702   3.925  16.479  0.00  0.00    +0.000 C 
BRANCH  29  30
ATOM     30  O   UNL     1       7.917   4.586  16.870  0.00  0.00    +0.000 OA
BRANCH  30  31
ATOM     31  N   UNL     1       8.036   4.425  18.268  0.00  0.00    +0.000 NA
ATOM     32  C   UNL     1       7.980   5.547  18.900  0.00  0.00    +0.000 C 
ATOM     33  N   UNL     1       7.804   6.785  18.387  0.00  0.00    +0.000 N 
ATOM     34  N   UNL     1       8.094   5.604  20.246  0.00  0.00    +0.000 N 
ATOM     35  H   UNL     1       7.916   6.768  17.379  0.00  0.00    +0.000 HD
ATOM     36  H   UNL     1       8.386   7.482  18.833  0.00  0.00    +0.000 HD
ATOM     37  H   UNL     1       7.959   4.679  20.646  0.00  0.00    +0.000 HD
ATOM     38  H   UNL     1       7.464   6.276  20.665  0.00  0.00    +0.000 HD
ENDBRANCH  30  31
ENDBRANCH  29  30
ENDBRANCH  26  29
ENDBRANCH  25  26
ENDBRANCH  24  25
ENDBRANCH   5  24
TORSDOF 12
ENDMDL
MODEL 6
REMARK VINA RESULT:      -7.4      4.704      9.074
REMARK  Name = 
REMARK  13 active torsions:
REMARK  status: ('A' for Active; 'I' for Inactive)
REMARK    1  A    between atoms: C_1  and  S_2
REMARK    2  A    between atoms: S_2  and  C_5
REMARK    3  A    between atoms: C_10  and  S_11
REMARK    4  A    between atoms: S_11  and  O_14
REMARK    5  A    between atoms: O_14  and  C_15
REMARK    6  A    between atoms: C_17  and  C_18
REMARK    7  A    between atoms: C_18  and  O_19
REMARK    8  A    between atoms: C_21  and  O_22
REMARK    9  A    between atoms: O_22  and  C_23
REMARK   10  A    between atoms: C_23  and  C_24
REMARK   11  A    between atoms: C_24  and  C_25
REMARK   12  A    between atoms: C_25  and  O_26
REMARK   13  A    between atoms: O_26  and  N_27
REMARK                            x       y       z     vdW  Elec       q    Type
REMARK                         _______ _______ _______ _____ _____    ______ ____
ROOT
ATOM      1  C   UNL     1       2.770   6.559  18.857  0.00  0.00    +0.000 A 
ATOM      2  C   UNL     1       1.977   5.730  19.657  0.00  0.00    +0.000 A 
ATOM      3  C   UNL     1       1.847   4.369  19.371  0.00  0.00    +0.000 A 
ATOM      4  C   UNL     1       2.495   3.862  18.238  0.00  0.00    +0.000 A 
ATOM      5  C   UNL     1       3.335   4.671  17.468  0.00  0.00    +0.000 A 
ATOM      6  C   UNL     1       3.499   6.016  17.800  0.00  0.00    +0.000 A 
ENDROOT
BRANCH   1   7
ATOM      7  O   UNL     1       2.767   7.879  19.232  0.00  0.00    +0.000 OA
BRANCH   7   8
ATOM      8  S   UNL     1       1.648   8.964  18.773  0.00  0.00    +0.000 S 
ATOM      9  O   UNL     1       0.687   8.263  17.934  0.00  0.00    +0.000 OA
ATOM     10  O   UNL     1       2.294  10.145  18.237  0.00  0.00    +0.000 OA
BRANCH   8  16
ATOM     11  C   UNL     1      -0.244  10.514  20.199  0.00  0.00    +0.000 A 
ATOM     12  C   UNL     1      -0.856  10.892  21.411  0.00  0.00    +0.000 A 
ATOM     13  C   UNL     1      -0.520  10.261  22.607  0.00  0.00    +0.000 A 
ATOM     14  C   UNL     1       0.419   9.239  22.603  0.00  0.00    +0.000 A 
ATOM     15  C   UNL     1       1.055   8.879  21.422  0.00  0.00    +0.000 A 
ATOM     16  C   UNL     1       0.753   9.529  20.212  0.00  0.00    +0.000 A 
BRANCH  11  18
ATOM     17  C   UNL     1      -2.246  12.254  19.303  0.00  0.00    +0.000 C 
ATOM     18  S   UNL     1      -0.824  11.350  18.738  0.00  0.00    +0.000 S 
ATOM     19  O   UNL     1      -1.229  10.363  17.765  0.00  0.00    +0.000 OA
ATOM     20  O   UNL     1       0.189  12.325  18.374  0.00  0.00    +0.000 OA
ENDBRANCH  11  18
ENDBRANCH   8  16
ENDBRANCH   7   8
ENDBRANCH   1   7
BRANCH   3  21
ATOM     21  C   UNL     1       1.064   3.455  20.272  0.00  0.00    +0.000 C 
BRANCH  21  22
ATOM     22  O   UNL     1       1.620   3.434  21.578  0.00  0.00    +0.000 OA
ATOM     23  H   UNL     1       1.998   4.315  21.735  0.00  0.00    +0.000 HD
ENDBRANCH  21  22
ENDBRANCH   3  21
BRANCH   5  24
ATOM     24  O   UNL     1       3.908   4.029  16.409  0.00  0.00    +0.000 OA
BRANCH  24  25
ATOM     25  C   UNL     1       5.269   3.615  16.522  0.00  0.00    +0.000 C 
BRANCH  25  26
ATOM     26  C   UNL     1       6.066   4.397  15.499  0.00  0.00    +0.000 C 
ATOM     27  C   UNL     1       6.245   3.836  14.100  0.00  0.00    +0.000 C 
ATOM     28  C   UNL     1       5.291   4.973  14.325  0.00  0.00    +0.000 C 
BRANCH  26  29
ATOM     29  C   UNL     1       7.157   5.269  16.091  0.00  0.00    +0.000 C 
BRANCH  29  30
ATOM     30  O   UNL     1       6.666   6.049  17.193  0.00  0.00    +0.000 OA
BRANCH  30  31
ATOM     31  N   UNL     1       7.714   6.124  18.137  0.00  0.00    +0.000 NA
ATOM     32  C   UNL     1       7.434   5.507  19.234  0.00  0.00    +0.000 C 
ATOM     33  N   UNL     1       6.312   4.817  19.539  0.00  0.00    +0.000 N 
ATOM     34  N   UNL     1       8.303   5.480  20.268  0.00  0.00    +0.000 N 
ATOM     35  H   UNL     1       5.588   4.999  18.853  0.00  0.00    +0.000 HD
ATOM     36  H   UNL     1       5.999   4.975  20.489  0.00  0.00    +0.000 HD
ATOM     37  H   UNL     1       9.229   5.759  19.953  0.00  0.00    +0.000 HD
ATOM     38  H   UNL     1       8.334   4.581  20.732  0.00  0.00    +0.000 HD
ENDBRANCH  30  31
ENDBRANCH  29  30
ENDBRANCH  26  29
ENDBRANCH  25  26
ENDBRANCH  24  25
ENDBRANCH   5  24
TORSDOF 12
ENDMDL
MODEL 7
REMARK VINA RESULT:      -7.4      4.276      9.179
REMARK  Name = 
REMARK  13 active torsions:
REMARK  status: ('A' for Active; 'I' for Inactive)
REMARK    1  A    between atoms: C_1  and  S_2
REMARK    2  A    between atoms: S_2  and  C_5
REMARK    3  A    between atoms: C_10  and  S_11
REMARK    4  A    between atoms: S_11  and  O_14
REMARK    5  A    between atoms: O_14  and  C_15
REMARK    6  A    between atoms: C_17  and  C_18
REMARK    7  A    between atoms: C_18  and  O_19
REMARK    8  A    between atoms: C_21  and  O_22
REMARK    9  A    between atoms: O_22  and  C_23
REMARK   10  A    between atoms: C_23  and  C_24
REMARK   11  A    between atoms: C_24  and  C_25
REMARK   12  A    between atoms: C_25  and  O_26
REMARK   13  A    between atoms: O_26  and  N_27
REMARK                            x       y       z     vdW  Elec       q    Type
REMARK                         _______ _______ _______ _____ _____    ______ ____
ROOT
ATOM      1  C   UNL     1       0.285  10.342  18.810  0.00  0.00    +0.000 A 
ATOM      2  C   UNL     1       0.249  10.223  20.203  0.00  0.00    +0.000 A 
ATOM      3  C   UNL     1       0.993   9.237  20.857  0.00  0.00    +0.000 A 
ATOM      4  C   UNL     1       1.741   8.344  20.082  0.00  0.00    +0.000 A 
ATOM      5  C   UNL     1       1.828   8.493  18.695  0.00  0.00    +0.000 A 
ATOM      6  C   UNL     1       1.124   9.517  18.062  0.00  0.00    +0.000 A 
ENDROOT
BRANCH   1   7
ATOM      7  O   UNL     1      -0.529  11.325  18.305  0.00  0.00    +0.000 OA
BRANCH   7   8
ATOM      8  S   UNL     1      -2.116  11.144  18.009  0.00  0.00    +0.000 S 
ATOM      9  O   UNL     1      -2.441   9.746  18.250  0.00  0.00    +0.000 OA
ATOM     10  O   UNL     1      -2.447  11.713  16.719  0.00  0.00    +0.000 OA
BRANCH   8  16
ATOM     11  C   UNL     1      -4.442  12.237  19.196  0.00  0.00    +0.000 A 
ATOM     12  C   UNL     1      -5.056  13.043  20.176  0.00  0.00    +0.000 A 
ATOM     13  C   UNL     1      -4.299  13.655  21.172  0.00  0.00    +0.000 A 
ATOM     14  C   UNL     1      -2.926  13.458  21.209  0.00  0.00    +0.000 A 
ATOM     15  C   UNL     1      -2.303  12.693  20.231  0.00  0.00    +0.000 A 
ATOM     16  C   UNL     1      -3.047  12.097  19.199  0.00  0.00    +0.000 A 
BRANCH  11  18
ATOM     17  C   UNL     1      -7.158  11.902  18.606  0.00  0.00    +0.000 C 
ATOM     18  S   UNL     1      -5.538  11.456  18.031  0.00  0.00    +0.000 S 
ATOM     19  O   UNL     1      -5.367  10.024  18.117  0.00  0.00    +0.000 OA
ATOM     20  O   UNL     1      -5.339  12.114  16.751  0.00  0.00    +0.000 OA
ENDBRANCH  11  18
ENDBRANCH   8  16
ENDBRANCH   7   8
ENDBRANCH   1   7
BRANCH   3  21
ATOM     21  C   UNL     1       1.025   9.155  22.358  0.00  0.00    +0.000 C 
BRANCH  21  22
ATOM     22  O   UNL     1       2.358   9.225  22.841  0.00  0.00    +0.000 OA
ATOM     23  H   UNL     1       2.494   8.441  23.400  0.00  0.00    +0.000 HD
ENDBRANCH  21  22
ENDBRANCH   3  21
BRANCH   5  24
ATOM     24  O   UNL     1       2.609   7.557  18.083  0.00  0.00    +0.000 OA
BRANCH  24  25
ATOM     25  C   UNL     1       3.031   6.425  18.841  0.00  0.00    +0.000 C 
BRANCH  25  26
ATOM     26  C   UNL     1       4.082   5.699  18.027  0.00  0.00    +0.000 C 
ATOM     27  C   UNL     1       5.233   6.481  17.421  0.00  0.00    +0.000 C 
ATOM     28  C   UNL     1       5.475   5.620  18.627  0.00  0.00    +0.000 C 
BRANCH  26  29
ATOM     29  C   UNL     1       3.574   4.460  17.315  0.00  0.00    +0.000 C 
BRANCH  29  30
ATOM     30  O   UNL     1       2.147   4.336  17.430  0.00  0.00    +0.000 OA
BRANCH  30  31
ATOM     31  N   UNL     1       1.867   2.955  17.538  0.00  0.00    +0.000 NA
ATOM     32  C   UNL     1       1.316   2.651  18.663  0.00  0.00    +0.000 C 
ATOM     33  N   UNL     1       0.979   3.478  19.677  0.00  0.00    +0.000 N 
ATOM     34  N   UNL     1       0.988   1.374  18.964  0.00  0.00    +0.000 N 
ATOM     35  H   UNL     1       1.397   4.392  19.541  0.00  0.00    +0.000 HD
ATOM     36  H   UNL     1       1.183   3.087  20.588  0.00  0.00    +0.000 HD
ATOM     37  H   UNL     1       0.992   0.805  18.121  0.00  0.00    +0.000 HD
ATOM     38  H   UNL     1       0.102   1.300  19.448  0.00  0.00    +0.000 HD
ENDBRANCH  30  31
ENDBRANCH  29  30
ENDBRANCH  26  29
ENDBRANCH  25  26
ENDBRANCH  24  25
ENDBRANCH   5  24
TORSDOF 12
ENDMDL
MODEL 8
REMARK VINA RESULT:      -7.4      2.694      3.507
REMARK  Name = 
REMARK  13 active torsions:
REMARK  status: ('A' for Active; 'I' for Inactive)
REMARK    1  A    between atoms: C_1  and  S_2
REMARK    2  A    between atoms: S_2  and  C_5
REMARK    3  A    between atoms: C_10  and  S_11
REMARK    4  A    between atoms: S_11  and  O_14
REMARK    5  A    between atoms: O_14  and  C_15
REMARK    6  A    between atoms: C_17  and  C_18
REMARK    7  A    between atoms: C_18  and  O_19
REMARK    8  A    between atoms: C_21  and  O_22
REMARK    9  A    between atoms: O_22  and  C_23
REMARK   10  A    between atoms: C_23  and  C_24
REMARK   11  A    between atoms: C_24  and  C_25
REMARK   12  A    between atoms: C_25  and  O_26
REMARK   13  A    between atoms: O_26  and  N_27
REMARK                            x       y       z     vdW  Elec       q    Type
REMARK                         _______ _______ _______ _____ _____    ______ ____
ROOT
ATOM      1  C   UNL     1       1.517   8.519  19.729  0.00  0.00    +0.000 A 
ATOM      2  C   UNL     1       1.085   8.447  21.057  0.00  0.00    +0.000 A 
ATOM      3  C   UNL     1       0.049   9.262  21.519  0.00  0.00    +0.000 A 
ATOM      4  C   UNL     1      -0.518  10.184  20.632  0.00  0.00    +0.000 A 
ATOM      5  C   UNL     1      -0.133  10.221  19.288  0.00  0.00    +0.000 A 
ATOM      6  C   UNL     1       0.865   9.361  18.829  0.00  0.00    +0.000 A 
ENDROOT
BRANCH   1   7
ATOM      7  O   UNL     1       2.571   7.692  19.430  0.00  0.00    +0.000 OA
BRANCH   7   8
ATOM      8  S   UNL     1       2.860   7.063  17.960  0.00  0.00    +0.000 S 
ATOM      9  O   UNL     1       2.985   8.177  17.033  0.00  0.00    +0.000 OA
ATOM     10  O   UNL     1       1.888   6.030  17.665  0.00  0.00    +0.000 OA
BRANCH   8  16
ATOM     11  C   UNL     1       4.680   4.976  18.552  0.00  0.00    +0.000 A 
ATOM     12  C   UNL     1       5.984   4.442  18.524  0.00  0.00    +0.000 A 
ATOM     13  C   UNL     1       7.020   5.122  17.888  0.00  0.00    +0.000 A 
ATOM     14  C   UNL     1       6.762   6.334  17.262  0.00  0.00    +0.000 A 
ATOM     15  C   UNL     1       5.490   6.888  17.309  0.00  0.00    +0.000 A 
ATOM     16  C   UNL     1       4.442   6.233  17.977  0.00  0.00    +0.000 A 
BRANCH  11  18
ATOM     17  C   UNL     1       4.360   2.598  19.992  0.00  0.00    +0.000 C 
ATOM     18  S   UNL     1       3.440   3.966  19.332  0.00  0.00    +0.000 S 
ATOM     19  O   UNL     1       2.519   3.494  18.324  0.00  0.00    +0.000 OA
ATOM     20  O   UNL     1       2.922   4.721  20.461  0.00  0.00    +0.000 OA
ENDBRANCH  11  18
ENDBRANCH   8  16
ENDBRANCH   7   8
ENDBRANCH   1   7
BRANCH   3  21
ATOM     21  C   UNL     1      -0.476   9.134  22.921  0.00  0.00    +0.000 C 
BRANCH  21  22
ATOM     22  O   UNL     1       0.327   9.867  23.833  0.00  0.00    +0.000 OA
ATOM     23  H   UNL     1      -0.282  10.351  24.416  0.00  0.00    +0.000 HD
ENDBRANCH  21  22
ENDBRANCH   3  21
BRANCH   5  24
ATOM     24  O   UNL     1      -0.789  11.159  18.547  0.00  0.00    +0.000 OA
BRANCH  24  25
ATOM     25  C   UNL     1      -2.125  11.501  18.913  0.00  0.00    +0.000 C 
BRANCH  25  26
ATOM     26  C   UNL     1      -3.033  11.050  17.789  0.00  0.00    +0.000 C 
ATOM     27  C   UNL     1      -2.428  10.487  16.516  0.00  0.00    +0.000 C 
ATOM     28  C   UNL     1      -3.074   9.558  17.503  0.00  0.00    +0.000 C 
BRANCH  26  29
ATOM     29  C   UNL     1      -4.352  11.796  17.714  0.00  0.00    +0.000 C 
BRANCH  29  30
ATOM     30  O   UNL     1      -4.980  11.883  19.003  0.00  0.00    +0.000 OA
BRANCH  30  31
ATOM     31  N   UNL     1      -6.125  11.059  18.954  0.00  0.00    +0.000 NA
ATOM     32  C   UNL     1      -6.770  11.044  20.071  0.00  0.00    +0.000 C 
ATOM     33  N   UNL     1      -6.486  11.720  21.206  0.00  0.00    +0.000 N 
ATOM     34  N   UNL     1      -7.886  10.298  20.230  0.00  0.00    +0.000 N 
ATOM     35  H   UNL     1      -5.555  12.119  21.156  0.00  0.00    +0.000 HD
ATOM     36  H   UNL     1      -6.629  11.165  22.041  0.00  0.00    +0.000 HD
ATOM     37  H   UNL     1      -8.244  10.008  19.324  0.00  0.00    +0.000 HD
ATOM     38  H   UNL     1      -8.601  10.771  20.769  0.00  0.00    +0.000 HD
ENDBRANCH  30  31
ENDBRANCH  29  30
ENDBRANCH  26  29
ENDBRANCH  25  26
ENDBRANCH  24  25
ENDBRANCH   5  24
TORSDOF 12
ENDMDL
MODEL 9
REMARK VINA RESULT:      -7.4      4.466      8.858
REMARK  Name = 
REMARK  13 active torsions:
REMARK  status: ('A' for Active; 'I' for Inactive)
REMARK    1  A    between atoms: C_1  and  S_2
REMARK    2  A    between atoms: S_2  and  C_5
REMARK    3  A    between atoms: C_10  and  S_11
REMARK    4  A    between atoms: S_11  and  O_14
REMARK    5  A    between atoms: O_14  and  C_15
REMARK    6  A    between atoms: C_17  and  C_18
REMARK    7  A    between atoms: C_18  and  O_19
REMARK    8  A    between atoms: C_21  and  O_22
REMARK    9  A    between atoms: O_22  and  C_23
REMARK   10  A    between atoms: C_23  and  C_24
REMARK   11  A    between atoms: C_24  and  C_25
REMARK   12  A    between atoms: C_25  and  O_26
REMARK   13  A    between atoms: O_26  and  N_27
REMARK                            x       y       z     vdW  Elec       q    Type
REMARK                         _______ _______ _______ _____ _____    ______ ____
ROOT
ATOM      1  C   UNL     1       2.119   7.274  19.652  0.00  0.00    +0.000 A 
ATOM      2  C   UNL     1       1.489   6.262  20.385  0.00  0.00    +0.000 A 
ATOM      3  C   UNL     1       1.950   4.944  20.329  0.00  0.00    +0.000 A 
ATOM      4  C   UNL     1       3.030   4.652  19.488  0.00  0.00    +0.000 A 
ATOM      5  C   UNL     1       3.701   5.666  18.799  0.00  0.00    +0.000 A 
ATOM      6  C   UNL     1       3.264   6.986  18.909  0.00  0.00    +0.000 A 
ENDROOT
BRANCH   1   7
ATOM      7  O   UNL     1       1.532   8.508  19.770  0.00  0.00    +0.000 OA
BRANCH   7   8
ATOM      8  S   UNL     1       1.269   9.525  18.530  0.00  0.00    +0.000 S 
ATOM      9  O   UNL     1       1.102   8.711  17.335  0.00  0.00    +0.000 OA
ATOM     10  O   UNL     1       2.279  10.563  18.519  0.00  0.00    +0.000 OA
BRANCH   8  16
ATOM     11  C   UNL     1      -0.560  11.219  19.872  0.00  0.00    +0.000 A 
ATOM     12  C   UNL     1      -1.836  11.810  19.976  0.00  0.00    +0.000 A 
ATOM     13  C   UNL     1      -2.797  11.609  18.987  0.00  0.00    +0.000 A 
ATOM     14  C   UNL     1      -2.490  10.828  17.881  0.00  0.00    +0.000 A 
ATOM     15  C   UNL     1      -1.249  10.213  17.782  0.00  0.00    +0.000 A 
ATOM     16  C   UNL     1      -0.281  10.377  18.787  0.00  0.00    +0.000 A 
BRANCH  11  18
ATOM     17  C   UNL     1       1.741  12.728  20.383  0.00  0.00    +0.000 C 
ATOM     18  S   UNL     1       0.593  11.622  21.167  0.00  0.00    +0.000 S 
ATOM     19  O   UNL     1       1.278  10.418  21.575  0.00  0.00    +0.000 OA
ATOM     20  O   UNL     1      -0.135  12.391  22.163  0.00  0.00    +0.000 OA
ENDBRANCH  11  18
ENDBRANCH   8  16
ENDBRANCH   7   8
ENDBRANCH   1   7
BRANCH   3  21
ATOM     21  C   UNL     1       1.331   3.868  21.176  0.00  0.00    +0.000 C 
BRANCH  21  22
ATOM     22  O   UNL     1       2.253   3.392  22.144  0.00  0.00    +0.000 OA
ATOM     23  H   UNL     1       3.116   3.328  21.701  0.00  0.00    +0.000 HD
ENDBRANCH  21  22
ENDBRANCH   3  21
BRANCH   5  24
ATOM     24  O   UNL     1       4.742   5.225  18.036  0.00  0.00    +0.000 OA
BRANCH  24  25
ATOM     25  C   UNL     1       6.014   5.054  18.659  0.00  0.00    +0.000 C 
BRANCH  25  26
ATOM     26  C   UNL     1       7.045   5.729  17.778  0.00  0.00    +0.000 C 
ATOM     27  C   UNL     1       6.958   7.225  17.535  0.00  0.00    +0.000 C 
ATOM     28  C   UNL     1       8.007   6.684  18.464  0.00  0.00    +0.000 C 
BRANCH  26  29
ATOM     29  C   UNL     1       7.624   4.837  16.697  0.00  0.00    +0.000 C 
BRANCH  29  30
ATOM     30  O   UNL     1       7.245   5.286  15.386  0.00  0.00    +0.000 OA
BRANCH  30  31
ATOM     31  N   UNL     1       6.538   4.224  14.781  0.00  0.00    +0.000 NA
ATOM     32  C   UNL     1       6.739   4.160  13.509  0.00  0.00    +0.000 C 
ATOM     33  N   UNL     1       7.533   4.948  12.750  0.00  0.00    +0.000 N 
ATOM     34  N   UNL     1       6.135   3.221  12.747  0.00  0.00    +0.000 N 
ATOM     35  H   UNL     1       7.828   5.763  13.276  0.00  0.00    +0.000 HD
ATOM     36  H   UNL     1       7.114   5.187  11.860  0.00  0.00    +0.000 HD
ATOM     37  H   UNL     1       5.761   2.482  13.336  0.00  0.00    +0.000 HD
ATOM     38  H   UNL     1       6.745   2.843  12.033  0.00  0.00    +0.000 HD
ENDBRANCH  30  31
ENDBRANCH  29  30
ENDBRANCH  26  29
ENDBRANCH  25  26
ENDBRANCH  24  25
ENDBRANCH   5  24
TORSDOF 12
ENDMDL
