MODEL 1
REMARK VINA RESULT:      -7.6      0.000      0.000
REMARK  Name = 
REMARK  9 active torsions:
REMARK  status: ('A' for Active; 'I' for Inactive)
REMARK    1  A    between atoms: C_1  and  C_2
REMARK    2  A    between atoms: C_3  and  C_4
REMARK    3  A    between atoms: C_4  and  C_5
REMARK    4  A    between atoms: C_4  and  C_9
REMARK    5  A    between atoms: C_5  and  C_6
REMARK    6  A    between atoms: C_6  and  O_8
REMARK    7  A    between atoms: C_12  and  O_13
REMARK    8  A    between atoms: O_13  and  C_14
REMARK    9  A    between atoms: C_14  and  C_15
REMARK                            x       y       z     vdW  Elec       q    Type
REMARK                         _______ _______ _______ _____ _____    ______ ____
ROOT
ATOM      1  C   UNL     1       4.806   5.937  17.737  0.00  0.00    +0.000 A 
ATOM      2  C   UNL     1       4.436   7.049  16.950  0.00  0.00    +0.000 A 
ATOM      3  C   UNL     1       3.345   7.793  17.269  0.00  0.00    +0.000 A 
ATOM      4  C   UNL     1       2.521   7.493  18.342  0.00  0.00    +0.000 A 
ATOM      5  C   UNL     1       2.862   6.391  19.160  0.00  0.00    +0.000 A 
ATOM      6  C   UNL     1       4.007   5.637  18.845  0.00  0.00    +0.000 A 
ENDROOT
BRANCH   1   7
ATOM      7  C   UNL     1       6.013   5.087  17.362  0.00  0.00    +0.000 C 
BRANCH   7  10
ATOM      8  C   UNL     1       5.635   3.733  13.251  0.00  0.00    +0.000 C 
ATOM      9  C   UNL     1       5.767   4.207  14.690  0.00  0.00    +0.000 C 
ATOM     10  C   UNL     1       5.881   4.613  15.924  0.00  0.00    +0.000 C 
ENDBRANCH   7  10
BRANCH   7  11
ATOM     11  C   UNL     1       7.327   5.867  17.506  0.00  0.00    +0.000 C 
BRANCH  11  12
ATOM     12  C   UNL     1       7.745   6.053  18.945  0.00  0.00    +0.000 C 
ATOM     13  O   UNL     1       7.371   5.346  19.872  0.00  0.00    +0.000 OA
BRANCH  12  14
ATOM     14  O   UNL     1       8.576   7.105  19.135  0.00  0.00    +0.000 OA
ATOM     15  H   UNL     1       9.178   7.277  18.384  0.00  0.00    +0.000 HD
ENDBRANCH  12  14
ENDBRANCH  11  12
ENDBRANCH   7  11
ENDBRANCH   1   7
BRANCH   4  16
ATOM     16  O   UNL     1       1.380   8.251  18.580  0.00  0.00    +0.000 OA
BRANCH  16  17
ATOM     17  C   UNL     1       1.637   9.388  19.459  0.00  0.00    +0.000 C 
BRANCH  17  18
ATOM     18  C   UNL     1       0.521   9.645  20.469  0.00  0.00    +0.000 C 
ATOM     19  C   UNL     1       1.049   9.657  21.904  0.00  0.00    +0.000 C 
ATOM     20  O   UNL     1       0.200  10.282  22.877  0.00  0.00    +0.000 OA
ATOM     21  C   UNL     1      -0.778  11.090  22.380  0.00  0.00    +0.000 A 
ATOM     22  C   UNL     1      -1.660  11.660  23.301  0.00  0.00    +0.000 A 
ATOM     23  C   UNL     1      -2.752  12.420  22.859  0.00  0.00    +0.000 A 
ATOM     24 BR   UNL     1      -3.989  13.033  24.164  0.00  0.00    +0.000 Br
ATOM     25  C   UNL     1      -2.923  12.661  21.491  0.00  0.00    +0.000 A 
ATOM     26 CL   UNL     1      -4.224  13.606  20.860  0.00  0.00    +0.000 Cl
ATOM     27  C   UNL     1      -2.009  12.132  20.579  0.00  0.00    +0.000 A 
ATOM     28  C   UNL     1      -0.946  11.344  21.021  0.00  0.00    +0.000 A 
ATOM     29  O   UNL     1      -0.087  10.883  20.076  0.00  0.00    +0.000 OA
ENDBRANCH  17  18
ENDBRANCH  16  17
ENDBRANCH   4  16
TORSDOF 8
ENDMDL
MODEL 2
REMARK VINA RESULT:      -7.5      6.604      9.892
REMARK  Name = 
REMARK  9 active torsions:
REMARK  status: ('A' for Active; 'I' for Inactive)
REMARK    1  A    between atoms: C_1  and  C_2
REMARK    2  A    between atoms: C_3  and  C_4
REMARK    3  A    between atoms: C_4  and  C_5
REMARK    4  A    between atoms: C_4  and  C_9
REMARK    5  A    between atoms: C_5  and  C_6
REMARK    6  A    between atoms: C_6  and  O_8
REMARK    7  A    between atoms: C_12  and  O_13
REMARK    8  A    between atoms: O_13  and  C_14
REMARK    9  A    between atoms: C_14  and  C_15
REMARK                            x       y       z     vdW  Elec       q    Type
REMARK                         _______ _______ _______ _____ _____    ______ ____
ROOT
ATOM      1  C   UNL     1       9.740  12.583  19.223  0.00  0.00    +0.000 A 
ATOM      2  C   UNL     1       9.768  11.680  20.307  0.00  0.00    +0.000 A 
ATOM      3  C   UNL     1       9.443  10.373  20.131  0.00  0.00    +0.000 A 
ATOM      4  C   UNL     1       9.033   9.861  18.911  0.00  0.00    +0.000 A 
ATOM      5  C   UNL     1       8.999  10.731  17.797  0.00  0.00    +0.000 A 
ATOM      6  C   UNL     1       9.362  12.078  17.974  0.00  0.00    +0.000 A 
ENDROOT
BRANCH   1   7
ATOM      7  C   UNL     1      10.078  14.055  19.427  0.00  0.00    +0.000 C 
BRANCH   7  10
ATOM      8  C   UNL     1       9.101  15.235  23.492  0.00  0.00    +0.000 C 
ATOM      9  C   UNL     1       9.444  14.822  22.070  0.00  0.00    +0.000 C 
ATOM     10  C   UNL     1       9.736  14.467  20.849  0.00  0.00    +0.000 C 
ENDBRANCH   7  10
BRANCH   7  11
ATOM     11  C   UNL     1      11.564  14.338  19.174  0.00  0.00    +0.000 C 
BRANCH  11  12
ATOM     12  C   UNL     1      11.824  14.947  17.816  0.00  0.00    +0.000 C 
ATOM     13  O   UNL     1      12.223  14.323  16.843  0.00  0.00    +0.000 OA
BRANCH  12  14
ATOM     14  O   UNL     1      11.587  16.280  17.768  0.00  0.00    +0.000 OA
ATOM     15  H   UNL     1      10.671  16.530  17.997  0.00  0.00    +0.000 HD
ENDBRANCH  12  14
ENDBRANCH  11  12
ENDBRANCH   7  11
ENDBRANCH   1   7
BRANCH   4  16
ATOM     16  O   UNL     1       8.648   8.528  18.807  0.00  0.00    +0.000 OA
BRANCH  16  17
ATOM     17  C   UNL     1       7.838   8.271  17.621  0.00  0.00    +0.000 C 
BRANCH  17  18
ATOM     18  C   UNL     1       7.193   6.887  17.608  0.00  0.00    +0.000 C 
ATOM     19  C   UNL     1       7.830   5.956  18.640  0.00  0.00    +0.000 C 
ATOM     20  O   UNL     1       7.059   4.802  19.001  0.00  0.00    +0.000 OA
ATOM     21  C   UNL     1       5.737   4.845  18.675  0.00  0.00    +0.000 A 
ATOM     22  C   UNL     1       4.975   3.708  18.956  0.00  0.00    +0.000 A 
ATOM     23  C   UNL     1       3.633   3.639  18.559  0.00  0.00    +0.000 A 
ATOM     24 BR   UNL     1       2.710   2.003  18.842  0.00  0.00    +0.000 Br
ATOM     25  C   UNL     1       3.035   4.740  17.934  0.00  0.00    +0.000 A 
ATOM     26 CL   UNL     1       1.382   4.751  17.433  0.00  0.00    +0.000 Cl
ATOM     27  C   UNL     1       3.787   5.892  17.702  0.00  0.00    +0.000 A 
ATOM     28  C   UNL     1       5.133   5.942  18.064  0.00  0.00    +0.000 A 
ATOM     29  O   UNL     1       5.792   7.105  17.827  0.00  0.00    +0.000 OA
ENDBRANCH  17  18
ENDBRANCH  16  17
ENDBRANCH   4  16
TORSDOF 8
ENDMDL
MODEL 3
REMARK VINA RESULT:      -7.4      1.913      2.224
REMARK  Name = 
REMARK  9 active torsions:
REMARK  status: ('A' for Active; 'I' for Inactive)
REMARK    1  A    between atoms: C_1  and  C_2
REMARK    2  A    between atoms: C_3  and  C_4
REMARK    3  A    between atoms: C_4  and  C_5
REMARK    4  A    between atoms: C_4  and  C_9
REMARK    5  A    between atoms: C_5  and  C_6
REMARK    6  A    between atoms: C_6  and  O_8
REMARK    7  A    between atoms: C_12  and  O_13
REMARK    8  A    between atoms: O_13  and  C_14
REMARK    9  A    between atoms: C_14  and  C_15
REMARK                            x       y       z     vdW  Elec       q    Type
REMARK                         _______ _______ _______ _____ _____    ______ ____
ROOT
ATOM      1  C   UNL     1       5.105   5.477  17.706  0.00  0.00    +0.000 A 
ATOM      2  C   UNL     1       4.829   6.676  17.012  0.00  0.00    +0.000 A 
ATOM      3  C   UNL     1       3.761   7.443  17.349  0.00  0.00    +0.000 A 
ATOM      4  C   UNL     1       2.868   7.088  18.348  0.00  0.00    +0.000 A 
ATOM      5  C   UNL     1       3.114   5.899  19.073  0.00  0.00    +0.000 A 
ATOM      6  C   UNL     1       4.236   5.118  18.741  0.00  0.00    +0.000 A 
ENDROOT
BRANCH   1   7
ATOM      7  C   UNL     1       6.288   4.603  17.308  0.00  0.00    +0.000 C 
BRANCH   7  10
ATOM      8  C   UNL     1       6.037   3.626  13.083  0.00  0.00    +0.000 C 
ATOM      9  C   UNL     1       6.124   3.968  14.562  0.00  0.00    +0.000 C 
ATOM     10  C   UNL     1       6.200   4.261  15.830  0.00  0.00    +0.000 C 
ENDBRANCH   7  10
BRANCH   7  11
ATOM     11  C   UNL     1       7.627   5.303  17.575  0.00  0.00    +0.000 C 
BRANCH  11  12
ATOM     12  C   UNL     1       7.759   5.799  18.995  0.00  0.00    +0.000 C 
ATOM     13  O   UNL     1       7.334   5.207  19.978  0.00  0.00    +0.000 OA
BRANCH  12  14
ATOM     14  O   UNL     1       8.387   6.995  19.093  0.00  0.00    +0.000 OA
ATOM     15  H   UNL     1       9.160   6.990  19.691  0.00  0.00    +0.000 HD
ENDBRANCH  12  14
ENDBRANCH  11  12
ENDBRANCH   7  11
ENDBRANCH   1   7
BRANCH   4  16
ATOM     16  O   UNL     1       1.754   7.880  18.603  0.00  0.00    +0.000 OA
BRANCH  16  17
ATOM     17  C   UNL     1       1.955   9.271  18.211  0.00  0.00    +0.000 C 
BRANCH  17  18
ATOM     18  C   UNL     1       0.799  10.190  18.601  0.00  0.00    +0.000 C 
ATOM     19  C   UNL     1       0.208   9.812  19.959  0.00  0.00    +0.000 C 
ATOM     20  O   UNL     1      -0.580  10.823  20.603  0.00  0.00    +0.000 OA
ATOM     21  C   UNL     1      -0.423  12.090  20.126  0.00  0.00    +0.000 A 
ATOM     22  C   UNL     1      -1.226  13.085  20.689  0.00  0.00    +0.000 A 
ATOM     23  C   UNL     1      -1.194  14.391  20.183  0.00  0.00    +0.000 A 
ATOM     24 BR   UNL     1      -2.424  15.648  20.901  0.00  0.00    +0.000 Br
ATOM     25  C   UNL     1      -0.307  14.715  19.149  0.00  0.00    +0.000 A 
ATOM     26 CL   UNL     1      -0.184  16.304  18.482  0.00  0.00    +0.000 Cl
ATOM     27  C   UNL     1       0.529  13.729  18.625  0.00  0.00    +0.000 A 
ATOM     28  C   UNL     1       0.466  12.421  19.106  0.00  0.00    +0.000 A 
ATOM     29  O   UNL     1       1.327  11.523  18.562  0.00  0.00    +0.000 OA
ENDBRANCH  17  18
ENDBRANCH  16  17
ENDBRANCH   4  16
TORSDOF 8
ENDMDL
MODEL 4
REMARK VINA RESULT:      -7.4      3.329      4.460
REMARK  Name = 
REMARK  9 active torsions:
REMARK  status: ('A' for Active; 'I' for Inactive)
REMARK    1  A    between atoms: C_1  and  C_2
REMARK    2  A    between atoms: C_3  and  C_4
REMARK    3  A    between atoms: C_4  and  C_5
REMARK    4  A    between atoms: C_4  and  C_9
REMARK    5  A    between atoms: C_5  and  C_6
REMARK    6  A    between atoms: C_6  and  O_8
REMARK    7  A    between atoms: C_12  and  O_13
REMARK    8  A    between atoms: O_13  and  C_14
REMARK    9  A    between atoms: C_14  and  C_15
REMARK                            x       y       z     vdW  Elec       q    Type
REMARK                         _______ _______ _______ _____ _____    ______ ____
ROOT
ATOM      1  C   UNL     1       2.987   6.370  19.016  0.00  0.00    +0.000 A 
ATOM      2  C   UNL     1       3.136   7.199  17.883  0.00  0.00    +0.000 A 
ATOM      3  C   UNL     1       2.546   8.420  17.833  0.00  0.00    +0.000 A 
ATOM      4  C   UNL     1       1.743   8.907  18.852  0.00  0.00    +0.000 A 
ATOM      5  C   UNL     1       1.575   8.111  20.009  0.00  0.00    +0.000 A 
ATOM      6  C   UNL     1       2.208   6.857  20.071  0.00  0.00    +0.000 A 
ENDROOT
BRANCH   1   7
ATOM      7  C   UNL     1       3.626   4.988  19.059  0.00  0.00    +0.000 C 
BRANCH   7  10
ATOM      8  C   UNL     1       1.572   2.505  21.972  0.00  0.00    +0.000 C 
ATOM      9  C   UNL     1       2.290   3.374  20.952  0.00  0.00    +0.000 C 
ATOM     10  C   UNL     1       2.908   4.120  20.078  0.00  0.00    +0.000 C 
ENDBRANCH   7  10
BRANCH   7  11
ATOM     11  C   UNL     1       3.572   4.293  17.692  0.00  0.00    +0.000 C 
BRANCH  11  12
ATOM     12  C   UNL     1       2.284   3.537  17.467  0.00  0.00    +0.000 C 
ATOM     13  O   UNL     1       1.193   4.064  17.294  0.00  0.00    +0.000 OA
BRANCH  12  14
ATOM     14  O   UNL     1       2.437   2.192  17.490  0.00  0.00    +0.000 OA
ATOM     15  H   UNL     1       2.505   1.814  18.389  0.00  0.00    +0.000 HD
ENDBRANCH  12  14
ENDBRANCH  11  12
ENDBRANCH   7  11
ENDBRANCH   1   7
BRANCH   4  16
ATOM     16  O   UNL     1       1.110  10.138  18.716  0.00  0.00    +0.000 OA
BRANCH  16  17
ATOM     17  C   UNL     1      -0.162  10.038  18.009  0.00  0.00    +0.000 C 
BRANCH  17  18
ATOM     18  C   UNL     1      -1.362  10.482  18.843  0.00  0.00    +0.000 C 
ATOM     19  C   UNL     1      -0.957  11.471  19.936  0.00  0.00    +0.000 C 
ATOM     20  O   UNL     1      -2.020  12.254  20.497  0.00  0.00    +0.000 OA
ATOM     21  C   UNL     1      -3.174  12.295  19.771  0.00  0.00    +0.000 A 
ATOM     22  C   UNL     1      -4.248  12.995  20.325  0.00  0.00    +0.000 A 
ATOM     23  C   UNL     1      -5.496  12.997  19.686  0.00  0.00    +0.000 A 
ATOM     24 BR   UNL     1      -6.943  13.845  20.577  0.00  0.00    +0.000 Br
ATOM     25  C   UNL     1      -5.649  12.346  18.457  0.00  0.00    +0.000 A 
ATOM     26 CL   UNL     1      -7.143  12.318  17.590  0.00  0.00    +0.000 Cl
ATOM     27  C   UNL     1      -4.559  11.690  17.885  0.00  0.00    +0.000 A 
ATOM     28  C   UNL     1      -3.329  11.658  18.542  0.00  0.00    +0.000 A 
ATOM     29  O   UNL     1      -2.310  11.020  17.911  0.00  0.00    +0.000 OA
ENDBRANCH  17  18
ENDBRANCH  16  17
ENDBRANCH   4  16
TORSDOF 8
ENDMDL
MODEL 5
REMARK VINA RESULT:      -7.3      2.218      3.581
REMARK  Name = 
REMARK  9 active torsions:
REMARK  status: ('A' for Active; 'I' for Inactive)
REMARK    1  A    between atoms: C_1  and  C_2
REMARK    2  A    between atoms: C_3  and  C_4
REMARK    3  A    between atoms: C_4  and  C_5
REMARK    4  A    between atoms: C_4  and  C_9
REMARK    5  A    between atoms: C_5  and  C_6
REMARK    6  A    between atoms: C_6  and  O_8
REMARK    7  A    between atoms: C_12  and  O_13
REMARK    8  A    between atoms: O_13  and  C_14
REMARK    9  A    between atoms: C_14  and  C_15
REMARK                            x       y       z     vdW  Elec       q    Type
REMARK                         _______ _______ _______ _____ _____    ______ ____
ROOT
ATOM      1  C   UNL     1       2.765   7.033  18.958  0.00  0.00    +0.000 A 
ATOM      2  C   UNL     1       2.772   7.886  17.833  0.00  0.00    +0.000 A 
ATOM      3  C   UNL     1       2.081   9.056  17.843  0.00  0.00    +0.000 A 
ATOM      4  C   UNL     1       1.309   9.460  18.921  0.00  0.00    +0.000 A 
ATOM      5  C   UNL     1       1.283   8.638  20.071  0.00  0.00    +0.000 A 
ATOM      6  C   UNL     1       2.019   7.440  20.070  0.00  0.00    +0.000 A 
ENDROOT
BRANCH   1   7
ATOM      7  C   UNL     1       3.517   5.709  18.934  0.00  0.00    +0.000 C 
BRANCH   7  10
ATOM      8  C   UNL     1       0.688   2.416  18.781  0.00  0.00    +0.000 C 
ATOM      9  C   UNL     1       1.678   3.569  18.835  0.00  0.00    +0.000 C 
ATOM     10  C   UNL     1       2.527   4.557  18.881  0.00  0.00    +0.000 C 
ENDBRANCH   7  10
BRANCH   7  11
ATOM     11  C   UNL     1       4.457   5.610  17.726  0.00  0.00    +0.000 C 
BRANCH  11  12
ATOM     12  C   UNL     1       5.107   4.253  17.596  0.00  0.00    +0.000 C 
ATOM     13  O   UNL     1       4.895   3.468  16.682  0.00  0.00    +0.000 OA
BRANCH  12  14
ATOM     14  O   UNL     1       5.954   3.960  18.612  0.00  0.00    +0.000 OA
ATOM     15  H   UNL     1       6.824   3.626  18.321  0.00  0.00    +0.000 HD
ENDBRANCH  12  14
ENDBRANCH  11  12
ENDBRANCH   7  11
ENDBRANCH   1   7
BRANCH   4  16
ATOM     16  O   UNL     1       0.571  10.636  18.848  0.00  0.00    +0.000 OA
BRANCH  16  17
ATOM     17  C   UNL     1       0.770  11.495  20.010  0.00  0.00    +0.000 C 
BRANCH  17  18
ATOM     18  C   UNL     1      -0.460  12.322  20.379  0.00  0.00    +0.000 C 
ATOM     19  C   UNL     1      -1.425  12.457  19.201  0.00  0.00    +0.000 C 
ATOM     20  O   UNL     1      -2.766  12.844  19.532  0.00  0.00    +0.000 OA
ATOM     21  C   UNL     1      -3.119  12.698  20.840  0.00  0.00    +0.000 A 
ATOM     22  C   UNL     1      -4.398  13.128  21.205  0.00  0.00    +0.000 A 
ATOM     23  C   UNL     1      -4.797  13.104  22.548  0.00  0.00    +0.000 A 
ATOM     24 BR   UNL     1      -6.491  13.845  22.980  0.00  0.00    +0.000 Br
ATOM     25  C   UNL     1      -3.932  12.590  23.521  0.00  0.00    +0.000 A 
ATOM     26 CL   UNL     1      -4.350  12.501  25.195  0.00  0.00    +0.000 Cl
ATOM     27  C   UNL     1      -2.676  12.115  23.144  0.00  0.00    +0.000 A 
ATOM     28  C   UNL     1      -2.268  12.176  21.812  0.00  0.00    +0.000 A 
ATOM     29  O   UNL     1      -1.041  11.674  21.519  0.00  0.00    +0.000 OA
ENDBRANCH  17  18
ENDBRANCH  16  17
ENDBRANCH   4  16
TORSDOF 8
ENDMDL
MODEL 6
REMARK VINA RESULT:      -7.3      6.572      9.687
REMARK  Name = 
REMARK  9 active torsions:
REMARK  status: ('A' for Active; 'I' for Inactive)
REMARK    1  A    between atoms: C_1  and  C_2
REMARK    2  A    between atoms: C_3  and  C_4
REMARK    3  A    between atoms: C_4  and  C_5
REMARK    4  A    between atoms: C_4  and  C_9
REMARK    5  A    between atoms: C_5  and  C_6
REMARK    6  A    between atoms: C_6  and  O_8
REMARK    7  A    between atoms: C_12  and  O_13
REMARK    8  A    between atoms: O_13  and  C_14
REMARK    9  A    between atoms: C_14  and  C_15
REMARK                            x       y       z     vdW  Elec       q    Type
REMARK                         _______ _______ _______ _____ _____    ______ ____
ROOT
ATOM      1  C   UNL     1       9.211  12.788  18.400  0.00  0.00    +0.000 A 
ATOM      2  C   UNL     1       8.318  12.123  17.531  0.00  0.00    +0.000 A 
ATOM      3  C   UNL     1       8.121  10.783  17.629  0.00  0.00    +0.000 A 
ATOM      4  C   UNL     1       8.797   9.991  18.544  0.00  0.00    +0.000 A 
ATOM      5  C   UNL     1       9.694  10.620  19.439  0.00  0.00    +0.000 A 
ATOM      6  C   UNL     1       9.878  12.012  19.354  0.00  0.00    +0.000 A 
ENDROOT
BRANCH   1   7
ATOM      7  C   UNL     1       9.452  14.286  18.269  0.00  0.00    +0.000 C 
BRANCH   7  10
ATOM      8  C   UNL     1       6.655  16.450  20.791  0.00  0.00    +0.000 C 
ATOM      9  C   UNL     1       7.634  15.693  19.907  0.00  0.00    +0.000 C 
ATOM     10  C   UNL     1       8.474  15.043  19.151  0.00  0.00    +0.000 C 
ENDBRANCH   7  10
BRANCH   7  11
ATOM     11  C   UNL     1      10.882  14.670  18.674  0.00  0.00    +0.000 C 
BRANCH  11  12
ATOM     12  C   UNL     1      11.599  15.469  17.612  0.00  0.00    +0.000 C 
ATOM     13  O   UNL     1      11.531  16.685  17.496  0.00  0.00    +0.000 OA
BRANCH  12  14
ATOM     14  O   UNL     1      12.330  14.707  16.764  0.00  0.00    +0.000 OA
ATOM     15  H   UNL     1      13.212  14.463  17.107  0.00  0.00    +0.000 HD
ENDBRANCH  12  14
ENDBRANCH  11  12
ENDBRANCH   7  11
ENDBRANCH   1   7
BRANCH   4  16
ATOM     16  O   UNL     1       8.604   8.614  18.554  0.00  0.00    +0.000 OA
BRANCH  16  17
ATOM     17  C   UNL     1       7.780   8.157  17.440  0.00  0.00    +0.000 C 
BRANCH  17  18
ATOM     18  C   UNL     1       7.145   6.787  17.670  0.00  0.00    +0.000 C 
ATOM     19  C   UNL     1       7.681   6.120  18.936  0.00  0.00    +0.000 C 
ATOM     20  O   UNL     1       6.884   5.052  19.467  0.00  0.00    +0.000 OA
ATOM     21  C   UNL     1       5.600   4.989  19.015  0.00  0.00    +0.000 A 
ATOM     22  C   UNL     1       4.820   3.921  19.464  0.00  0.00    +0.000 A 
ATOM     23  C   UNL     1       3.523   3.733  18.965  0.00  0.00    +0.000 A 
ATOM     24 BR   UNL     1       2.585   2.174  19.510  0.00  0.00    +0.000 Br
ATOM     25  C   UNL     1       2.985   4.655  18.060  0.00  0.00    +0.000 A 
ATOM     26 CL   UNL     1       1.390   4.514  17.414  0.00  0.00    +0.000 Cl
ATOM     27  C   UNL     1       3.751   5.748  17.654  0.00  0.00    +0.000 A 
ATOM     28  C   UNL     1       5.055   5.910  18.123  0.00  0.00    +0.000 A 
ATOM     29  O   UNL     1       5.729   7.011  17.700  0.00  0.00    +0.000 OA
ENDBRANCH  17  18
ENDBRANCH  16  17
ENDBRANCH   4  16
TORSDOF 8
ENDMDL
MODEL 7
REMARK VINA RESULT:      -7.3      3.839      4.341
REMARK  Name = 
REMARK  9 active torsions:
REMARK  status: ('A' for Active; 'I' for Inactive)
REMARK    1  A    between atoms: C_1  and  C_2
REMARK    2  A    between atoms: C_3  and  C_4
REMARK    3  A    between atoms: C_4  and  C_5
REMARK    4  A    between atoms: C_4  and  C_9
REMARK    5  A    between atoms: C_5  and  C_6
REMARK    6  A    between atoms: C_6  and  O_8
REMARK    7  A    between atoms: C_12  and  O_13
REMARK    8  A    between atoms: O_13  and  C_14
REMARK    9  A    between atoms: C_14  and  C_15
REMARK                            x       y       z     vdW  Elec       q    Type
REMARK                         _______ _______ _______ _____ _____    ______ ____
ROOT
ATOM      1  C   UNL     1       3.196   5.372  18.694  0.00  0.00    +0.000 A 
ATOM      2  C   UNL     1       3.179   6.566  17.941  0.00  0.00    +0.000 A 
ATOM      3  C   UNL     1       2.587   7.687  18.428  0.00  0.00    +0.000 A 
ATOM      4  C   UNL     1       1.941   7.720  19.653  0.00  0.00    +0.000 A 
ATOM      5  C   UNL     1       1.942   6.547  20.443  0.00  0.00    +0.000 A 
ATOM      6  C   UNL     1       2.579   5.394  19.949  0.00  0.00    +0.000 A 
ENDROOT
BRANCH   1   7
ATOM      7  C   UNL     1       3.835   4.108  18.133  0.00  0.00    +0.000 C 
BRANCH   7  10
ATOM      8  C   UNL     1       6.121   5.074  14.568  0.00  0.00    +0.000 C 
ATOM      9  C   UNL     1       5.320   4.737  15.816  0.00  0.00    +0.000 C 
ATOM     10  C   UNL     1       4.634   4.446  16.886  0.00  0.00    +0.000 C 
ENDBRANCH   7  10
BRANCH   7  11
ATOM     11  C   UNL     1       4.768   3.442  19.153  0.00  0.00    +0.000 C 
BRANCH  11  12
ATOM     12  C   UNL     1       4.425   1.993  19.406  0.00  0.00    +0.000 C 
ATOM     13  O   UNL     1       3.514   1.391  18.853  0.00  0.00    +0.000 OA
BRANCH  12  14
ATOM     14  O   UNL     1       5.219   1.403  20.331  0.00  0.00    +0.000 OA
ATOM     15  H   UNL     1       5.799   2.025  20.812  0.00  0.00    +0.000 HD
ENDBRANCH  12  14
ENDBRANCH  11  12
ENDBRANCH   7  11
ENDBRANCH   1   7
BRANCH   4  16
ATOM     16  O   UNL     1       1.295   8.879  20.071  0.00  0.00    +0.000 OA
BRANCH  16  17
ATOM     17  C   UNL     1       0.934   9.751  18.958  0.00  0.00    +0.000 C 
BRANCH  17  18
ATOM     18  C   UNL     1       0.828  11.225  19.344  0.00  0.00    +0.000 C 
ATOM     19  C   UNL     1       0.915  11.421  20.858  0.00  0.00    +0.000 C 
ATOM     20  O   UNL     1       1.236  12.747  21.299  0.00  0.00    +0.000 OA
ATOM     21  C   UNL     1       1.768  13.574  20.356  0.00  0.00    +0.000 A 
ATOM     22  C   UNL     1       2.030  14.891  20.740  0.00  0.00    +0.000 A 
ATOM     23  C   UNL     1       2.483  15.826  19.799  0.00  0.00    +0.000 A 
ATOM     24 BR   UNL     1       2.670  17.630  20.366  0.00  0.00    +0.000 Br
ATOM     25  C   UNL     1       2.734  15.423  18.483  0.00  0.00    +0.000 A 
ATOM     26 CL   UNL     1       3.315  16.502  17.265  0.00  0.00    +0.000 Cl
ATOM     27  C   UNL     1       2.518  14.094  18.118  0.00  0.00    +0.000 A 
ATOM     28  C   UNL     1       2.031  13.176  19.047  0.00  0.00    +0.000 A 
ATOM     29  O   UNL     1       1.869  11.896  18.622  0.00  0.00    +0.000 OA
ENDBRANCH  17  18
ENDBRANCH  16  17
ENDBRANCH   4  16
TORSDOF 8
ENDMDL
MODEL 8
REMARK VINA RESULT:      -7.3      3.019      4.190
REMARK  Name = 
REMARK  9 active torsions:
REMARK  status: ('A' for Active; 'I' for Inactive)
REMARK    1  A    between atoms: C_1  and  C_2
REMARK    2  A    between atoms: C_3  and  C_4
REMARK    3  A    between atoms: C_4  and  C_5
REMARK    4  A    between atoms: C_4  and  C_9
REMARK    5  A    between atoms: C_5  and  C_6
REMARK    6  A    between atoms: C_6  and  O_8
REMARK    7  A    between atoms: C_12  and  O_13
REMARK    8  A    between atoms: O_13  and  C_14
REMARK    9  A    between atoms: C_14  and  C_15
REMARK                            x       y       z     vdW  Elec       q    Type
REMARK                         _______ _______ _______ _____ _____    ______ ____
ROOT
ATOM      1  C   UNL     1       2.424   7.184  18.561  0.00  0.00    +0.000 A 
ATOM      2  C   UNL     1       2.070   8.280  17.743  0.00  0.00    +0.000 A 
ATOM      3  C   UNL     1       1.471   9.377  18.274  0.00  0.00    +0.000 A 
ATOM      4  C   UNL     1       1.140   9.474  19.616  0.00  0.00    +0.000 A 
ATOM      5  C   UNL     1       1.486   8.402  20.470  0.00  0.00    +0.000 A 
ATOM      6  C   UNL     1       2.130   7.277  19.925  0.00  0.00    +0.000 A 
ENDROOT
BRANCH   1   7
ATOM      7  C   UNL     1       3.070   5.942  17.959  0.00  0.00    +0.000 C 
BRANCH   7  10
ATOM      8  C   UNL     1       7.312   6.646  17.342  0.00  0.00    +0.000 C 
ATOM      9  C   UNL     1       5.827   6.399  17.557  0.00  0.00    +0.000 C 
ATOM     10  C   UNL     1       4.554   6.188  17.743  0.00  0.00    +0.000 C 
ENDBRANCH   7  10
BRANCH   7  11
ATOM     11  C   UNL     1       2.899   4.716  18.866  0.00  0.00    +0.000 C 
BRANCH  11  12
ATOM     12  C   UNL     1       1.731   3.847  18.464  0.00  0.00    +0.000 C 
ATOM     13  O   UNL     1       1.308   2.907  19.124  0.00  0.00    +0.000 OA
BRANCH  12  14
ATOM     14  O   UNL     1       1.186   4.191  17.273  0.00  0.00    +0.000 OA
ATOM     15  H   UNL     1       0.855   5.109  17.238  0.00  0.00    +0.000 HD
ENDBRANCH  12  14
ENDBRANCH  11  12
ENDBRANCH   7  11
ENDBRANCH   1   7
BRANCH   4  16
ATOM     16  O   UNL     1       0.467  10.595  20.089  0.00  0.00    +0.000 OA
BRANCH  16  17
ATOM     17  C   UNL     1       0.375  11.656  19.092  0.00  0.00    +0.000 C 
BRANCH  17  18
ATOM     18  C   UNL     1      -1.037  12.209  18.914  0.00  0.00    +0.000 C 
ATOM     19  C   UNL     1      -1.811  11.449  17.837  0.00  0.00    +0.000 C 
ATOM     20  O   UNL     1      -3.238  11.597  17.869  0.00  0.00    +0.000 OA
ATOM     21  C   UNL     1      -3.757  12.084  19.031  0.00  0.00    +0.000 A 
ATOM     22  C   UNL     1      -5.137  12.301  19.068  0.00  0.00    +0.000 A 
ATOM     23  C   UNL     1      -5.730  12.894  20.191  0.00  0.00    +0.000 A 
ATOM     24 BR   UNL     1      -7.585  13.293  20.103  0.00  0.00    +0.000 Br
ATOM     25  C   UNL     1      -4.946  13.214  21.305  0.00  0.00    +0.000 A 
ATOM     26 CL   UNL     1      -5.597  13.924  22.738  0.00  0.00    +0.000 Cl
ATOM     27  C   UNL     1      -3.576  12.948  21.281  0.00  0.00    +0.000 A 
ATOM     28  C   UNL     1      -2.984  12.393  20.147  0.00  0.00    +0.000 A 
ATOM     29  O   UNL     1      -1.651  12.143  20.209  0.00  0.00    +0.000 OA
ENDBRANCH  17  18
ENDBRANCH  16  17
ENDBRANCH   4  16
TORSDOF 8
ENDMDL
MODEL 9
REMARK VINA RESULT:      -7.3      2.280      2.974
REMARK  Name = 
REMARK  9 active torsions:
REMARK  status: ('A' for Active; 'I' for Inactive)
REMARK    1  A    between atoms: C_1  and  C_2
REMARK    2  A    between atoms: C_3  and  C_4
REMARK    3  A    between atoms: C_4  and  C_5
REMARK    4  A    between atoms: C_4  and  C_9
REMARK    5  A    between atoms: C_5  and  C_6
REMARK    6  A    between atoms: C_6  and  O_8
REMARK    7  A    between atoms: C_12  and  O_13
REMARK    8  A    between atoms: O_13  and  C_14
REMARK    9  A    between atoms: C_14  and  C_15
REMARK                            x       y       z     vdW  Elec       q    Type
REMARK                         _______ _______ _______ _____ _____    ______ ____
ROOT
ATOM      1  C   UNL     1       3.610   6.683  18.214  0.00  0.00    +0.000 A 
ATOM      2  C   UNL     1       2.970   6.481  19.456  0.00  0.00    +0.000 A 
ATOM      3  C   UNL     1       2.011   7.338  19.892  0.00  0.00    +0.000 A 
ATOM      4  C   UNL     1       1.633   8.464  19.179  0.00  0.00    +0.000 A 
ATOM      5  C   UNL     1       2.244   8.699  17.925  0.00  0.00    +0.000 A 
ATOM      6  C   UNL     1       3.218   7.796  17.462  0.00  0.00    +0.000 A 
ENDROOT
BRANCH   1   7
ATOM      7  C   UNL     1       4.705   5.737  17.739  0.00  0.00    +0.000 C 
BRANCH   7  10
ATOM      8  C   UNL     1       3.420   1.621  18.262  0.00  0.00    +0.000 C 
ATOM      9  C   UNL     1       3.870   3.061  18.078  0.00  0.00    +0.000 C 
ATOM     10  C   UNL     1       4.255   4.297  17.922  0.00  0.00    +0.000 C 
ENDBRANCH   7  10
BRANCH   7  11
ATOM     11  C   UNL     1       5.052   5.963  16.262  0.00  0.00    +0.000 C 
BRANCH  11  12
ATOM     12  C   UNL     1       6.452   5.516  15.912  0.00  0.00    +0.000 C 
ATOM     13  O   UNL     1       7.468   6.137  16.193  0.00  0.00    +0.000 OA
BRANCH  12  14
ATOM     14  O   UNL     1       6.490   4.348  15.227  0.00  0.00    +0.000 OA
ATOM     15  H   UNL     1       6.639   4.454  14.267  0.00  0.00    +0.000 HD
ENDBRANCH  12  14
ENDBRANCH  11  12
ENDBRANCH   7  11
ENDBRANCH   1   7
BRANCH   4  16
ATOM     16  O   UNL     1       0.693   9.342  19.707  0.00  0.00    +0.000 OA
BRANCH  16  17
ATOM     17  C   UNL     1       1.107  10.737  19.602  0.00  0.00    +0.000 C 
BRANCH  17  18
ATOM     18  C   UNL     1       0.811  11.560  20.853  0.00  0.00    +0.000 C 
ATOM     19  C   UNL     1       1.342  12.988  20.731  0.00  0.00    +0.000 C 
ATOM     20  O   UNL     1       0.779  13.946  21.638  0.00  0.00    +0.000 OA
ATOM     21  C   UNL     1      -0.387  13.577  22.241  0.00  0.00    +0.000 A 
ATOM     22  C   UNL     1      -0.924  14.462  23.179  0.00  0.00    +0.000 A 
ATOM     23  C   UNL     1      -2.065  14.108  23.913  0.00  0.00    +0.000 A 
ATOM     24 BR   UNL     1      -2.644  15.300  25.274  0.00  0.00    +0.000 Br
ATOM     25  C   UNL     1      -2.704  12.889  23.661  0.00  0.00    +0.000 A 
ATOM     26 CL   UNL     1      -4.126  12.384  24.501  0.00  0.00    +0.000 Cl
ATOM     27  C   UNL     1      -2.191  12.032  22.687  0.00  0.00    +0.000 A 
ATOM     28  C   UNL     1      -1.034  12.371  21.986  0.00  0.00    +0.000 A 
ATOM     29  O   UNL     1      -0.610  11.496  21.038  0.00  0.00    +0.000 OA
ENDBRANCH  17  18
ENDBRANCH  16  17
ENDBRANCH   4  16
TORSDOF 8
ENDMDL
