MODEL 1
REMARK VINA RESULT:      -6.3      0.000      0.000
REMARK  Name = 
REMARK  9 active torsions:
REMARK  status: ('A' for Active; 'I' for Inactive)
REMARK    1  A    between atoms: C_1  and  O_2
REMARK    2  A    between atoms: O_2  and  C_3
REMARK    3  A    between atoms: C_5  and  C_6
REMARK    4  A    between atoms: C_7  and  C_8
REMARK    5  A    between atoms: C_8  and  C_9
REMARK    6  A    between atoms: C_9  and  C_10
REMARK    7  A    between atoms: C_9  and  N_11
REMARK    8  A    between atoms: C_13  and  O_14
REMARK    9  A    between atoms: O_14  and  C_15
REMARK                            x       y       z     vdW  Elec       q    Type
REMARK                         _______ _______ _______ _____ _____    ______ ____
ROOT
ATOM      1  C   UNL     1       5.701   6.018  16.849  0.00  0.00    +0.000 A 
ATOM      2  C   UNL     1       4.709   6.706  17.567  0.00  0.00    +0.000 A 
ATOM      3  C   UNL     1       3.487   6.106  17.924  0.00  0.00    +0.000 A 
ATOM      4  C   UNL     1       2.508   6.909  18.739  0.00  0.00    +0.000 C 
ATOM      5  C   UNL     1       3.224   4.792  17.506  0.00  0.00    +0.000 A 
ATOM      6  C   UNL     1       4.213   4.116  16.767  0.00  0.00    +0.000 A 
ATOM      7  C   UNL     1       5.450   4.701  16.447  0.00  0.00    +0.000 A 
ENDROOT
BRANCH   1   9
ATOM      8  C   UNL     1       7.525   7.410  17.477  0.00  0.00    +0.000 C 
ATOM      9  O   UNL     1       6.880   6.614  16.489  0.00  0.00    +0.000 OA
ENDBRANCH   1   9
BRANCH   7  10
ATOM     10  O   UNL     1       6.263   3.844  15.756  0.00  0.00    +0.000 OA
ATOM     11  C   UNL     1       6.256   3.887  14.337  0.00  0.00    +0.000 C 
ENDBRANCH   7  10
BRANCH   5  12
ATOM     12  C   UNL     1       1.902   4.090  17.774  0.00  0.00    +0.000 C 
BRANCH  12  13
ATOM     13  C   UNL     1       1.896   3.165  19.012  0.00  0.00    +0.000 C 
ATOM     14  C   UNL     1       0.965   3.672  20.115  0.00  0.00    +0.000 C 
BRANCH  13  15
ATOM     15  N   UNL     1       1.484   1.809  18.619  0.00  0.00    +0.000 NA
ATOM     16  H   UNL     1       1.652   1.671  17.622  0.00  0.00    +0.000 HD
ATOM     17  H   UNL     1       0.477   1.709  18.748  0.00  0.00    +0.000 HD
ENDBRANCH  13  15
ENDBRANCH  12  13
ENDBRANCH   5  12
TORSDOF 5
ENDMDL
MODEL 2
REMARK VINA RESULT:      -6.1      1.155      1.210
REMARK  Name = 
REMARK  9 active torsions:
REMARK  status: ('A' for Active; 'I' for Inactive)
REMARK    1  A    between atoms: C_1  and  O_2
REMARK    2  A    between atoms: O_2  and  C_3
REMARK    3  A    between atoms: C_5  and  C_6
REMARK    4  A    between atoms: C_7  and  C_8
REMARK    5  A    between atoms: C_8  and  C_9
REMARK    6  A    between atoms: C_9  and  C_10
REMARK    7  A    between atoms: C_9  and  N_11
REMARK    8  A    between atoms: C_13  and  O_14
REMARK    9  A    between atoms: O_14  and  C_15
REMARK                            x       y       z     vdW  Elec       q    Type
REMARK                         _______ _______ _______ _____ _____    ______ ____
ROOT
ATOM      1  C   UNL     1       5.900   6.444  16.822  0.00  0.00    +0.000 A 
ATOM      2  C   UNL     1       4.698   6.673  17.511  0.00  0.00    +0.000 A 
ATOM      3  C   UNL     1       3.736   5.663  17.699  0.00  0.00    +0.000 A 
ATOM      4  C   UNL     1       2.502   5.993  18.495  0.00  0.00    +0.000 C 
ATOM      5  C   UNL     1       3.957   4.397  17.137  0.00  0.00    +0.000 A 
ATOM      6  C   UNL     1       5.154   4.180  16.428  0.00  0.00    +0.000 A 
ATOM      7  C   UNL     1       6.133   5.177  16.276  0.00  0.00    +0.000 A 
ENDROOT
BRANCH   1   9
ATOM      8  C   UNL     1       7.712   7.709  17.705  0.00  0.00    +0.000 C 
ATOM      9  O   UNL     1       6.824   7.436  16.626  0.00  0.00    +0.000 OA
ENDBRANCH   1   9
BRANCH   7  10
ATOM     10  O   UNL     1       7.224   4.727  15.583  0.00  0.00    +0.000 OA
ATOM     11  C   UNL     1       7.180   4.721  14.164  0.00  0.00    +0.000 C 
ENDBRANCH   7  10
BRANCH   5  12
ATOM     12  C   UNL     1       2.940   3.269  17.218  0.00  0.00    +0.000 C 
BRANCH  12  13
ATOM     13  C   UNL     1       3.021   2.411  18.501  0.00  0.00    +0.000 C 
ATOM     14  C   UNL     1       1.641   2.093  19.079  0.00  0.00    +0.000 C 
BRANCH  13  15
ATOM     15  N   UNL     1       3.726   1.153  18.216  0.00  0.00    +0.000 NA
ATOM     16  H   UNL     1       4.695   1.220  18.527  0.00  0.00    +0.000 HD
ATOM     17  H   UNL     1       3.768   1.009  17.206  0.00  0.00    +0.000 HD
ENDBRANCH  13  15
ENDBRANCH  12  13
ENDBRANCH   5  12
TORSDOF 5
ENDMDL
MODEL 3
REMARK VINA RESULT:      -5.9      3.113      4.975
REMARK  Name = 
REMARK  9 active torsions:
REMARK  status: ('A' for Active; 'I' for Inactive)
REMARK    1  A    between atoms: C_1  and  O_2
REMARK    2  A    between atoms: O_2  and  C_3
REMARK    3  A    between atoms: C_5  and  C_6
REMARK    4  A    between atoms: C_7  and  C_8
REMARK    5  A    between atoms: C_8  and  C_9
REMARK    6  A    between atoms: C_9  and  C_10
REMARK    7  A    between atoms: C_9  and  N_11
REMARK    8  A    between atoms: C_13  and  O_14
REMARK    9  A    between atoms: O_14  and  C_15
REMARK                            x       y       z     vdW  Elec       q    Type
REMARK                         _______ _______ _______ _____ _____    ______ ____
ROOT
ATOM      1  C   UNL     1       2.953   4.633  19.868  0.00  0.00    +0.000 A 
ATOM      2  C   UNL     1       2.750   5.948  19.418  0.00  0.00    +0.000 A 
ATOM      3  C   UNL     1       3.354   6.442  18.248  0.00  0.00    +0.000 A 
ATOM      4  C   UNL     1       3.035   7.850  17.820  0.00  0.00    +0.000 C 
ATOM      5  C   UNL     1       4.232   5.615  17.530  0.00  0.00    +0.000 A 
ATOM      6  C   UNL     1       4.448   4.306  17.999  0.00  0.00    +0.000 A 
ATOM      7  C   UNL     1       3.812   3.798  19.144  0.00  0.00    +0.000 A 
ENDROOT
BRANCH   1   9
ATOM      8  C   UNL     1       1.189   3.390  20.872  0.00  0.00    +0.000 C 
ATOM      9  O   UNL     1       2.376   4.163  21.018  0.00  0.00    +0.000 OA
ENDBRANCH   1   9
BRANCH   7  10
ATOM     10  O   UNL     1       4.147   2.493  19.385  0.00  0.00    +0.000 OA
ATOM     11  C   UNL     1       3.577   1.477  18.573  0.00  0.00    +0.000 C 
ENDBRANCH   7  10
BRANCH   5  12
ATOM     12  C   UNL     1       4.993   6.088  16.302  0.00  0.00    +0.000 C 
BRANCH  12  13
ATOM     13  C   UNL     1       6.122   5.144  15.832  0.00  0.00    +0.000 C 
ATOM     14  C   UNL     1       5.827   4.513  14.470  0.00  0.00    +0.000 C 
BRANCH  13  15
ATOM     15  N   UNL     1       7.392   5.883  15.756  0.00  0.00    +0.000 NA
ATOM     16  H   UNL     1       7.786   5.800  14.819  0.00  0.00    +0.000 HD
ATOM     17  H   UNL     1       8.071   5.454  16.384  0.00  0.00    +0.000 HD
ENDBRANCH  13  15
ENDBRANCH  12  13
ENDBRANCH   5  12
TORSDOF 5
ENDMDL
MODEL 4
REMARK VINA RESULT:      -5.9      3.006      5.001
REMARK  Name = 
REMARK  9 active torsions:
REMARK  status: ('A' for Active; 'I' for Inactive)
REMARK    1  A    between atoms: C_1  and  O_2
REMARK    2  A    between atoms: O_2  and  C_3
REMARK    3  A    between atoms: C_5  and  C_6
REMARK    4  A    between atoms: C_7  and  C_8
REMARK    5  A    between atoms: C_8  and  C_9
REMARK    6  A    between atoms: C_9  and  C_10
REMARK    7  A    between atoms: C_9  and  N_11
REMARK    8  A    between atoms: C_13  and  O_14
REMARK    9  A    between atoms: O_14  and  C_15
REMARK                            x       y       z     vdW  Elec       q    Type
REMARK                         _______ _______ _______ _____ _____    ______ ____
ROOT
ATOM      1  C   UNL     1       1.936   4.278  18.763  0.00  0.00    +0.000 A 
ATOM      2  C   UNL     1       2.226   5.646  18.627  0.00  0.00    +0.000 A 
ATOM      3  C   UNL     1       3.260   6.114  17.795  0.00  0.00    +0.000 A 
ATOM      4  C   UNL     1       3.461   7.601  17.675  0.00  0.00    +0.000 C 
ATOM      5  C   UNL     1       4.065   5.185  17.117  0.00  0.00    +0.000 A 
ATOM      6  C   UNL     1       3.783   3.816  17.276  0.00  0.00    +0.000 A 
ATOM      7  C   UNL     1       2.724   3.349  18.073  0.00  0.00    +0.000 A 
ENDROOT
BRANCH   1   9
ATOM      8  C   UNL     1       1.322   3.444  20.905  0.00  0.00    +0.000 C 
ATOM      9  O   UNL     1       0.940   3.828  19.589  0.00  0.00    +0.000 OA
ENDBRANCH   1   9
BRANCH   7  10
ATOM     10  O   UNL     1       2.620   1.985  18.048  0.00  0.00    +0.000 OA
ATOM     11  C   UNL     1       3.694   1.206  18.553  0.00  0.00    +0.000 C 
ENDBRANCH   7  10
BRANCH   5  12
ATOM     12  C   UNL     1       5.254   5.594  16.262  0.00  0.00    +0.000 C 
BRANCH  12  13
ATOM     13  C   UNL     1       6.209   4.440  15.881  0.00  0.00    +0.000 C 
ATOM     14  C   UNL     1       6.209   4.155  14.378  0.00  0.00    +0.000 C 
BRANCH  13  15
ATOM     15  N   UNL     1       7.578   4.762  16.311  0.00  0.00    +0.000 NA
ATOM     16  H   UNL     1       8.006   5.409  15.649  0.00  0.00    +0.000 HD
ATOM     17  H   UNL     1       8.149   3.917  16.284  0.00  0.00    +0.000 HD
ENDBRANCH  13  15
ENDBRANCH  12  13
ENDBRANCH   5  12
TORSDOF 5
ENDMDL
MODEL 5
REMARK VINA RESULT:      -5.8      2.029      3.128
REMARK  Name = 
REMARK  9 active torsions:
REMARK  status: ('A' for Active; 'I' for Inactive)
REMARK    1  A    between atoms: C_1  and  O_2
REMARK    2  A    between atoms: O_2  and  C_3
REMARK    3  A    between atoms: C_5  and  C_6
REMARK    4  A    between atoms: C_7  and  C_8
REMARK    5  A    between atoms: C_8  and  C_9
REMARK    6  A    between atoms: C_9  and  C_10
REMARK    7  A    between atoms: C_9  and  N_11
REMARK    8  A    between atoms: C_13  and  O_14
REMARK    9  A    between atoms: O_14  and  C_15
REMARK                            x       y       z     vdW  Elec       q    Type
REMARK                         _______ _______ _______ _____ _____    ______ ____
ROOT
ATOM      1  C   UNL     1       6.353   4.527  16.708  0.00  0.00    +0.000 A 
ATOM      2  C   UNL     1       5.116   3.912  16.451  0.00  0.00    +0.000 A 
ATOM      3  C   UNL     1       4.133   3.758  17.445  0.00  0.00    +0.000 A 
ATOM      4  C   UNL     1       2.819   3.132  17.059  0.00  0.00    +0.000 C 
ATOM      5  C   UNL     1       4.412   4.184  18.753  0.00  0.00    +0.000 A 
ATOM      6  C   UNL     1       5.661   4.778  19.010  0.00  0.00    +0.000 A 
ATOM      7  C   UNL     1       6.627   4.970  18.007  0.00  0.00    +0.000 A 
ENDROOT
BRANCH   1   9
ATOM      8  C   UNL     1       6.858   4.780  14.397  0.00  0.00    +0.000 C 
ATOM      9  O   UNL     1       7.313   4.657  15.740  0.00  0.00    +0.000 OA
ENDBRANCH   1   9
BRANCH   7  10
ATOM     10  O   UNL     1       7.747   5.599  18.482  0.00  0.00    +0.000 OA
ATOM     11  C   UNL     1       7.877   7.001  18.296  0.00  0.00    +0.000 C 
ENDBRANCH   7  10
BRANCH   5  12
ATOM     12  C   UNL     1       3.444   3.986  19.909  0.00  0.00    +0.000 C 
BRANCH  12  13
ATOM     13  C   UNL     1       2.191   4.889  19.871  0.00  0.00    +0.000 C 
ATOM     14  C   UNL     1       0.947   4.186  20.417  0.00  0.00    +0.000 C 
BRANCH  13  15
ATOM     15  N   UNL     1       2.434   6.113  20.650  0.00  0.00    +0.000 NA
ATOM     16  H   UNL     1       3.437   6.276  20.734  0.00  0.00    +0.000 HD
ATOM     17  H   UNL     1       2.092   5.982  21.602  0.00  0.00    +0.000 HD
ENDBRANCH  13  15
ENDBRANCH  12  13
ENDBRANCH   5  12
TORSDOF 5
ENDMDL
MODEL 6
REMARK VINA RESULT:      -5.7      1.952      2.789
REMARK  Name = 
REMARK  9 active torsions:
REMARK  status: ('A' for Active; 'I' for Inactive)
REMARK    1  A    between atoms: C_1  and  O_2
REMARK    2  A    between atoms: O_2  and  C_3
REMARK    3  A    between atoms: C_5  and  C_6
REMARK    4  A    between atoms: C_7  and  C_8
REMARK    5  A    between atoms: C_8  and  C_9
REMARK    6  A    between atoms: C_9  and  C_10
REMARK    7  A    between atoms: C_9  and  N_11
REMARK    8  A    between atoms: C_13  and  O_14
REMARK    9  A    between atoms: O_14  and  C_15
REMARK                            x       y       z     vdW  Elec       q    Type
REMARK                         _______ _______ _______ _____ _____    ______ ____
ROOT
ATOM      1  C   UNL     1       5.301   5.053  17.181  0.00  0.00    +0.000 A 
ATOM      2  C   UNL     1       3.927   4.878  16.946  0.00  0.00    +0.000 A 
ATOM      3  C   UNL     1       3.096   4.176  17.837  0.00  0.00    +0.000 A 
ATOM      4  C   UNL     1       1.626   4.087  17.523  0.00  0.00    +0.000 C 
ATOM      5  C   UNL     1       3.663   3.583  18.976  0.00  0.00    +0.000 A 
ATOM      6  C   UNL     1       5.044   3.742  19.194  0.00  0.00    +0.000 A 
ATOM      7  C   UNL     1       5.867   4.479  18.325  0.00  0.00    +0.000 A 
ENDROOT
BRANCH   1   9
ATOM      8  C   UNL     1       6.743   4.942  15.292  0.00  0.00    +0.000 C 
ATOM      9  O   UNL     1       6.108   5.722  16.299  0.00  0.00    +0.000 OA
ENDBRANCH   1   9
BRANCH   7  10
ATOM     10  O   UNL     1       7.164   4.527  18.759  0.00  0.00    +0.000 OA
ATOM     11  C   UNL     1       7.635   5.713  19.381  0.00  0.00    +0.000 C 
ENDBRANCH   7  10
BRANCH   5  12
ATOM     12  C   UNL     1       2.859   2.738  19.952  0.00  0.00    +0.000 C 
BRANCH  12  13
ATOM     13  C   UNL     1       2.524   3.432  21.291  0.00  0.00    +0.000 C 
ATOM     14  C   UNL     1       1.876   4.804  21.092  0.00  0.00    +0.000 C 
BRANCH  13  15
ATOM     15  N   UNL     1       1.621   2.583  22.082  0.00  0.00    +0.000 NA
ATOM     16  H   UNL     1       1.526   1.670  21.637  0.00  0.00    +0.000 HD
ATOM     17  H   UNL     1       0.686   2.991  22.084  0.00  0.00    +0.000 HD
ENDBRANCH  13  15
ENDBRANCH  12  13
ENDBRANCH   5  12
TORSDOF 5
ENDMDL
MODEL 7
REMARK VINA RESULT:      -5.7      3.411      5.331
REMARK  Name = 
REMARK  9 active torsions:
REMARK  status: ('A' for Active; 'I' for Inactive)
REMARK    1  A    between atoms: C_1  and  O_2
REMARK    2  A    between atoms: O_2  and  C_3
REMARK    3  A    between atoms: C_5  and  C_6
REMARK    4  A    between atoms: C_7  and  C_8
REMARK    5  A    between atoms: C_8  and  C_9
REMARK    6  A    between atoms: C_9  and  C_10
REMARK    7  A    between atoms: C_9  and  N_11
REMARK    8  A    between atoms: C_13  and  O_14
REMARK    9  A    between atoms: O_14  and  C_15
REMARK                            x       y       z     vdW  Elec       q    Type
REMARK                         _______ _______ _______ _____ _____    ______ ____
ROOT
ATOM      1  C   UNL     1       3.876   3.156  19.536  0.00  0.00    +0.000 A 
ATOM      2  C   UNL     1       4.963   4.045  19.550  0.00  0.00    +0.000 A 
ATOM      3  C   UNL     1       5.395   4.721  18.395  0.00  0.00    +0.000 A 
ATOM      4  C   UNL     1       6.538   5.693  18.522  0.00  0.00    +0.000 C 
ATOM      5  C   UNL     1       4.756   4.462  17.172  0.00  0.00    +0.000 A 
ATOM      6  C   UNL     1       3.681   3.553  17.161  0.00  0.00    +0.000 A 
ATOM      7  C   UNL     1       3.222   2.910  18.323  0.00  0.00    +0.000 A 
ENDROOT
BRANCH   1   9
ATOM      8  C   UNL     1       2.562   3.166  21.519  0.00  0.00    +0.000 C 
ATOM      9  O   UNL     1       3.472   2.487  20.661  0.00  0.00    +0.000 OA
ENDBRANCH   1   9
BRANCH   7  10
ATOM     10  O   UNL     1       2.147   2.100  18.075  0.00  0.00    +0.000 OA
ATOM     11  C   UNL     1       0.865   2.505  18.533  0.00  0.00    +0.000 C 
ENDBRANCH   7  10
BRANCH   5  12
ATOM     12  C   UNL     1       5.205   5.083  15.859  0.00  0.00    +0.000 C 
BRANCH  12  13
ATOM     13  C   UNL     1       6.381   4.359  15.166  0.00  0.00    +0.000 C 
ATOM     14  C   UNL     1       6.023   3.879  13.758  0.00  0.00    +0.000 C 
BRANCH  13  15
ATOM     15  N   UNL     1       7.543   5.257  15.088  0.00  0.00    +0.000 NA
ATOM     16  H   UNL     1       8.110   5.021  14.274  0.00  0.00    +0.000 HD
ATOM     17  H   UNL     1       8.143   5.106  15.899  0.00  0.00    +0.000 HD
ENDBRANCH  13  15
ENDBRANCH  12  13
ENDBRANCH   5  12
TORSDOF 5
ENDMDL
MODEL 8
REMARK VINA RESULT:      -5.7      3.298      5.266
REMARK  Name = 
REMARK  9 active torsions:
REMARK  status: ('A' for Active; 'I' for Inactive)
REMARK    1  A    between atoms: C_1  and  O_2
REMARK    2  A    between atoms: O_2  and  C_3
REMARK    3  A    between atoms: C_5  and  C_6
REMARK    4  A    between atoms: C_7  and  C_8
REMARK    5  A    between atoms: C_8  and  C_9
REMARK    6  A    between atoms: C_9  and  C_10
REMARK    7  A    between atoms: C_9  and  N_11
REMARK    8  A    between atoms: C_13  and  O_14
REMARK    9  A    between atoms: O_14  and  C_15
REMARK                            x       y       z     vdW  Elec       q    Type
REMARK                         _______ _______ _______ _____ _____    ______ ____
ROOT
ATOM      1  C   UNL     1       4.441   3.779  19.052  0.00  0.00    +0.000 A 
ATOM      2  C   UNL     1       5.551   4.637  18.970  0.00  0.00    +0.000 A 
ATOM      3  C   UNL     1       5.952   5.232  17.760  0.00  0.00    +0.000 A 
ATOM      4  C   UNL     1       7.124   6.177  17.784  0.00  0.00    +0.000 C 
ATOM      5  C   UNL     1       5.255   4.922  16.582  0.00  0.00    +0.000 A 
ATOM      6  C   UNL     1       4.158   4.044  16.667  0.00  0.00    +0.000 A 
ATOM      7  C   UNL     1       3.732   3.482  17.882  0.00  0.00    +0.000 A 
ENDROOT
BRANCH   1   9
ATOM      8  C   UNL     1       4.604   1.897  20.498  0.00  0.00    +0.000 C 
ATOM      9  O   UNL     1       4.067   3.188  20.229  0.00  0.00    +0.000 OA
ENDBRANCH   1   9
BRANCH   7  10
ATOM     10  O   UNL     1       2.626   2.691  17.726  0.00  0.00    +0.000 OA
ATOM     11  C   UNL     1       1.391   3.122  18.278  0.00  0.00    +0.000 C 
ENDBRANCH   7  10
BRANCH   5  12
ATOM     12  C   UNL     1       5.665   5.453  15.217  0.00  0.00    +0.000 C 
BRANCH  12  13
ATOM     13  C   UNL     1       6.737   4.613  14.487  0.00  0.00    +0.000 C 
ATOM     14  C   UNL     1       6.154   3.798  13.331  0.00  0.00    +0.000 C 
BRANCH  13  15
ATOM     15  N   UNL     1       7.796   5.494  13.971  0.00  0.00    +0.000 NA
ATOM     16  H   UNL     1       8.708   5.059  14.111  0.00  0.00    +0.000 HD
ATOM     17  H   UNL     1       7.812   6.358  14.514  0.00  0.00    +0.000 HD
ENDBRANCH  13  15
ENDBRANCH  12  13
ENDBRANCH   5  12
TORSDOF 5
ENDMDL
MODEL 9
REMARK VINA RESULT:      -5.7      1.807      2.790
REMARK  Name = 
REMARK  9 active torsions:
REMARK  status: ('A' for Active; 'I' for Inactive)
REMARK    1  A    between atoms: C_1  and  O_2
REMARK    2  A    between atoms: O_2  and  C_3
REMARK    3  A    between atoms: C_5  and  C_6
REMARK    4  A    between atoms: C_7  and  C_8
REMARK    5  A    between atoms: C_8  and  C_9
REMARK    6  A    between atoms: C_9  and  C_10
REMARK    7  A    between atoms: C_9  and  N_11
REMARK    8  A    between atoms: C_13  and  O_14
REMARK    9  A    between atoms: O_14  and  C_15
REMARK                            x       y       z     vdW  Elec       q    Type
REMARK                         _______ _______ _______ _____ _____    ______ ____
ROOT
ATOM      1  C   UNL     1       5.339   4.119  16.926  0.00  0.00    +0.000 A 
ATOM      2  C   UNL     1       3.943   4.030  16.797  0.00  0.00    +0.000 A 
ATOM      3  C   UNL     1       3.071   4.298  17.868  0.00  0.00    +0.000 A 
ATOM      4  C   UNL     1       1.589   4.224  17.617  0.00  0.00    +0.000 C 
ATOM      5  C   UNL     1       3.610   4.615  19.125  0.00  0.00    +0.000 A 
ATOM      6  C   UNL     1       5.010   4.681  19.253  0.00  0.00    +0.000 A 
ATOM      7  C   UNL     1       5.880   4.454  18.173  0.00  0.00    +0.000 A 
ENDROOT
BRANCH   1   9
ATOM      8  C   UNL     1       6.633   4.944  15.108  0.00  0.00    +0.000 C 
ATOM      9  O   UNL     1       6.183   3.839  15.884  0.00  0.00    +0.000 OA
ENDBRANCH   1   9
BRANCH   7  10
ATOM     10  O   UNL     1       7.194   4.608  18.526  0.00  0.00    +0.000 OA
ATOM     11  C   UNL     1       7.702   5.920  18.718  0.00  0.00    +0.000 C 
ENDBRANCH   7  10
BRANCH   5  12
ATOM     12  C   UNL     1       2.750   4.840  20.358  0.00  0.00    +0.000 C 
BRANCH  12  13
ATOM     13  C   UNL     1       2.447   3.568  21.181  0.00  0.00    +0.000 C 
ATOM     14  C   UNL     1       1.018   3.064  20.973  0.00  0.00    +0.000 C 
BRANCH  13  15
ATOM     15  N   UNL     1       3.392   2.501  20.818  0.00  0.00    +0.000 NA
ATOM     16  H   UNL     1       4.293   2.908  20.567  0.00  0.00    +0.000 HD
ATOM     17  H   UNL     1       3.058   2.024  19.980  0.00  0.00    +0.000 HD
ENDBRANCH  13  15
ENDBRANCH  12  13
ENDBRANCH   5  12
TORSDOF 5
ENDMDL
