MODEL 1
REMARK VINA RESULT:      -8.7      0.000      0.000
REMARK  Name = 
REMARK  7 active torsions:
REMARK  status: ('A' for Active; 'I' for Inactive)
REMARK    1  A    between atoms: C_2  and  C_3
REMARK    2  A    between atoms: C_6  and  C_7
REMARK    3  A    between atoms: C_8  and  C_9
REMARK    4  A    between atoms: N_19  and  C_20
REMARK    5  A    between atoms: C_24  and  C_25
REMARK    6  A    between atoms: C_25  and  N_26
REMARK    7  A    between atoms: C_27  and  C_29
REMARK                            x       y       z     vdW  Elec       q    Type
REMARK                         _______ _______ _______ _____ _____    ______ ____
ROOT
ATOM      1  C   UNL     1       5.209   4.954  15.788  0.00  0.00    +0.000 A 
ATOM      2  N   UNL     1       4.578   4.333  14.835  0.00  0.00    +0.000 NA
ATOM      3  C   UNL     1       5.278   3.970  13.681  0.00  0.00    +0.000 A 
ATOM      4  C   UNL     1       4.631   3.199  12.712  0.00  0.00    +0.000 A 
ATOM      5  C   UNL     1       5.327   2.720  11.598  0.00  0.00    +0.000 A 
ATOM      6  C   UNL     1       6.675   3.028  11.430  0.00  0.00    +0.000 A 
ATOM      7  C   UNL     1       7.319   3.837  12.364  0.00  0.00    +0.000 A 
ATOM      8  C   UNL     1       6.613   4.302  13.483  0.00  0.00    +0.000 A 
ATOM      9  C   UNL     1       7.278   5.109  14.516  0.00  0.00    +0.000 A 
ATOM     10  O   UNL     1       8.431   5.484  14.307  0.00  0.00    +0.000 OA
ATOM     11  N   UNL     1       6.539   5.351  15.684  0.00  0.00    +0.000 N 
ENDROOT
BRANCH  11  12
ATOM     12  C   UNL     1       7.254   5.961  16.755  0.00  0.00    +0.000 A 
ATOM     13  C   UNL     1       7.527   5.219  17.910  0.00  0.00    +0.000 A 
ATOM     14  C   UNL     1       8.040   5.848  19.042  0.00  0.00    +0.000 A 
ATOM     15  C   UNL     1       8.231   7.231  19.043  0.00  0.00    +0.000 A 
ATOM     16  C   UNL     1       7.944   7.994  17.901  0.00  0.00    +0.000 A 
ATOM     17  C   UNL     1       7.512   7.340  16.734  0.00  0.00    +0.000 A 
BRANCH  16  18
ATOM     18  C   UNL     1       7.989   9.501  17.961  0.00  0.00    +0.000 C 
BRANCH  18  19
ATOM     19  N   UNL     1       9.097  10.000  18.734  0.00  0.00    +0.000 N 
ATOM     20  C   UNL     1       9.542  11.313  18.623  0.00  0.00    +0.000 C 
ATOM     21  O   UNL     1       9.039  12.103  17.823  0.00  0.00    +0.000 OA
ATOM     22  H   UNL     1       9.521   9.398  19.433  0.00  0.00    +0.000 HD
BRANCH  20  23
ATOM     23  C   UNL     1      10.707  11.681  19.571  0.00  0.00    +0.000 C 
ATOM     24  F   UNL     1      10.458  11.284  20.854  0.00  0.00    +0.000 F 
ATOM     25  F   UNL     1      11.877  11.091  19.208  0.00  0.00    +0.000 F 
ATOM     26  F   UNL     1      10.936  13.021  19.625  0.00  0.00    +0.000 F 
ENDBRANCH  20  23
ENDBRANCH  18  19
ENDBRANCH  16  18
ENDBRANCH  11  12
BRANCH   1  28
ATOM     27  C   UNL     1       3.690   6.448  17.028  0.00  0.00    +0.000 C 
ATOM     28  C   UNL     1       4.460   5.347  17.023  0.00  0.00    +0.000 C 
BRANCH  27  32
ATOM     29  C   UNL     1       1.557   8.069  20.383  0.00  0.00    +0.000 A 
ATOM     30  C   UNL     1       1.712   8.807  19.210  0.00  0.00    +0.000 A 
ATOM     31  C   UNL     1       2.420   8.266  18.130  0.00  0.00    +0.000 A 
ATOM     32  C   UNL     1       2.989   6.984  18.208  0.00  0.00    +0.000 A 
ATOM     33  C   UNL     1       2.829   6.255  19.395  0.00  0.00    +0.000 A 
ATOM     34  C   UNL     1       2.123   6.795  20.477  0.00  0.00    +0.000 A 
BRANCH  29  36
ATOM     35  N   UNL     1       0.203   9.042  22.376  0.00  0.00    +0.000 NA
ATOM     36  C   UNL     1       0.808   8.606  21.481  0.00  0.00    +0.000 C 
ENDBRANCH  29  36
ENDBRANCH  27  32
ENDBRANCH   1  28
TORSDOF 7
ENDMDL
MODEL 2
REMARK VINA RESULT:      -8.5      3.881      6.708
REMARK  Name = 
REMARK  7 active torsions:
REMARK  status: ('A' for Active; 'I' for Inactive)
REMARK    1  A    between atoms: C_2  and  C_3
REMARK    2  A    between atoms: C_6  and  C_7
REMARK    3  A    between atoms: C_8  and  C_9
REMARK    4  A    between atoms: N_19  and  C_20
REMARK    5  A    between atoms: C_24  and  C_25
REMARK    6  A    between atoms: C_25  and  N_26
REMARK    7  A    between atoms: C_27  and  C_29
REMARK                            x       y       z     vdW  Elec       q    Type
REMARK                         _______ _______ _______ _____ _____    ______ ____
ROOT
ATOM      1  C   UNL     1       6.846   6.188  16.454  0.00  0.00    +0.000 A 
ATOM      2  N   UNL     1       7.532   5.987  15.366  0.00  0.00    +0.000 NA
ATOM      3  C   UNL     1       7.054   5.074  14.422  0.00  0.00    +0.000 A 
ATOM      4  C   UNL     1       7.726   4.947  13.204  0.00  0.00    +0.000 A 
ATOM      5  C   UNL     1       7.218   4.131  12.189  0.00  0.00    +0.000 A 
ATOM      6  C   UNL     1       6.042   3.411  12.393  0.00  0.00    +0.000 A 
ATOM      7  C   UNL     1       5.390   3.490  13.622  0.00  0.00    +0.000 A 
ATOM      8  C   UNL     1       5.903   4.322  14.627  0.00  0.00    +0.000 A 
ATOM      9  C   UNL     1       5.208   4.472  15.913  0.00  0.00    +0.000 A 
ATOM     10  O   UNL     1       4.242   3.744  16.140  0.00  0.00    +0.000 OA
ATOM     11  N   UNL     1       5.693   5.475  16.766  0.00  0.00    +0.000 N 
ENDROOT
BRANCH  11  12
ATOM     12  C   UNL     1       4.899   5.747  17.918  0.00  0.00    +0.000 A 
ATOM     13  C   UNL     1       4.804   4.786  18.931  0.00  0.00    +0.000 A 
ATOM     14  C   UNL     1       3.881   4.943  19.961  0.00  0.00    +0.000 A 
ATOM     15  C   UNL     1       3.010   6.034  19.956  0.00  0.00    +0.000 A 
ATOM     16  C   UNL     1       3.078   6.998  18.938  0.00  0.00    +0.000 A 
ATOM     17  C   UNL     1       4.072   6.880  17.951  0.00  0.00    +0.000 A 
BRANCH  16  18
ATOM     18  C   UNL     1       2.029   8.078  18.842  0.00  0.00    +0.000 C 
BRANCH  18  19
ATOM     19  N   UNL     1       1.284   8.249  20.063  0.00  0.00    +0.000 N 
ATOM     20  C   UNL     1       0.791   9.487  20.460  0.00  0.00    +0.000 C 
ATOM     21  O   UNL     1       1.008  10.510  19.809  0.00  0.00    +0.000 OA
ATOM     22  H   UNL     1       1.049   7.430  20.616  0.00  0.00    +0.000 HD
BRANCH  20  23
ATOM     23  C   UNL     1      -0.030   9.465  21.770  0.00  0.00    +0.000 C 
ATOM     24  F   UNL     1       0.774   9.556  22.870  0.00  0.00    +0.000 F 
ATOM     25  F   UNL     1      -0.907  10.501  21.850  0.00  0.00    +0.000 F 
ATOM     26  F   UNL     1      -0.749   8.319  21.919  0.00  0.00    +0.000 F 
ENDBRANCH  20  23
ENDBRANCH  18  19
ENDBRANCH  16  18
ENDBRANCH  11  12
BRANCH   1  28
ATOM     27  C   UNL     1       7.733   8.398  17.095  0.00  0.00    +0.000 C 
ATOM     28  C   UNL     1       7.358   7.163  17.468  0.00  0.00    +0.000 C 
BRANCH  27  32
ATOM     29  C   UNL     1       9.406  11.413  19.653  0.00  0.00    +0.000 A 
ATOM     30  C   UNL     1       8.855  11.749  18.416  0.00  0.00    +0.000 A 
ATOM     31  C   UNL     1       8.325  10.751  17.591  0.00  0.00    +0.000 A 
ATOM     32  C   UNL     1       8.340   9.402  17.984  0.00  0.00    +0.000 A 
ATOM     33  C   UNL     1       8.901   9.078  19.228  0.00  0.00    +0.000 A 
ATOM     34  C   UNL     1       9.435  10.075  20.054  0.00  0.00    +0.000 A 
BRANCH  29  36
ATOM     35  N   UNL     1      10.348  13.261  21.217  0.00  0.00    +0.000 NA
ATOM     36  C   UNL     1       9.925  12.434  20.515  0.00  0.00    +0.000 C 
ENDBRANCH  29  36
ENDBRANCH  27  32
ENDBRANCH   1  28
TORSDOF 7
ENDMDL
MODEL 3
REMARK VINA RESULT:      -8.5      3.489      6.233
REMARK  Name = 
REMARK  7 active torsions:
REMARK  status: ('A' for Active; 'I' for Inactive)
REMARK    1  A    between atoms: C_2  and  C_3
REMARK    2  A    between atoms: C_6  and  C_7
REMARK    3  A    between atoms: C_8  and  C_9
REMARK    4  A    between atoms: N_19  and  C_20
REMARK    5  A    between atoms: C_24  and  C_25
REMARK    6  A    between atoms: C_25  and  N_26
REMARK    7  A    between atoms: C_27  and  C_29
REMARK                            x       y       z     vdW  Elec       q    Type
REMARK                         _______ _______ _______ _____ _____    ______ ____
ROOT
ATOM      1  C   UNL     1       6.711   6.405  16.521  0.00  0.00    +0.000 A 
ATOM      2  N   UNL     1       7.489   6.067  15.535  0.00  0.00    +0.000 NA
ATOM      3  C   UNL     1       7.034   5.130  14.602  0.00  0.00    +0.000 A 
ATOM      4  C   UNL     1       7.820   4.857  13.480  0.00  0.00    +0.000 A 
ATOM      5  C   UNL     1       7.352   4.014  12.467  0.00  0.00    +0.000 A 
ATOM      6  C   UNL     1       6.099   3.415  12.580  0.00  0.00    +0.000 A 
ATOM      7  C   UNL     1       5.327   3.640  13.717  0.00  0.00    +0.000 A 
ATOM      8  C   UNL     1       5.802   4.497  14.720  0.00  0.00    +0.000 A 
ATOM      9  C   UNL     1       4.988   4.801  15.905  0.00  0.00    +0.000 A 
ATOM     10  O   UNL     1       3.939   4.178  16.065  0.00  0.00    +0.000 OA
ATOM     11  N   UNL     1       5.469   5.819  16.743  0.00  0.00    +0.000 N 
ENDROOT
BRANCH  11  12
ATOM     12  C   UNL     1       4.583   6.243  17.776  0.00  0.00    +0.000 A 
ATOM     13  C   UNL     1       4.471   5.478  18.942  0.00  0.00    +0.000 A 
ATOM     14  C   UNL     1       3.471   5.758  19.870  0.00  0.00    +0.000 A 
ATOM     15  C   UNL     1       2.544   6.769  19.611  0.00  0.00    +0.000 A 
ATOM     16  C   UNL     1       2.629   7.534  18.438  0.00  0.00    +0.000 A 
ATOM     17  C   UNL     1       3.694   7.304  17.549  0.00  0.00    +0.000 A 
BRANCH  16  18
ATOM     18  C   UNL     1       1.531   8.505  18.081  0.00  0.00    +0.000 C 
BRANCH  18  19
ATOM     19  N   UNL     1       1.985   9.871  18.025  0.00  0.00    +0.000 N 
ATOM     20  C   UNL     1       1.363  10.886  18.742  0.00  0.00    +0.000 C 
ATOM     21  O   UNL     1       0.360  10.676  19.427  0.00  0.00    +0.000 OA
ATOM     22  H   UNL     1       2.829  10.089  17.504  0.00  0.00    +0.000 HD
BRANCH  20  23
ATOM     23  C   UNL     1       2.024  12.276  18.599  0.00  0.00    +0.000 C 
ATOM     24  F   UNL     1       3.140  12.225  17.814  0.00  0.00    +0.000 F 
ATOM     25  F   UNL     1       1.194  13.188  18.026  0.00  0.00    +0.000 F 
ATOM     26  F   UNL     1       2.422  12.793  19.793  0.00  0.00    +0.000 F 
ENDBRANCH  20  23
ENDBRANCH  18  19
ENDBRANCH  16  18
ENDBRANCH  11  12
BRANCH   1  28
ATOM     27  C   UNL     1       7.766   8.553  17.117  0.00  0.00    +0.000 C 
ATOM     28  C   UNL     1       7.198   7.405  17.524  0.00  0.00    +0.000 C 
BRANCH  27  32
ATOM     29  C   UNL     1       9.420  11.575  19.680  0.00  0.00    +0.000 A 
ATOM     30  C   UNL     1       8.856  11.911  18.449  0.00  0.00    +0.000 A 
ATOM     31  C   UNL     1       8.331  10.910  17.623  0.00  0.00    +0.000 A 
ATOM     32  C   UNL     1       8.367   9.560  18.008  0.00  0.00    +0.000 A 
ATOM     33  C   UNL     1       8.941   9.236  19.246  0.00  0.00    +0.000 A 
ATOM     34  C   UNL     1       9.468  10.235  20.074  0.00  0.00    +0.000 A 
BRANCH  29  36
ATOM     35  N   UNL     1      10.344  13.430  21.247  0.00  0.00    +0.000 NA
ATOM     36  C   UNL     1       9.932  12.598  20.544  0.00  0.00    +0.000 C 
ENDBRANCH  29  36
ENDBRANCH  27  32
ENDBRANCH   1  28
TORSDOF 7
ENDMDL
MODEL 4
REMARK VINA RESULT:      -8.4      0.422      1.044
REMARK  Name = 
REMARK  7 active torsions:
REMARK  status: ('A' for Active; 'I' for Inactive)
REMARK    1  A    between atoms: C_2  and  C_3
REMARK    2  A    between atoms: C_6  and  C_7
REMARK    3  A    between atoms: C_8  and  C_9
REMARK    4  A    between atoms: N_19  and  C_20
REMARK    5  A    between atoms: C_24  and  C_25
REMARK    6  A    between atoms: C_25  and  N_26
REMARK    7  A    between atoms: C_27  and  C_29
REMARK                            x       y       z     vdW  Elec       q    Type
REMARK                         _______ _______ _______ _____ _____    ______ ____
ROOT
ATOM      1  C   UNL     1       5.193   5.023  15.783  0.00  0.00    +0.000 A 
ATOM      2  N   UNL     1       4.566   4.396  14.831  0.00  0.00    +0.000 NA
ATOM      3  C   UNL     1       5.276   4.006  13.692  0.00  0.00    +0.000 A 
ATOM      4  C   UNL     1       4.631   3.230  12.726  0.00  0.00    +0.000 A 
ATOM      5  C   UNL     1       5.335   2.723  11.629  0.00  0.00    +0.000 A 
ATOM      6  C   UNL     1       6.690   3.011  11.475  0.00  0.00    +0.000 A 
ATOM      7  C   UNL     1       7.332   3.825  12.405  0.00  0.00    +0.000 A 
ATOM      8  C   UNL     1       6.618   4.316  13.507  0.00  0.00    +0.000 A 
ATOM      9  C   UNL     1       7.280   5.130  14.536  0.00  0.00    +0.000 A 
ATOM     10  O   UNL     1       8.441   5.487  14.337  0.00  0.00    +0.000 OA
ATOM     11  N   UNL     1       6.529   5.400  15.691  0.00  0.00    +0.000 N 
ENDROOT
BRANCH  11  12
ATOM     12  C   UNL     1       7.238   6.017  16.762  0.00  0.00    +0.000 A 
ATOM     13  C   UNL     1       7.540   5.271  17.907  0.00  0.00    +0.000 A 
ATOM     14  C   UNL     1       8.047   5.901  19.041  0.00  0.00    +0.000 A 
ATOM     15  C   UNL     1       8.204   7.287  19.055  0.00  0.00    +0.000 A 
ATOM     16  C   UNL     1       7.888   8.055  17.923  0.00  0.00    +0.000 A 
ATOM     17  C   UNL     1       7.462   7.402  16.753  0.00  0.00    +0.000 A 
BRANCH  16  18
ATOM     18  C   UNL     1       7.896   9.562  17.998  0.00  0.00    +0.000 C 
BRANCH  18  19
ATOM     19  N   UNL     1       9.193  10.102  18.314  0.00  0.00    +0.000 N 
ATOM     20  C   UNL     1       9.508  11.439  18.098  0.00  0.00    +0.000 C 
ATOM     21  O   UNL     1       8.707  12.219  17.581  0.00  0.00    +0.000 OA
ATOM     22  H   UNL     1       9.876   9.508  18.775  0.00  0.00    +0.000 HD
BRANCH  20  23
ATOM     23  C   UNL     1      10.930  11.847  18.548  0.00  0.00    +0.000 C 
ATOM     24  F   UNL     1      10.929  13.057  19.182  0.00  0.00    +0.000 F 
ATOM     25  F   UNL     1      11.472  10.958  19.422  0.00  0.00    +0.000 F 
ATOM     26  F   UNL     1      11.798  11.963  17.506  0.00  0.00    +0.000 F 
ENDBRANCH  20  23
ENDBRANCH  18  19
ENDBRANCH  16  18
ENDBRANCH  11  12
BRANCH   1  28
ATOM     27  C   UNL     1       3.634   6.524  16.964  0.00  0.00    +0.000 C 
ATOM     28  C   UNL     1       4.433   5.445  17.002  0.00  0.00    +0.000 C 
BRANCH  27  32
ATOM     29  C   UNL     1       1.643   8.114  20.420  0.00  0.00    +0.000 A 
ATOM     30  C   UNL     1       2.232   6.850  20.451  0.00  0.00    +0.000 A 
ATOM     31  C   UNL     1       2.867   6.344  19.311  0.00  0.00    +0.000 A 
ATOM     32  C   UNL     1       2.919   7.088  18.121  0.00  0.00    +0.000 A 
ATOM     33  C   UNL     1       2.318   8.356  18.102  0.00  0.00    +0.000 A 
ATOM     34  C   UNL     1       1.681   8.863  19.241  0.00  0.00    +0.000 A 
BRANCH  29  36
ATOM     35  N   UNL     1       0.510   9.082  22.548  0.00  0.00    +0.000 NA
ATOM     36  C   UNL     1       1.017   8.650  21.592  0.00  0.00    +0.000 C 
ENDBRANCH  29  36
ENDBRANCH  27  32
ENDBRANCH   1  28
TORSDOF 7
ENDMDL
MODEL 5
REMARK VINA RESULT:      -8.3      3.831      6.691
REMARK  Name = 
REMARK  7 active torsions:
REMARK  status: ('A' for Active; 'I' for Inactive)
REMARK    1  A    between atoms: C_2  and  C_3
REMARK    2  A    between atoms: C_6  and  C_7
REMARK    3  A    between atoms: C_8  and  C_9
REMARK    4  A    between atoms: N_19  and  C_20
REMARK    5  A    between atoms: C_24  and  C_25
REMARK    6  A    between atoms: C_25  and  N_26
REMARK    7  A    between atoms: C_27  and  C_29
REMARK                            x       y       z     vdW  Elec       q    Type
REMARK                         _______ _______ _______ _____ _____    ______ ____
ROOT
ATOM      1  C   UNL     1       6.915   6.069  16.343  0.00  0.00    +0.000 A 
ATOM      2  N   UNL     1       7.563   5.887  15.230  0.00  0.00    +0.000 NA
ATOM      3  C   UNL     1       7.063   4.978  14.294  0.00  0.00    +0.000 A 
ATOM      4  C   UNL     1       7.692   4.872  13.051  0.00  0.00    +0.000 A 
ATOM      5  C   UNL     1       7.158   4.059  12.046  0.00  0.00    +0.000 A 
ATOM      6  C   UNL     1       5.999   3.323  12.285  0.00  0.00    +0.000 A 
ATOM      7  C   UNL     1       5.390   3.382  13.537  0.00  0.00    +0.000 A 
ATOM      8  C   UNL     1       5.929   4.210  14.532  0.00  0.00    +0.000 A 
ATOM      9  C   UNL     1       5.278   4.339  15.843  0.00  0.00    +0.000 A 
ATOM     10  O   UNL     1       4.330   3.597  16.097  0.00  0.00    +0.000 OA
ATOM     11  N   UNL     1       5.782   5.339  16.689  0.00  0.00    +0.000 N 
ENDROOT
BRANCH  11  12
ATOM     12  C   UNL     1       5.027   5.590  17.871  0.00  0.00    +0.000 A 
ATOM     13  C   UNL     1       5.008   4.633  18.892  0.00  0.00    +0.000 A 
ATOM     14  C   UNL     1       4.123   4.763  19.959  0.00  0.00    +0.000 A 
ATOM     15  C   UNL     1       3.214   5.822  19.984  0.00  0.00    +0.000 A 
ATOM     16  C   UNL     1       3.205   6.781  18.960  0.00  0.00    +0.000 A 
ATOM     17  C   UNL     1       4.161   6.692  17.933  0.00  0.00    +0.000 A 
BRANCH  16  18
ATOM     18  C   UNL     1       2.115   7.822  18.901  0.00  0.00    +0.000 C 
BRANCH  18  19
ATOM     19  N   UNL     1       1.558   8.126  20.194  0.00  0.00    +0.000 N 
ATOM     20  C   UNL     1       0.754   9.240  20.408  0.00  0.00    +0.000 C 
ATOM     21  O   UNL     1       0.516  10.051  19.511  0.00  0.00    +0.000 OA
ATOM     22  H   UNL     1       1.695   7.470  20.957  0.00  0.00    +0.000 HD
BRANCH  20  23
ATOM     23  C   UNL     1       0.204   9.372  21.847  0.00  0.00    +0.000 C 
ATOM     24  F   UNL     1      -0.323  10.611  22.074  0.00  0.00    +0.000 F 
ATOM     25  F   UNL     1      -0.789   8.481  22.106  0.00  0.00    +0.000 F 
ATOM     26  F   UNL     1       1.163   9.187  22.795  0.00  0.00    +0.000 F 
ENDBRANCH  20  23
ENDBRANCH  18  19
ENDBRANCH  16  18
ENDBRANCH  11  12
BRANCH   1  28
ATOM     27  C   UNL     1       7.589   8.338  17.033  0.00  0.00    +0.000 C 
ATOM     28  C   UNL     1       7.452   7.040  17.349  0.00  0.00    +0.000 C 
BRANCH  27  32
ATOM     29  C   UNL     1       9.454  11.232  19.599  0.00  0.00    +0.000 A 
ATOM     30  C   UNL     1       9.444   9.878  19.935  0.00  0.00    +0.000 A 
ATOM     31  C   UNL     1       8.822   8.951  19.092  0.00  0.00    +0.000 A 
ATOM     32  C   UNL     1       8.195   9.361  17.903  0.00  0.00    +0.000 A 
ATOM     33  C   UNL     1       8.208  10.725  17.580  0.00  0.00    +0.000 A 
ATOM     34  C   UNL     1       8.829  11.655  18.423  0.00  0.00    +0.000 A 
BRANCH  29  36
ATOM     35  N   UNL     1      10.650  12.952  21.134  0.00  0.00    +0.000 NA
ATOM     36  C   UNL     1      10.115  12.182  20.444  0.00  0.00    +0.000 C 
ENDBRANCH  29  36
ENDBRANCH  27  32
ENDBRANCH   1  28
TORSDOF 7
ENDMDL
MODEL 6
REMARK VINA RESULT:      -8.1      3.762      6.608
REMARK  Name = 
REMARK  7 active torsions:
REMARK  status: ('A' for Active; 'I' for Inactive)
REMARK    1  A    between atoms: C_2  and  C_3
REMARK    2  A    between atoms: C_6  and  C_7
REMARK    3  A    between atoms: C_8  and  C_9
REMARK    4  A    between atoms: N_19  and  C_20
REMARK    5  A    between atoms: C_24  and  C_25
REMARK    6  A    between atoms: C_25  and  N_26
REMARK    7  A    between atoms: C_27  and  C_29
REMARK                            x       y       z     vdW  Elec       q    Type
REMARK                         _______ _______ _______ _____ _____    ______ ____
ROOT
ATOM      1  C   UNL     1       6.719   6.343  16.478  0.00  0.00    +0.000 A 
ATOM      2  N   UNL     1       7.470   6.018  15.467  0.00  0.00    +0.000 NA
ATOM      3  C   UNL     1       7.000   5.077  14.547  0.00  0.00    +0.000 A 
ATOM      4  C   UNL     1       7.754   4.818  13.399  0.00  0.00    +0.000 A 
ATOM      5  C   UNL     1       7.267   3.970  12.400  0.00  0.00    +0.000 A 
ATOM      6  C   UNL     1       6.028   3.351  12.551  0.00  0.00    +0.000 A 
ATOM      7  C   UNL     1       5.289   3.561  13.714  0.00  0.00    +0.000 A 
ATOM      8  C   UNL     1       5.783   4.424  14.703  0.00  0.00    +0.000 A 
ATOM      9  C   UNL     1       5.003   4.712  15.915  0.00  0.00    +0.000 A 
ATOM     10  O   UNL     1       3.970   4.072  16.107  0.00  0.00    +0.000 OA
ATOM     11  N   UNL     1       5.495   5.736  16.739  0.00  0.00    +0.000 N 
ENDROOT
BRANCH  11  12
ATOM     12  C   UNL     1       4.636   6.143  17.801  0.00  0.00    +0.000 A 
ATOM     13  C   UNL     1       4.479   5.312  18.916  0.00  0.00    +0.000 A 
ATOM     14  C   UNL     1       3.498   5.590  19.864  0.00  0.00    +0.000 A 
ATOM     15  C   UNL     1       2.632   6.668  19.675  0.00  0.00    +0.000 A 
ATOM     16  C   UNL     1       2.762   7.501  18.554  0.00  0.00    +0.000 A 
ATOM     17  C   UNL     1       3.811   7.268  17.647  0.00  0.00    +0.000 A 
BRANCH  16  18
ATOM     18  C   UNL     1       1.724   8.558  18.266  0.00  0.00    +0.000 C 
BRANCH  18  19
ATOM     19  N   UNL     1       1.176   9.148  19.460  0.00  0.00    +0.000 N 
ATOM     20  C   UNL     1       1.034  10.523  19.605  0.00  0.00    +0.000 C 
ATOM     21  O   UNL     1       1.413  11.310  18.736  0.00  0.00    +0.000 OA
ATOM     22  H   UNL     1       0.815   8.541  20.189  0.00  0.00    +0.000 HD
BRANCH  20  23
ATOM     23  C   UNL     1       0.377  10.968  20.932  0.00  0.00    +0.000 C 
ATOM     24  F   UNL     1       0.780  10.189  21.979  0.00  0.00    +0.000 F 
ATOM     25  F   UNL     1       0.692  12.248  21.263  0.00  0.00    +0.000 F 
ATOM     26  F   UNL     1      -0.981  10.887  20.898  0.00  0.00    +0.000 F 
ENDBRANCH  20  23
ENDBRANCH  18  19
ENDBRANCH  16  18
ENDBRANCH  11  12
BRANCH   1  28
ATOM     27  C   UNL     1       7.621   8.563  17.057  0.00  0.00    +0.000 C 
ATOM     28  C   UNL     1       7.222   7.348  17.467  0.00  0.00    +0.000 C 
BRANCH  27  32
ATOM     29  C   UNL     1       9.478  11.479  19.604  0.00  0.00    +0.000 A 
ATOM     30  C   UNL     1       9.502  10.123  19.932  0.00  0.00    +0.000 A 
ATOM     31  C   UNL     1       8.882   9.188  19.094  0.00  0.00    +0.000 A 
ATOM     32  C   UNL     1       8.223   9.593  17.921  0.00  0.00    +0.000 A 
ATOM     33  C   UNL     1       8.202  10.959  17.607  0.00  0.00    +0.000 A 
ATOM     34  C   UNL     1       8.820  11.896  18.444  0.00  0.00    +0.000 A 
BRANCH  29  36
ATOM     35  N   UNL     1      10.668  13.216  21.125  0.00  0.00    +0.000 NA
ATOM     36  C   UNL     1      10.136  12.437  20.442  0.00  0.00    +0.000 C 
ENDBRANCH  29  36
ENDBRANCH  27  32
ENDBRANCH   1  28
TORSDOF 7
ENDMDL
MODEL 7
REMARK VINA RESULT:      -7.8      3.653      6.499
REMARK  Name = 
REMARK  7 active torsions:
REMARK  status: ('A' for Active; 'I' for Inactive)
REMARK    1  A    between atoms: C_2  and  C_3
REMARK    2  A    between atoms: C_6  and  C_7
REMARK    3  A    between atoms: C_8  and  C_9
REMARK    4  A    between atoms: N_19  and  C_20
REMARK    5  A    between atoms: C_24  and  C_25
REMARK    6  A    between atoms: C_25  and  N_26
REMARK    7  A    between atoms: C_27  and  C_29
REMARK                            x       y       z     vdW  Elec       q    Type
REMARK                         _______ _______ _______ _____ _____    ______ ____
ROOT
ATOM      1  C   UNL     1       6.662   6.364  16.527  0.00  0.00    +0.000 A 
ATOM      2  N   UNL     1       7.427   6.022  15.532  0.00  0.00    +0.000 NA
ATOM      3  C   UNL     1       6.966   5.070  14.617  0.00  0.00    +0.000 A 
ATOM      4  C   UNL     1       7.736   4.793  13.485  0.00  0.00    +0.000 A 
ATOM      5  C   UNL     1       7.260   3.933  12.490  0.00  0.00    +0.000 A 
ATOM      6  C   UNL     1       6.016   3.323  12.631  0.00  0.00    +0.000 A 
ATOM      7  C   UNL     1       5.260   3.552  13.779  0.00  0.00    +0.000 A 
ATOM      8  C   UNL     1       5.743   4.426  14.763  0.00  0.00    +0.000 A 
ATOM      9  C   UNL     1       4.946   4.734  15.959  0.00  0.00    +0.000 A 
ATOM     10  O   UNL     1       3.907   4.102  16.143  0.00  0.00    +0.000 OA
ATOM     11  N   UNL     1       5.430   5.767  16.777  0.00  0.00    +0.000 N 
ENDROOT
BRANCH  11  12
ATOM     12  C   UNL     1       4.557   6.193  17.820  0.00  0.00    +0.000 A 
ATOM     13  C   UNL     1       4.441   5.417  18.979  0.00  0.00    +0.000 A 
ATOM     14  C   UNL     1       3.451   5.702  19.916  0.00  0.00    +0.000 A 
ATOM     15  C   UNL     1       2.538   6.729  19.674  0.00  0.00    +0.000 A 
ATOM     16  C   UNL     1       2.627   7.505  18.508  0.00  0.00    +0.000 A 
ATOM     17  C   UNL     1       3.682   7.269  17.610  0.00  0.00    +0.000 A 
BRANCH  16  18
ATOM     18  C   UNL     1       1.541   8.497  18.169  0.00  0.00    +0.000 C 
BRANCH  18  19
ATOM     19  N   UNL     1       1.724   9.772  18.811  0.00  0.00    +0.000 N 
ATOM     20  C   UNL     1       0.726  10.739  18.830  0.00  0.00    +0.000 C 
ATOM     21  O   UNL     1      -0.352  10.571  18.256  0.00  0.00    +0.000 OA
ATOM     22  H   UNL     1       2.580   9.945  19.329  0.00  0.00    +0.000 HD
BRANCH  20  23
ATOM     23  C   UNL     1       1.085  12.023  19.614  0.00  0.00    +0.000 C 
ATOM     24  F   UNL     1       0.009  12.854  19.739  0.00  0.00    +0.000 F 
ATOM     25  F   UNL     1       1.513  11.757  20.876  0.00  0.00    +0.000 F 
ATOM     26  F   UNL     1       2.061  12.752  19.007  0.00  0.00    +0.000 F 
ENDBRANCH  20  23
ENDBRANCH  18  19
ENDBRANCH  16  18
ENDBRANCH  11  12
BRANCH   1  28
ATOM     27  C   UNL     1       7.667   8.545  17.082  0.00  0.00    +0.000 C 
ATOM     28  C   UNL     1       7.155   7.380  17.510  0.00  0.00    +0.000 C 
BRANCH  27  32
ATOM     29  C   UNL     1       9.524  11.454  19.638  0.00  0.00    +0.000 A 
ATOM     30  C   UNL     1       9.517  10.101  19.980  0.00  0.00    +0.000 A 
ATOM     31  C   UNL     1       8.897   9.169  19.139  0.00  0.00    +0.000 A 
ATOM     32  C   UNL     1       8.270   9.573  17.949  0.00  0.00    +0.000 A 
ATOM     33  C   UNL     1       8.281  10.936  17.619  0.00  0.00    +0.000 A 
ATOM     34  C   UNL     1       8.898  11.870  18.460  0.00  0.00    +0.000 A 
BRANCH  29  36
ATOM     35  N   UNL     1      10.719  13.182  21.165  0.00  0.00    +0.000 NA
ATOM     36  C   UNL     1      10.183  12.409  20.479  0.00  0.00    +0.000 C 
ENDBRANCH  29  36
ENDBRANCH  27  32
ENDBRANCH   1  28
TORSDOF 7
ENDMDL
MODEL 8
REMARK VINA RESULT:      -7.7      4.543      8.436
REMARK  Name = 
REMARK  7 active torsions:
REMARK  status: ('A' for Active; 'I' for Inactive)
REMARK    1  A    between atoms: C_2  and  C_3
REMARK    2  A    between atoms: C_6  and  C_7
REMARK    3  A    between atoms: C_8  and  C_9
REMARK    4  A    between atoms: N_19  and  C_20
REMARK    5  A    between atoms: C_24  and  C_25
REMARK    6  A    between atoms: C_25  and  N_26
REMARK    7  A    between atoms: C_27  and  C_29
REMARK                            x       y       z     vdW  Elec       q    Type
REMARK                         _______ _______ _______ _____ _____    ______ ____
ROOT
ATOM      1  C   UNL     1       0.162  10.214  18.370  0.00  0.00    +0.000 A 
ATOM      2  N   UNL     1      -0.881   9.583  17.915  0.00  0.00    +0.000 NA
ATOM      3  C   UNL     1      -2.113  10.243  17.884  0.00  0.00    +0.000 A 
ATOM      4  C   UNL     1      -3.204   9.608  17.285  0.00  0.00    +0.000 A 
ATOM      5  C   UNL     1      -4.424  10.276  17.132  0.00  0.00    +0.000 A 
ATOM      6  C   UNL     1      -4.569  11.580  17.599  0.00  0.00    +0.000 A 
ATOM      7  C   UNL     1      -3.504  12.206  18.242  0.00  0.00    +0.000 A 
ATOM      8  C   UNL     1      -2.283  11.530  18.379  0.00  0.00    +0.000 A 
ATOM      9  C   UNL     1      -1.122  12.182  19.001  0.00  0.00    +0.000 A 
ATOM     10  O   UNL     1      -1.285  13.284  19.524  0.00  0.00    +0.000 OA
ATOM     11  N   UNL     1       0.098  11.495  18.908  0.00  0.00    +0.000 N 
ENDROOT
BRANCH  11  12
ATOM     12  C   UNL     1       1.251  12.217  19.335  0.00  0.00    +0.000 A 
ATOM     13  C   UNL     1       1.474  12.408  20.703  0.00  0.00    +0.000 A 
ATOM     14  C   UNL     1       2.474  13.276  21.135  0.00  0.00    +0.000 A 
ATOM     15  C   UNL     1       3.219  13.999  20.203  0.00  0.00    +0.000 A 
ATOM     16  C   UNL     1       2.996  13.836  18.827  0.00  0.00    +0.000 A 
ATOM     17  C   UNL     1       2.047  12.892  18.397  0.00  0.00    +0.000 A 
BRANCH  16  18
ATOM     18  C   UNL     1       3.680  14.740  17.832  0.00  0.00    +0.000 C 
BRANCH  18  19
ATOM     19  N   UNL     1       5.074  14.426  17.653  0.00  0.00    +0.000 N 
ATOM     20  C   UNL     1       6.083  15.210  18.199  0.00  0.00    +0.000 C 
ATOM     21  O   UNL     1       5.836  16.242  18.826  0.00  0.00    +0.000 OA
ATOM     22  H   UNL     1       5.329  13.567  17.175  0.00  0.00    +0.000 HD
BRANCH  20  23
ATOM     23  C   UNL     1       7.516  14.686  17.947  0.00  0.00    +0.000 C 
ATOM     24  F   UNL     1       8.133  14.327  19.112  0.00  0.00    +0.000 F 
ATOM     25  F   UNL     1       7.532  13.585  17.150  0.00  0.00    +0.000 F 
ATOM     26  F   UNL     1       8.320  15.615  17.362  0.00  0.00    +0.000 F 
ENDBRANCH  20  23
ENDBRANCH  18  19
ENDBRANCH  16  18
ENDBRANCH  11  12
BRANCH   1  28
ATOM     27  C   UNL     1       1.575   8.222  18.030  0.00  0.00    +0.000 C 
ATOM     28  C   UNL     1       1.481   9.508  18.409  0.00  0.00    +0.000 C 
BRANCH  27  32
ATOM     29  C   UNL     1       5.204   5.938  18.256  0.00  0.00    +0.000 A 
ATOM     30  C   UNL     1       5.034   6.916  17.275  0.00  0.00    +0.000 A 
ATOM     31  C   UNL     1       3.839   7.643  17.211  0.00  0.00    +0.000 A 
ATOM     32  C   UNL     1       2.795   7.401  18.119  0.00  0.00    +0.000 A 
ATOM     33  C   UNL     1       2.978   6.412  19.097  0.00  0.00    +0.000 A 
ATOM     34  C   UNL     1       4.171   5.683  19.162  0.00  0.00    +0.000 A 
BRANCH  29  36
ATOM     35  N   UNL     1       7.436   4.620  18.422  0.00  0.00    +0.000 NA
ATOM     36  C   UNL     1       6.436   5.212  18.346  0.00  0.00    +0.000 C 
ENDBRANCH  29  36
ENDBRANCH  27  32
ENDBRANCH   1  28
TORSDOF 7
ENDMDL
MODEL 9
REMARK VINA RESULT:      -7.6      4.813      8.710
REMARK  Name = 
REMARK  7 active torsions:
REMARK  status: ('A' for Active; 'I' for Inactive)
REMARK    1  A    between atoms: C_2  and  C_3
REMARK    2  A    between atoms: C_6  and  C_7
REMARK    3  A    between atoms: C_8  and  C_9
REMARK    4  A    between atoms: N_19  and  C_20
REMARK    5  A    between atoms: C_24  and  C_25
REMARK    6  A    between atoms: C_25  and  N_26
REMARK    7  A    between atoms: C_27  and  C_29
REMARK                            x       y       z     vdW  Elec       q    Type
REMARK                         _______ _______ _______ _____ _____    ______ ____
ROOT
ATOM      1  C   UNL     1       0.144  10.327  18.328  0.00  0.00    +0.000 A 
ATOM      2  N   UNL     1      -0.915   9.689  17.921  0.00  0.00    +0.000 NA
ATOM      3  C   UNL     1      -2.159  10.322  17.998  0.00  0.00    +0.000 A 
ATOM      4  C   UNL     1      -3.276   9.685  17.452  0.00  0.00    +0.000 A 
ATOM      5  C   UNL     1      -4.515  10.330  17.406  0.00  0.00    +0.000 A 
ATOM      6  C   UNL     1      -4.655  11.614  17.929  0.00  0.00    +0.000 A 
ATOM      7  C   UNL     1      -3.560  12.240  18.521  0.00  0.00    +0.000 A 
ATOM      8  C   UNL     1      -2.320  11.587  18.550  0.00  0.00    +0.000 A 
ATOM      9  C   UNL     1      -1.132  12.243  19.115  0.00  0.00    +0.000 A 
ATOM     10  O   UNL     1      -1.281  13.322  19.688  0.00  0.00    +0.000 OA
ATOM     11  N   UNL     1       0.092  11.587  18.915  0.00  0.00    +0.000 N 
ENDROOT
BRANCH  11  12
ATOM     12  C   UNL     1       1.257  12.319  19.289  0.00  0.00    +0.000 A 
ATOM     13  C   UNL     1       1.582  12.448  20.644  0.00  0.00    +0.000 A 
ATOM     14  C   UNL     1       2.591  13.321  21.043  0.00  0.00    +0.000 A 
ATOM     15  C   UNL     1       3.243  14.110  20.094  0.00  0.00    +0.000 A 
ATOM     16  C   UNL     1       2.917  14.009  18.733  0.00  0.00    +0.000 A 
ATOM     17  C   UNL     1       1.960  13.061  18.329  0.00  0.00    +0.000 A 
BRANCH  16  18
ATOM     18  C   UNL     1       3.499  14.981  17.736  0.00  0.00    +0.000 C 
BRANCH  18  19
ATOM     19  N   UNL     1       4.928  15.121  17.857  0.00  0.00    +0.000 N 
ATOM     20  C   UNL     1       5.515  16.265  18.383  0.00  0.00    +0.000 C 
ATOM     21  O   UNL     1       4.844  17.238  18.731  0.00  0.00    +0.000 OA
ATOM     22  H   UNL     1       5.522  14.333  17.617  0.00  0.00    +0.000 HD
BRANCH  20  23
ATOM     23  C   UNL     1       7.058  16.211  18.483  0.00  0.00    +0.000 C 
ATOM     24  F   UNL     1       7.609  15.557  17.419  0.00  0.00    +0.000 F 
ATOM     25  F   UNL     1       7.619  17.449  18.504  0.00  0.00    +0.000 F 
ATOM     26  F   UNL     1       7.489  15.558  19.597  0.00  0.00    +0.000 F 
ENDBRANCH  20  23
ENDBRANCH  18  19
ENDBRANCH  16  18
ENDBRANCH  11  12
BRANCH   1  28
ATOM     27  C   UNL     1       1.554   8.316  18.110  0.00  0.00    +0.000 C 
ATOM     28  C   UNL     1       1.477   9.650  18.251  0.00  0.00    +0.000 C 
BRANCH  27  32
ATOM     29  C   UNL     1       5.123   5.929  18.179  0.00  0.00    +0.000 A 
ATOM     30  C   UNL     1       4.116   5.738  19.126  0.00  0.00    +0.000 A 
ATOM     31  C   UNL     1       2.964   6.533  19.094  0.00  0.00    +0.000 A 
ATOM     32  C   UNL     1       2.803   7.535  18.121  0.00  0.00    +0.000 A 
ATOM     33  C   UNL     1       3.825   7.719  17.179  0.00  0.00    +0.000 A 
ATOM     34  C   UNL     1       4.979   6.926  17.211  0.00  0.00    +0.000 A 
BRANCH  29  36
ATOM     35  N   UNL     1       7.242   4.427  18.199  0.00  0.00    +0.000 NA
ATOM     36  C   UNL     1       6.291   5.099  18.189  0.00  0.00    +0.000 C 
ENDBRANCH  29  36
ENDBRANCH  27  32
ENDBRANCH   1  28
TORSDOF 7
ENDMDL
