MODEL 1
REMARK VINA RESULT:      -8.4      0.000      0.000
REMARK  Name = 
REMARK  9 active torsions:
REMARK  status: ('A' for Active; 'I' for Inactive)
REMARK    1  A    between atoms: C_1  and  C_2
REMARK    2  A    between atoms: C_4  and  C_5
REMARK    3  A    between atoms: C_8  and  C_9
REMARK    4  A    between atoms: C_11  and  C_12
REMARK    5  A    between atoms: N_14  and  C_15
REMARK    6  A    between atoms: N_14  and  C_16
REMARK    7  A    between atoms: C_19  and  S_20
REMARK    8  A    between atoms: S_20  and  C_21
REMARK    9  A    between atoms: N_28  and  C_29
REMARK                            x       y       z     vdW  Elec       q    Type
REMARK                         _______ _______ _______ _____ _____    ______ ____
ROOT
ATOM      1  C   UNL     1       1.455   1.913  18.902  0.00  0.00    +0.000 C 
ATOM      2  C   UNL     1       2.116   3.228  19.115  0.00  0.00    +0.000 A 
ATOM      3  N   UNL     1       1.495   4.382  19.223  0.00  0.00    +0.000 NA
ATOM      4  C   UNL     1       2.478   5.348  19.310  0.00  0.00    +0.000 A 
ATOM      5  C   UNL     1       3.729   4.754  19.300  0.00  0.00    +0.000 A 
ATOM      6  N   UNL     1       3.483   3.402  19.199  0.00  0.00    +0.000 N 
ATOM      7  C   UNL     1       4.438   2.319  19.143  0.00  0.00    +0.000 C 
ENDROOT
BRANCH   4   8
ATOM      8  C   UNL     1       2.131   6.760  19.383  0.00  0.00    +0.000 A 
ATOM      9  C   UNL     1       1.615   7.267  20.581  0.00  0.00    +0.000 A 
ATOM     10  C   UNL     1       1.219   8.604  20.683  0.00  0.00    +0.000 A 
ATOM     11  C   UNL     1       1.320   9.486  19.595  0.00  0.00    +0.000 A 
ATOM     12  C   UNL     1       1.833   8.968  18.398  0.00  0.00    +0.000 A 
ATOM     13  C   UNL     1       2.222   7.625  18.288  0.00  0.00    +0.000 A 
BRANCH  11  14
ATOM     14  C   UNL     1       0.794  10.894  19.692  0.00  0.00    +0.000 C 
ATOM     15  C   UNL     1      -0.133  11.430  18.630  0.00  0.00    +0.000 C 
ATOM     16  C   UNL     1      -0.662  11.182  20.023  0.00  0.00    +0.000 C 
BRANCH  16  17
ATOM     17  C   UNL     1      -0.949  12.337  20.934  0.00  0.00    +0.000 C 
ATOM     18  O   UNL     1      -1.074  13.454  20.436  0.00  0.00    +0.000 OA
ATOM     19  N   UNL     1      -1.024  12.122  22.308  0.00  0.00    +0.000 N 
ATOM     20  C   UNL     1      -0.938  10.841  22.991  0.00  0.00    +0.000 C 
ATOM     21  C   UNL     1      -1.239  13.273  23.175  0.00  0.00    +0.000 C 
ENDBRANCH  16  17
ENDBRANCH  11  14
ENDBRANCH   4   8
BRANCH   5  22
ATOM     22  S   UNL     1       5.343   5.403  19.293  0.00  0.00    +0.000 S 
BRANCH  22  23
ATOM     23  C   UNL     1       5.756   5.221  17.570  0.00  0.00    +0.000 A 
ATOM     24  C   UNL     1       4.818   5.543  16.592  0.00  0.00    +0.000 A 
ATOM     25  C   UNL     1       5.086   5.218  15.260  0.00  0.00    +0.000 A 
ATOM     26  C   UNL     1       6.283   4.584  14.948  0.00  0.00    +0.000 A 
ATOM     27 CL   UNL     1       6.632   4.113  13.336  0.00  0.00    +0.000 Cl
ATOM     28  C   UNL     1       7.171   4.321  15.978  0.00  0.00    +0.000 A 
ATOM     29  N   UNL     1       6.934   4.618  17.281  0.00  0.00    +0.000 NA
ENDBRANCH  22  23
ENDBRANCH   5  22
TORSDOF 5
ENDMDL
MODEL 2
REMARK VINA RESULT:      -7.9      1.657      1.908
REMARK  Name = 
REMARK  9 active torsions:
REMARK  status: ('A' for Active; 'I' for Inactive)
REMARK    1  A    between atoms: C_1  and  C_2
REMARK    2  A    between atoms: C_4  and  C_5
REMARK    3  A    between atoms: C_8  and  C_9
REMARK    4  A    between atoms: C_11  and  C_12
REMARK    5  A    between atoms: N_14  and  C_15
REMARK    6  A    between atoms: N_14  and  C_16
REMARK    7  A    between atoms: C_19  and  S_20
REMARK    8  A    between atoms: S_20  and  C_21
REMARK    9  A    between atoms: N_28  and  C_29
REMARK                            x       y       z     vdW  Elec       q    Type
REMARK                         _______ _______ _______ _____ _____    ______ ____
ROOT
ATOM      1  C   UNL     1       1.578   2.098  19.208  0.00  0.00    +0.000 C 
ATOM      2  C   UNL     1       2.241   3.427  19.276  0.00  0.00    +0.000 A 
ATOM      3  N   UNL     1       1.625   4.588  19.244  0.00  0.00    +0.000 NA
ATOM      4  C   UNL     1       2.610   5.554  19.229  0.00  0.00    +0.000 A 
ATOM      5  C   UNL     1       3.859   4.961  19.301  0.00  0.00    +0.000 A 
ATOM      6  N   UNL     1       3.609   3.606  19.353  0.00  0.00    +0.000 N 
ATOM      7  C   UNL     1       4.559   2.521  19.432  0.00  0.00    +0.000 C 
ENDROOT
BRANCH   4   8
ATOM      8  C   UNL     1       2.268   6.966  19.135  0.00  0.00    +0.000 A 
ATOM      9  C   UNL     1       1.728   7.606  20.256  0.00  0.00    +0.000 A 
ATOM     10  C   UNL     1       1.336   8.948  20.199  0.00  0.00    +0.000 A 
ATOM     11  C   UNL     1       1.466   9.701  19.022  0.00  0.00    +0.000 A 
ATOM     12  C   UNL     1       2.002   9.050  17.902  0.00  0.00    +0.000 A 
ATOM     13  C   UNL     1       2.388   7.703  17.952  0.00  0.00    +0.000 A 
BRANCH  11  14
ATOM     14  C   UNL     1       0.943  11.112  18.948  0.00  0.00    +0.000 C 
ATOM     15  C   UNL     1       0.059  11.650  20.044  0.00  0.00    +0.000 C 
ATOM     16  C   UNL     1       1.455  12.204  19.874  0.00  0.00    +0.000 C 
BRANCH  16  17
ATOM     17  C   UNL     1       1.656  13.569  19.290  0.00  0.00    +0.000 C 
ATOM     18  O   UNL     1       1.994  13.653  18.111  0.00  0.00    +0.000 OA
ATOM     19  N   UNL     1       1.496  14.690  20.100  0.00  0.00    +0.000 N 
ATOM     20  C   UNL     1       1.054  14.702  21.485  0.00  0.00    +0.000 C 
ATOM     21  C   UNL     1       1.761  16.001  19.523  0.00  0.00    +0.000 C 
ENDBRANCH  16  17
ENDBRANCH  11  14
ENDBRANCH   4   8
BRANCH   5  22
ATOM     22  S   UNL     1       5.475   5.600  19.236  0.00  0.00    +0.000 S 
BRANCH  22  23
ATOM     23  C   UNL     1       5.853   5.349  17.514  0.00  0.00    +0.000 A 
ATOM     24  C   UNL     1       5.032   5.903  16.534  0.00  0.00    +0.000 A 
ATOM     25  C   UNL     1       5.229   5.542  15.199  0.00  0.00    +0.000 A 
ATOM     26  C   UNL     1       6.241   4.644  14.885  0.00  0.00    +0.000 A 
ATOM     27 CL   UNL     1       6.486   4.127  13.267  0.00  0.00    +0.000 Cl
ATOM     28  C   UNL     1       7.027   4.158  15.917  0.00  0.00    +0.000 A 
ATOM     29  N   UNL     1       6.854   4.484  17.223  0.00  0.00    +0.000 NA
ENDBRANCH  22  23
ENDBRANCH   5  22
TORSDOF 5
ENDMDL
MODEL 3
REMARK VINA RESULT:      -7.7      1.534      2.077
REMARK  Name = 
REMARK  9 active torsions:
REMARK  status: ('A' for Active; 'I' for Inactive)
REMARK    1  A    between atoms: C_1  and  C_2
REMARK    2  A    between atoms: C_4  and  C_5
REMARK    3  A    between atoms: C_8  and  C_9
REMARK    4  A    between atoms: C_11  and  C_12
REMARK    5  A    between atoms: N_14  and  C_15
REMARK    6  A    between atoms: N_14  and  C_16
REMARK    7  A    between atoms: C_19  and  S_20
REMARK    8  A    between atoms: S_20  and  C_21
REMARK    9  A    between atoms: N_28  and  C_29
REMARK                            x       y       z     vdW  Elec       q    Type
REMARK                         _______ _______ _______ _____ _____    ______ ____
ROOT
ATOM      1  C   UNL     1       1.473   2.102  18.639  0.00  0.00    +0.000 C 
ATOM      2  C   UNL     1       2.094   3.417  18.947  0.00  0.00    +0.000 A 
ATOM      3  N   UNL     1       1.442   4.547  19.109  0.00  0.00    +0.000 NA
ATOM      4  C   UNL     1       2.397   5.530  19.279  0.00  0.00    +0.000 A 
ATOM      5  C   UNL     1       3.662   4.969  19.264  0.00  0.00    +0.000 A 
ATOM      6  N   UNL     1       3.454   3.620  19.075  0.00  0.00    +0.000 N 
ATOM      7  C   UNL     1       4.437   2.565  18.978  0.00  0.00    +0.000 C 
ENDROOT
BRANCH   4   8
ATOM      8  C   UNL     1       2.012   6.926  19.427  0.00  0.00    +0.000 A 
ATOM      9  C   UNL     1       1.532   7.365  20.666  0.00  0.00    +0.000 A 
ATOM     10  C   UNL     1       1.101   8.684  20.843  0.00  0.00    +0.000 A 
ATOM     11  C   UNL     1       1.131   9.614  19.792  0.00  0.00    +0.000 A 
ATOM     12  C   UNL     1       1.609   9.163  18.553  0.00  0.00    +0.000 A 
ATOM     13  C   UNL     1       2.032   7.840  18.368  0.00  0.00    +0.000 A 
BRANCH  11  14
ATOM     14  C   UNL     1       0.568  11.000  19.971  0.00  0.00    +0.000 C 
ATOM     15  C   UNL     1       0.138  11.471  21.337  0.00  0.00    +0.000 C 
ATOM     16  C   UNL     1       1.348  12.094  20.682  0.00  0.00    +0.000 C 
BRANCH  16  17
ATOM     17  C   UNL     1       1.267  13.480  20.118  0.00  0.00    +0.000 C 
ATOM     18  O   UNL     1       0.527  14.291  20.671  0.00  0.00    +0.000 OA
ATOM     19  N   UNL     1       1.993  13.796  18.972  0.00  0.00    +0.000 N 
ATOM     20  C   UNL     1       2.928  12.930  18.273  0.00  0.00    +0.000 C 
ATOM     21  C   UNL     1       1.844  15.131  18.409  0.00  0.00    +0.000 C 
ENDBRANCH  16  17
ENDBRANCH  11  14
ENDBRANCH   4   8
BRANCH   5  22
ATOM     22  S   UNL     1       5.259   5.656  19.336  0.00  0.00    +0.000 S 
BRANCH  22  23
ATOM     23  C   UNL     1       5.769   5.464  17.641  0.00  0.00    +0.000 A 
ATOM     24  C   UNL     1       4.990   5.997  16.615  0.00  0.00    +0.000 A 
ATOM     25  C   UNL     1       5.300   5.677  15.291  0.00  0.00    +0.000 A 
ATOM     26  C   UNL     1       6.379   4.841  15.033  0.00  0.00    +0.000 A 
ATOM     27 CL   UNL     1       6.764   4.374  13.428  0.00  0.00    +0.000 Cl
ATOM     28  C   UNL     1       7.116   4.374  16.109  0.00  0.00    +0.000 A 
ATOM     29  N   UNL     1       6.834   4.661  17.406  0.00  0.00    +0.000 NA
ENDBRANCH  22  23
ENDBRANCH   5  22
TORSDOF 5
ENDMDL
MODEL 4
REMARK VINA RESULT:      -7.7      1.843      2.313
REMARK  Name = 
REMARK  9 active torsions:
REMARK  status: ('A' for Active; 'I' for Inactive)
REMARK    1  A    between atoms: C_1  and  C_2
REMARK    2  A    between atoms: C_4  and  C_5
REMARK    3  A    between atoms: C_8  and  C_9
REMARK    4  A    between atoms: C_11  and  C_12
REMARK    5  A    between atoms: N_14  and  C_15
REMARK    6  A    between atoms: N_14  and  C_16
REMARK    7  A    between atoms: C_19  and  S_20
REMARK    8  A    between atoms: S_20  and  C_21
REMARK    9  A    between atoms: N_28  and  C_29
REMARK                            x       y       z     vdW  Elec       q    Type
REMARK                         _______ _______ _______ _____ _____    ______ ____
ROOT
ATOM      1  C   UNL     1       1.588   2.101  19.626  0.00  0.00    +0.000 C 
ATOM      2  C   UNL     1       2.228   3.443  19.604  0.00  0.00    +0.000 A 
ATOM      3  N   UNL     1       1.587   4.591  19.587  0.00  0.00    +0.000 NA
ATOM      4  C   UNL     1       2.549   5.574  19.469  0.00  0.00    +0.000 A 
ATOM      5  C   UNL     1       3.811   5.004  19.461  0.00  0.00    +0.000 A 
ATOM      6  N   UNL     1       3.593   3.648  19.571  0.00  0.00    +0.000 N 
ATOM      7  C   UNL     1       4.569   2.583  19.607  0.00  0.00    +0.000 C 
ENDROOT
BRANCH   4   8
ATOM      8  C   UNL     1       2.173   6.976  19.361  0.00  0.00    +0.000 A 
ATOM      9  C   UNL     1       1.584   7.602  20.465  0.00  0.00    +0.000 A 
ATOM     10  C   UNL     1       1.158   8.933  20.393  0.00  0.00    +0.000 A 
ATOM     11  C   UNL     1       1.302   9.688  19.218  0.00  0.00    +0.000 A 
ATOM     12  C   UNL     1       1.888   9.050  18.116  0.00  0.00    +0.000 A 
ATOM     13  C   UNL     1       2.308   7.714  18.180  0.00  0.00    +0.000 A 
BRANCH  11  14
ATOM     14  C   UNL     1       0.744  11.085  19.125  0.00  0.00    +0.000 C 
ATOM     15  C   UNL     1       0.019  11.689  20.299  0.00  0.00    +0.000 C 
ATOM     16  C   UNL     1       1.363  12.244  19.888  0.00  0.00    +0.000 C 
BRANCH  16  17
ATOM     17  C   UNL     1       1.448  13.567  19.189  0.00  0.00    +0.000 C 
ATOM     18  O   UNL     1       0.601  13.830  18.338  0.00  0.00    +0.000 OA
ATOM     19  N   UNL     1       2.495  14.434  19.489  0.00  0.00    +0.000 N 
ATOM     20  C   UNL     1       3.516  14.240  20.507  0.00  0.00    +0.000 C 
ATOM     21  C   UNL     1       2.589  15.684  18.747  0.00  0.00    +0.000 C 
ENDBRANCH  16  17
ENDBRANCH  11  14
ENDBRANCH   4   8
BRANCH   5  22
ATOM     22  S   UNL     1       5.405   5.670  19.253  0.00  0.00    +0.000 S 
BRANCH  22  23
ATOM     23  C   UNL     1       5.761   5.143  17.590  0.00  0.00    +0.000 A 
ATOM     24  C   UNL     1       7.004   4.592  17.286  0.00  0.00    +0.000 A 
ATOM     25  C   UNL     1       7.335   4.360  15.948  0.00  0.00    +0.000 A 
ATOM     26  C   UNL     1       6.414   4.682  14.959  0.00  0.00    +0.000 A 
ATOM     27 CL   UNL     1       6.797   4.469  13.300  0.00  0.00    +0.000 Cl
ATOM     28  C   UNL     1       5.192   5.205  15.349  0.00  0.00    +0.000 A 
ATOM     29  N   UNL     1       4.845   5.448  16.639  0.00  0.00    +0.000 NA
ENDBRANCH  22  23
ENDBRANCH   5  22
TORSDOF 5
ENDMDL
MODEL 5
REMARK VINA RESULT:      -7.5      1.402      1.672
REMARK  Name = 
REMARK  9 active torsions:
REMARK  status: ('A' for Active; 'I' for Inactive)
REMARK    1  A    between atoms: C_1  and  C_2
REMARK    2  A    between atoms: C_4  and  C_5
REMARK    3  A    between atoms: C_8  and  C_9
REMARK    4  A    between atoms: C_11  and  C_12
REMARK    5  A    between atoms: N_14  and  C_15
REMARK    6  A    between atoms: N_14  and  C_16
REMARK    7  A    between atoms: C_19  and  S_20
REMARK    8  A    between atoms: S_20  and  C_21
REMARK    9  A    between atoms: N_28  and  C_29
REMARK                            x       y       z     vdW  Elec       q    Type
REMARK                         _______ _______ _______ _____ _____    ______ ____
ROOT
ATOM      1  C   UNL     1       1.467   2.126  20.023  0.00  0.00    +0.000 C 
ATOM      2  C   UNL     1       2.171   3.426  19.860  0.00  0.00    +0.000 A 
ATOM      3  N   UNL     1       1.587   4.597  19.731  0.00  0.00    +0.000 NA
ATOM      4  C   UNL     1       2.594   5.513  19.506  0.00  0.00    +0.000 A 
ATOM      5  C   UNL     1       3.827   4.884  19.545  0.00  0.00    +0.000 A 
ATOM      6  N   UNL     1       3.544   3.559  19.795  0.00  0.00    +0.000 N 
ATOM      7  C   UNL     1       4.467   2.455  19.931  0.00  0.00    +0.000 C 
ENDROOT
BRANCH   4   8
ATOM      8  C   UNL     1       2.285   6.914  19.259  0.00  0.00    +0.000 A 
ATOM      9  C   UNL     1       1.710   7.669  20.287  0.00  0.00    +0.000 A 
ATOM     10  C   UNL     1       1.348   9.005  20.082  0.00  0.00    +0.000 A 
ATOM     11  C   UNL     1       1.543   9.637  18.844  0.00  0.00    +0.000 A 
ATOM     12  C   UNL     1       2.115   8.871  17.818  0.00  0.00    +0.000 A 
ATOM     13  C   UNL     1       2.471   7.530  18.016  0.00  0.00    +0.000 A 
BRANCH  11  14
ATOM     14  C   UNL     1       1.053  11.042  18.609  0.00  0.00    +0.000 C 
ATOM     15  C   UNL     1      -0.420  11.353  18.689  0.00  0.00    +0.000 C 
ATOM     16  C   UNL     1       0.515  11.901  19.742  0.00  0.00    +0.000 C 
BRANCH  16  17
ATOM     17  C   UNL     1       0.878  13.355  19.741  0.00  0.00    +0.000 C 
ATOM     18  O   UNL     1       1.449  13.811  18.753  0.00  0.00    +0.000 OA
ATOM     19  N   UNL     1       0.599  14.130  20.864  0.00  0.00    +0.000 N 
ATOM     20  C   UNL     1      -0.112  13.702  22.058  0.00  0.00    +0.000 C 
ATOM     21  C   UNL     1       1.022  15.524  20.860  0.00  0.00    +0.000 C 
ENDBRANCH  16  17
ENDBRANCH  11  14
ENDBRANCH   4   8
BRANCH   5  22
ATOM     22  S   UNL     1       5.448   5.445  19.258  0.00  0.00    +0.000 S 
BRANCH  22  23
ATOM     23  C   UNL     1       5.722   4.813  17.616  0.00  0.00    +0.000 A 
ATOM     24  C   UNL     1       7.021   4.677  17.131  0.00  0.00    +0.000 A 
ATOM     25  C   UNL     1       7.214   4.362  15.784  0.00  0.00    +0.000 A 
ATOM     26  C   UNL     1       6.104   4.190  14.965  0.00  0.00    +0.000 A 
ATOM     27 CL   UNL     1       6.290   3.859  13.292  0.00  0.00    +0.000 Cl
ATOM     28  C   UNL     1       4.847   4.320  15.533  0.00  0.00    +0.000 A 
ATOM     29  N   UNL     1       4.629   4.633  16.836  0.00  0.00    +0.000 NA
ENDBRANCH  22  23
ENDBRANCH   5  22
TORSDOF 5
ENDMDL
MODEL 6
REMARK VINA RESULT:      -7.5      1.884      2.312
REMARK  Name = 
REMARK  9 active torsions:
REMARK  status: ('A' for Active; 'I' for Inactive)
REMARK    1  A    between atoms: C_1  and  C_2
REMARK    2  A    between atoms: C_4  and  C_5
REMARK    3  A    between atoms: C_8  and  C_9
REMARK    4  A    between atoms: C_11  and  C_12
REMARK    5  A    between atoms: N_14  and  C_15
REMARK    6  A    between atoms: N_14  and  C_16
REMARK    7  A    between atoms: C_19  and  S_20
REMARK    8  A    between atoms: S_20  and  C_21
REMARK    9  A    between atoms: N_28  and  C_29
REMARK                            x       y       z     vdW  Elec       q    Type
REMARK                         _______ _______ _______ _____ _____    ______ ____
ROOT
ATOM      1  C   UNL     1       1.618   2.043  19.571  0.00  0.00    +0.000 C 
ATOM      2  C   UNL     1       2.241   3.393  19.544  0.00  0.00    +0.000 A 
ATOM      3  N   UNL     1       1.586   4.532  19.495  0.00  0.00    +0.000 NA
ATOM      4  C   UNL     1       2.537   5.525  19.385  0.00  0.00    +0.000 A 
ATOM      5  C   UNL     1       3.807   4.973  19.413  0.00  0.00    +0.000 A 
ATOM      6  N   UNL     1       3.604   3.616  19.539  0.00  0.00    +0.000 N 
ATOM      7  C   UNL     1       4.592   2.564  19.613  0.00  0.00    +0.000 C 
ENDROOT
BRANCH   4   8
ATOM      8  C   UNL     1       2.145   6.921  19.248  0.00  0.00    +0.000 A 
ATOM      9  C   UNL     1       2.443   7.590  18.055  0.00  0.00    +0.000 A 
ATOM     10  C   UNL     1       2.133   8.945  17.896  0.00  0.00    +0.000 A 
ATOM     11  C   UNL     1       1.517   9.683  18.919  0.00  0.00    +0.000 A 
ATOM     12  C   UNL     1       1.228   9.005  20.111  0.00  0.00    +0.000 A 
ATOM     13  C   UNL     1       1.545   7.650  20.279  0.00  0.00    +0.000 A 
BRANCH  11  14
ATOM     14  C   UNL     1       1.284  11.164  18.769  0.00  0.00    +0.000 C 
ATOM     15  C   UNL     1       0.320  11.875  19.684  0.00  0.00    +0.000 C 
ATOM     16  C   UNL     1       1.800  12.162  19.794  0.00  0.00    +0.000 C 
BRANCH  16  17
ATOM     17  C   UNL     1       2.355  13.456  19.282  0.00  0.00    +0.000 C 
ATOM     18  O   UNL     1       2.809  13.483  18.140  0.00  0.00    +0.000 OA
ATOM     19  N   UNL     1       2.377  14.570  20.118  0.00  0.00    +0.000 N 
ATOM     20  C   UNL     1       1.824  14.657  21.460  0.00  0.00    +0.000 C 
ATOM     21  C   UNL     1       2.981  15.796  19.615  0.00  0.00    +0.000 C 
ENDBRANCH  16  17
ENDBRANCH  11  14
ENDBRANCH   4   8
BRANCH   5  22
ATOM     22  S   UNL     1       5.396   5.657  19.232  0.00  0.00    +0.000 S 
BRANCH  22  23
ATOM     23  C   UNL     1       5.710   5.293  17.518  0.00  0.00    +0.000 A 
ATOM     24  C   UNL     1       4.657   5.277  16.606  0.00  0.00    +0.000 A 
ATOM     25  C   UNL     1       4.887   4.807  15.311  0.00  0.00    +0.000 A 
ATOM     26  C   UNL     1       6.161   4.371  14.967  0.00  0.00    +0.000 A 
ATOM     27 CL   UNL     1       6.479   3.732  13.407  0.00  0.00    +0.000 Cl
ATOM     28  C   UNL     1       7.157   4.443  15.927  0.00  0.00    +0.000 A 
ATOM     29  N   UNL     1       6.962   4.887  17.195  0.00  0.00    +0.000 NA
ENDBRANCH  22  23
ENDBRANCH   5  22
TORSDOF 5
ENDMDL
MODEL 7
REMARK VINA RESULT:      -7.4      2.525      2.982
REMARK  Name = 
REMARK  9 active torsions:
REMARK  status: ('A' for Active; 'I' for Inactive)
REMARK    1  A    between atoms: C_1  and  C_2
REMARK    2  A    between atoms: C_4  and  C_5
REMARK    3  A    between atoms: C_8  and  C_9
REMARK    4  A    between atoms: C_11  and  C_12
REMARK    5  A    between atoms: N_14  and  C_15
REMARK    6  A    between atoms: N_14  and  C_16
REMARK    7  A    between atoms: C_19  and  S_20
REMARK    8  A    between atoms: S_20  and  C_21
REMARK    9  A    between atoms: N_28  and  C_29
REMARK                            x       y       z     vdW  Elec       q    Type
REMARK                         _______ _______ _______ _____ _____    ______ ____
ROOT
ATOM      1  C   UNL     1       2.136   2.482  21.910  0.00  0.00    +0.000 C 
ATOM      2  C   UNL     1       2.423   3.528  20.893  0.00  0.00    +0.000 A 
ATOM      3  N   UNL     1       2.086   4.795  20.989  0.00  0.00    +0.000 NA
ATOM      4  C   UNL     1       2.450   5.388  19.797  0.00  0.00    +0.000 A 
ATOM      5  C   UNL     1       3.067   4.460  18.974  0.00  0.00    +0.000 A 
ATOM      6  N   UNL     1       3.064   3.285  19.694  0.00  0.00    +0.000 N 
ATOM      7  C   UNL     1       3.582   1.994  19.305  0.00  0.00    +0.000 C 
ENDROOT
BRANCH   4   8
ATOM      8  C   UNL     1       2.162   6.792  19.544  0.00  0.00    +0.000 A 
ATOM      9  C   UNL     1       1.539   7.544  20.546  0.00  0.00    +0.000 A 
ATOM     10  C   UNL     1       1.195   8.883  20.332  0.00  0.00    +0.000 A 
ATOM     11  C   UNL     1       1.458   9.522  19.110  0.00  0.00    +0.000 A 
ATOM     12  C   UNL     1       2.078   8.760  18.110  0.00  0.00    +0.000 A 
ATOM     13  C   UNL     1       2.415   7.415  18.317  0.00  0.00    +0.000 A 
BRANCH  11  14
ATOM     14  C   UNL     1       0.989  10.932  18.860  0.00  0.00    +0.000 C 
ATOM     15  C   UNL     1      -0.043  11.557  19.764  0.00  0.00    +0.000 C 
ATOM     16  C   UNL     1       1.375  12.078  19.781  0.00  0.00    +0.000 C 
BRANCH  16  17
ATOM     17  C   UNL     1       1.699  13.397  19.147  0.00  0.00    +0.000 C 
ATOM     18  O   UNL     1       1.138  13.688  18.093  0.00  0.00    +0.000 OA
ATOM     19  N   UNL     1       2.646  14.227  19.741  0.00  0.00    +0.000 N 
ATOM     20  C   UNL     1       3.327  13.999  21.005  0.00  0.00    +0.000 C 
ATOM     21  C   UNL     1       2.988  15.473  19.068  0.00  0.00    +0.000 C 
ENDBRANCH  16  17
ENDBRANCH  11  14
ENDBRANCH   4   8
BRANCH   5  22
ATOM     22  S   UNL     1       3.665   4.543  17.343  0.00  0.00    +0.000 S 
BRANCH  22  23
ATOM     23  C   UNL     1       5.204   5.400  17.607  0.00  0.00    +0.000 A 
ATOM     24  C   UNL     1       6.031   5.033  18.666  0.00  0.00    +0.000 A 
ATOM     25  C   UNL     1       7.135   5.832  18.974  0.00  0.00    +0.000 A 
ATOM     26  C   UNL     1       7.380   6.968  18.213  0.00  0.00    +0.000 A 
ATOM     27 CL   UNL     1       8.689   8.011  18.588  0.00  0.00    +0.000 Cl
ATOM     28  C   UNL     1       6.521   7.248  17.162  0.00  0.00    +0.000 A 
ATOM     29  N   UNL     1       5.437   6.495  16.845  0.00  0.00    +0.000 NA
ENDBRANCH  22  23
ENDBRANCH   5  22
TORSDOF 5
ENDMDL
MODEL 8
REMARK VINA RESULT:      -7.4      0.940      1.324
REMARK  Name = 
REMARK  9 active torsions:
REMARK  status: ('A' for Active; 'I' for Inactive)
REMARK    1  A    between atoms: C_1  and  C_2
REMARK    2  A    between atoms: C_4  and  C_5
REMARK    3  A    between atoms: C_8  and  C_9
REMARK    4  A    between atoms: C_11  and  C_12
REMARK    5  A    between atoms: N_14  and  C_15
REMARK    6  A    between atoms: N_14  and  C_16
REMARK    7  A    between atoms: C_19  and  S_20
REMARK    8  A    between atoms: S_20  and  C_21
REMARK    9  A    between atoms: N_28  and  C_29
REMARK                            x       y       z     vdW  Elec       q    Type
REMARK                         _______ _______ _______ _____ _____    ______ ____
ROOT
ATOM      1  C   UNL     1       1.123   1.815  18.797  0.00  0.00    +0.000 C 
ATOM      2  C   UNL     1       1.850   3.086  19.060  0.00  0.00    +0.000 A 
ATOM      3  N   UNL     1       1.291   4.269  19.191  0.00  0.00    +0.000 NA
ATOM      4  C   UNL     1       2.323   5.176  19.322  0.00  0.00    +0.000 A 
ATOM      5  C   UNL     1       3.540   4.516  19.315  0.00  0.00    +0.000 A 
ATOM      6  N   UNL     1       3.223   3.182  19.170  0.00  0.00    +0.000 N 
ATOM      7  C   UNL     1       4.118   2.050  19.098  0.00  0.00    +0.000 C 
ENDROOT
BRANCH   4   8
ATOM      8  C   UNL     1       2.052   6.602  19.429  0.00  0.00    +0.000 A 
ATOM      9  C   UNL     1       1.622   7.116  20.658  0.00  0.00    +0.000 A 
ATOM     10  C   UNL     1       1.300   8.470  20.797  0.00  0.00    +0.000 A 
ATOM     11  C   UNL     1       1.393   9.362  19.717  0.00  0.00    +0.000 A 
ATOM     12  C   UNL     1       1.819   8.837  18.489  0.00  0.00    +0.000 A 
ATOM     13  C   UNL     1       2.134   7.479  18.342  0.00  0.00    +0.000 A 
BRANCH  11  14
ATOM     14  C   UNL     1       0.943  10.794  19.857  0.00  0.00    +0.000 C 
ATOM     15  C   UNL     1       0.065  11.417  18.803  0.00  0.00    +0.000 C 
ATOM     16  C   UNL     1      -0.499  11.150  20.179  0.00  0.00    +0.000 C 
BRANCH  16  17
ATOM     17  C   UNL     1      -0.735  12.286  21.128  0.00  0.00    +0.000 C 
ATOM     18  O   UNL     1       0.149  12.563  21.936  0.00  0.00    +0.000 OA
ATOM     19  N   UNL     1      -1.952  12.963  21.096  0.00  0.00    +0.000 N 
ATOM     20  C   UNL     1      -3.039  12.747  20.154  0.00  0.00    +0.000 C 
ATOM     21  C   UNL     1      -2.179  14.019  22.072  0.00  0.00    +0.000 C 
ENDBRANCH  16  17
ENDBRANCH  11  14
ENDBRANCH   4   8
BRANCH   5  22
ATOM     22  S   UNL     1       5.187   5.075  19.352  0.00  0.00    +0.000 S 
BRANCH  22  23
ATOM     23  C   UNL     1       5.683   4.731  17.677  0.00  0.00    +0.000 A 
ATOM     24  C   UNL     1       7.036   4.637  17.358  0.00  0.00    +0.000 A 
ATOM     25  C   UNL     1       7.413   4.556  16.015  0.00  0.00    +0.000 A 
ATOM     26  C   UNL     1       6.428   4.568  15.036  0.00  0.00    +0.000 A 
ATOM     27 CL   UNL     1       6.844   4.529  13.372  0.00  0.00    +0.000 Cl
ATOM     28  C   UNL     1       5.105   4.641  15.440  0.00  0.00    +0.000 A 
ATOM     29  N   UNL     1       4.709   4.728  16.736  0.00  0.00    +0.000 NA
ENDBRANCH  22  23
ENDBRANCH   5  22
TORSDOF 5
ENDMDL
MODEL 9
REMARK VINA RESULT:      -7.3      4.277      9.060
REMARK  Name = 
REMARK  9 active torsions:
REMARK  status: ('A' for Active; 'I' for Inactive)
REMARK    1  A    between atoms: C_1  and  C_2
REMARK    2  A    between atoms: C_4  and  C_5
REMARK    3  A    between atoms: C_8  and  C_9
REMARK    4  A    between atoms: C_11  and  C_12
REMARK    5  A    between atoms: N_14  and  C_15
REMARK    6  A    between atoms: N_14  and  C_16
REMARK    7  A    between atoms: C_19  and  S_20
REMARK    8  A    between atoms: S_20  and  C_21
REMARK    9  A    between atoms: N_28  and  C_29
REMARK                            x       y       z     vdW  Elec       q    Type
REMARK                         _______ _______ _______ _____ _____    ______ ____
ROOT
ATOM      1  C   UNL     1       1.183  15.190  19.756  0.00  0.00    +0.000 C 
ATOM      2  C   UNL     1       0.765  13.763  19.784  0.00  0.00    +0.000 A 
ATOM      3  N   UNL     1       1.550  12.736  19.542  0.00  0.00    +0.000 NA
ATOM      4  C   UNL     1       0.747  11.614  19.574  0.00  0.00    +0.000 A 
ATOM      5  C   UNL     1      -0.554  11.969  19.889  0.00  0.00    +0.000 A 
ATOM      6  N   UNL     1      -0.523  13.338  20.042  0.00  0.00    +0.000 N 
ATOM      7  C   UNL     1      -1.613  14.229  20.371  0.00  0.00    +0.000 C 
ENDROOT
BRANCH   4   8
ATOM      8  C   UNL     1       1.295  10.296  19.286  0.00  0.00    +0.000 A 
ATOM      9  C   UNL     1       1.836  10.054  18.019  0.00  0.00    +0.000 A 
ATOM     10  C   UNL     1       2.328   8.789  17.677  0.00  0.00    +0.000 A 
ATOM     11  C   UNL     1       2.297   7.719  18.586  0.00  0.00    +0.000 A 
ATOM     12  C   UNL     1       1.747   7.970  19.851  0.00  0.00    +0.000 A 
ATOM     13  C   UNL     1       1.245   9.233  20.194  0.00  0.00    +0.000 A 
BRANCH  11  14
ATOM     14  C   UNL     1       2.734   6.339  18.168  0.00  0.00    +0.000 C 
ATOM     15  C   UNL     1       4.112   6.123  17.596  0.00  0.00    +0.000 C 
ATOM     16  C   UNL     1       3.774   5.558  18.955  0.00  0.00    +0.000 C 
BRANCH  16  17
ATOM     17  C   UNL     1       3.552   4.085  19.122  0.00  0.00    +0.000 C 
ATOM     18  O   UNL     1       4.126   3.319  18.351  0.00  0.00    +0.000 OA
ATOM     19  N   UNL     1       2.680   3.632  20.109  0.00  0.00    +0.000 N 
ATOM     20  C   UNL     1       1.992   4.447  21.098  0.00  0.00    +0.000 C 
ATOM     21  C   UNL     1       2.434   2.200  20.206  0.00  0.00    +0.000 C 
ENDBRANCH  16  17
ENDBRANCH  11  14
ENDBRANCH   4   8
BRANCH   5  22
ATOM     22  S   UNL     1      -2.033  11.060  19.997  0.00  0.00    +0.000 S 
BRANCH  22  23
ATOM     23  C   UNL     1      -2.469  10.948  18.274  0.00  0.00    +0.000 A 
ATOM     24  C   UNL     1      -3.588  11.627  17.795  0.00  0.00    +0.000 A 
ATOM     25  C   UNL     1      -4.025  11.379  16.491  0.00  0.00    +0.000 A 
ATOM     26  C   UNL     1      -3.331  10.466  15.708  0.00  0.00    +0.000 A 
ATOM     27 CL   UNL     1      -3.862  10.086  14.122  0.00  0.00    +0.000 Cl
ATOM     28  C   UNL     1      -2.215   9.852  16.254  0.00  0.00    +0.000 A 
ATOM     29  N   UNL     1      -1.771  10.067  17.519  0.00  0.00    +0.000 NA
ENDBRANCH  22  23
ENDBRANCH   5  22
TORSDOF 5
ENDMDL
