MODEL 1
REMARK VINA RESULT:      -7.6      0.000      0.000
REMARK  Name = 
REMARK  9 active torsions:
REMARK  status: ('A' for Active; 'I' for Inactive)
REMARK    1  A    between atoms: C_2  and  C_21
REMARK    2  A    between atoms: N_3  and  C_4
REMARK    3  A    between atoms: N_13  and  C_14
REMARK    4  A    between atoms: C_14  and  C_15
REMARK    5  A    between atoms: C_15  and  C_16
REMARK    6  A    between atoms: C_16  and  N_17
REMARK    7  A    between atoms: N_17  and  C_18
REMARK    8  A    between atoms: C_18  and  C_19
REMARK    9  A    between atoms: C_19  and  O_20
REMARK                            x       y       z     vdW  Elec       q    Type
REMARK                         _______ _______ _______ _____ _____    ______ ____
ROOT
ATOM      1  C   UNL     1       1.841   7.295  20.386  0.00  0.00    +0.000 A 
ATOM      2  C   UNL     1       2.301   7.404  19.072  0.00  0.00    +0.000 A 
ATOM      3  C   UNL     1       2.472   6.265  18.275  0.00  0.00    +0.000 A 
ATOM      4  C   UNL     1       2.180   4.975  18.745  0.00  0.00    +0.000 A 
ATOM      5  C   UNL     1       1.746   4.869  20.080  0.00  0.00    +0.000 A 
ATOM      6  C   UNL     1       1.581   6.021  20.879  0.00  0.00    +0.000 A 
ATOM      7  C   UNL     1       1.396   3.533  20.690  0.00  0.00    +0.000 C 
ATOM      8  C   UNL     1       1.938   2.379  19.869  0.00  0.00    +0.000 C 
ATOM      9  C   UNL     1       1.631   2.623  18.402  0.00  0.00    +0.000 C 
ATOM     10  N   UNL     1       2.270   3.850  17.910  0.00  0.00    +0.000 N 
ENDROOT
BRANCH   1  13
ATOM     11  N   UNL     1      -0.720   8.068  21.738  0.00  0.00    +0.000 NA
ATOM     12  C   UNL     1       0.279   8.883  21.528  0.00  0.00    +0.000 C 
ATOM     13  N   UNL     1       1.522   8.411  21.179  0.00  0.00    +0.000 N 
ATOM     14  H   UNL     1      -0.370   7.113  21.628  0.00  0.00    +0.000 HD
ATOM     15  H   UNL     1       2.309   9.004  21.413  0.00  0.00    +0.000 HD
BRANCH  12  16
ATOM     16  C   UNL     1      -0.009  10.295  21.763  0.00  0.00    +0.000 A 
ATOM     17  C   UNL     1      -0.834  10.841  22.733  0.00  0.00    +0.000 A 
ATOM     18  C   UNL     1      -0.879  12.260  22.679  0.00  0.00    +0.000 A 
ATOM     19  C   UNL     1      -0.105  12.758  21.654  0.00  0.00    +0.000 A 
ATOM     20  S   UNL     1       0.689  11.516  20.784  0.00  0.00    +0.000 S 
ENDBRANCH  12  16
ENDBRANCH   1  13
BRANCH  10  21
ATOM     21  C   UNL     1       3.360   3.803  16.920  0.00  0.00    +0.000 C 
BRANCH  21  22
ATOM     22  C   UNL     1       4.645   4.498  17.366  0.00  0.00    +0.000 C 
BRANCH  22  23
ATOM     23  C   UNL     1       5.865   3.909  16.657  0.00  0.00    +0.000 C 
BRANCH  23  24
ATOM     24  N   UNL     1       7.065   4.375  17.353  0.00  0.00    +0.000 NA
ATOM     25  H   UNL     1       7.545   5.032  16.738  0.00  0.00    +0.000 HD
BRANCH  24  26
ATOM     26  C   UNL     1       6.724   5.055  18.610  0.00  0.00    +0.000 C 
BRANCH  26  27
ATOM     27  C   UNL     1       7.960   5.754  19.190  0.00  0.00    +0.000 C 
BRANCH  27  28
ATOM     28  O   UNL     1       8.085   5.473  20.583  0.00  0.00    +0.000 OA
ATOM     29  H   UNL     1       7.755   4.566  20.703  0.00  0.00    +0.000 HD
ENDBRANCH  27  28
ENDBRANCH  26  27
ENDBRANCH  24  26
ENDBRANCH  23  24
ENDBRANCH  22  23
ENDBRANCH  21  22
ENDBRANCH  10  21
TORSDOF 9
ENDMDL
MODEL 2
REMARK VINA RESULT:      -7.5      2.353      4.069
REMARK  Name = 
REMARK  9 active torsions:
REMARK  status: ('A' for Active; 'I' for Inactive)
REMARK    1  A    between atoms: C_2  and  C_21
REMARK    2  A    between atoms: N_3  and  C_4
REMARK    3  A    between atoms: N_13  and  C_14
REMARK    4  A    between atoms: C_14  and  C_15
REMARK    5  A    between atoms: C_15  and  C_16
REMARK    6  A    between atoms: C_16  and  N_17
REMARK    7  A    between atoms: N_17  and  C_18
REMARK    8  A    between atoms: C_18  and  C_19
REMARK    9  A    between atoms: C_19  and  O_20
REMARK                            x       y       z     vdW  Elec       q    Type
REMARK                         _______ _______ _______ _____ _____    ______ ____
ROOT
ATOM      1  C   UNL     1       2.295   7.950  18.673  0.00  0.00    +0.000 A 
ATOM      2  C   UNL     1       2.243   6.963  19.659  0.00  0.00    +0.000 A 
ATOM      3  C   UNL     1       3.067   5.832  19.585  0.00  0.00    +0.000 A 
ATOM      4  C   UNL     1       3.984   5.643  18.539  0.00  0.00    +0.000 A 
ATOM      5  C   UNL     1       4.009   6.627  17.532  0.00  0.00    +0.000 A 
ATOM      6  C   UNL     1       3.172   7.760  17.610  0.00  0.00    +0.000 A 
ATOM      7  C   UNL     1       4.959   6.532  16.363  0.00  0.00    +0.000 C 
ATOM      8  C   UNL     1       5.533   5.136  16.214  0.00  0.00    +0.000 C 
ATOM      9  C   UNL     1       5.985   4.635  17.574  0.00  0.00    +0.000 C 
ATOM     10  N   UNL     1       4.866   4.552  18.522  0.00  0.00    +0.000 N 
ENDROOT
BRANCH   1  13
ATOM     11  N   UNL     1       0.985   9.273  21.022  0.00  0.00    +0.000 NA
ATOM     12  C   UNL     1       0.759   9.590  19.776  0.00  0.00    +0.000 C 
ATOM     13  N   UNL     1       1.593   9.165  18.770  0.00  0.00    +0.000 N 
ATOM     14  H   UNL     1       1.852   8.729  21.052  0.00  0.00    +0.000 HD
ATOM     15  H   UNL     1       1.615   9.734  17.933  0.00  0.00    +0.000 HD
BRANCH  12  16
ATOM     16  C   UNL     1      -0.380  10.477  19.555  0.00  0.00    +0.000 A 
ATOM     17  C   UNL     1      -0.877  11.446  20.411  0.00  0.00    +0.000 A 
ATOM     18  C   UNL     1      -1.999  12.131  19.872  0.00  0.00    +0.000 A 
ATOM     19  C   UNL     1      -2.341  11.651  18.627  0.00  0.00    +0.000 A 
ATOM     20  S   UNL     1      -1.295  10.400  18.109  0.00  0.00    +0.000 S 
ENDBRANCH  12  16
ENDBRANCH   1  13
BRANCH  10  21
ATOM     21  C   UNL     1       4.378   3.254  19.020  0.00  0.00    +0.000 C 
BRANCH  21  22
ATOM     22  C   UNL     1       3.709   2.385  17.957  0.00  0.00    +0.000 C 
BRANCH  22  23
ATOM     23  C   UNL     1       2.190   2.566  17.974  0.00  0.00    +0.000 C 
BRANCH  23  24
ATOM     24  N   UNL     1       1.661   1.872  19.149  0.00  0.00    +0.000 NA
ATOM     25  H   UNL     1       2.439   1.392  19.602  0.00  0.00    +0.000 HD
BRANCH  24  26
ATOM     26  C   UNL     1       1.061   2.816  20.102  0.00  0.00    +0.000 C 
BRANCH  26  27
ATOM     27  C   UNL     1       1.490   2.472  21.534  0.00  0.00    +0.000 C 
BRANCH  27  28
ATOM     28  O   UNL     1       2.261   3.534  22.092  0.00  0.00    +0.000 OA
ATOM     29  H   UNL     1       2.747   3.931  21.349  0.00  0.00    +0.000 HD
ENDBRANCH  27  28
ENDBRANCH  26  27
ENDBRANCH  24  26
ENDBRANCH  23  24
ENDBRANCH  22  23
ENDBRANCH  21  22
ENDBRANCH  10  21
TORSDOF 9
ENDMDL
MODEL 3
REMARK VINA RESULT:      -7.5      1.135      1.140
REMARK  Name = 
REMARK  9 active torsions:
REMARK  status: ('A' for Active; 'I' for Inactive)
REMARK    1  A    between atoms: C_2  and  C_21
REMARK    2  A    between atoms: N_3  and  C_4
REMARK    3  A    between atoms: N_13  and  C_14
REMARK    4  A    between atoms: C_14  and  C_15
REMARK    5  A    between atoms: C_15  and  C_16
REMARK    6  A    between atoms: C_16  and  N_17
REMARK    7  A    between atoms: N_17  and  C_18
REMARK    8  A    between atoms: C_18  and  C_19
REMARK    9  A    between atoms: C_19  and  O_20
REMARK                            x       y       z     vdW  Elec       q    Type
REMARK                         _______ _______ _______ _____ _____    ______ ____
ROOT
ATOM      1  C   UNL     1       1.812   7.261  20.369  0.00  0.00    +0.000 A 
ATOM      2  C   UNL     1       2.221   7.312  19.036  0.00  0.00    +0.000 A 
ATOM      3  C   UNL     1       2.337   6.141  18.275  0.00  0.00    +0.000 A 
ATOM      4  C   UNL     1       2.039   4.875  18.803  0.00  0.00    +0.000 A 
ATOM      5  C   UNL     1       1.657   4.827  20.158  0.00  0.00    +0.000 A 
ATOM      6  C   UNL     1       1.547   6.010  20.919  0.00  0.00    +0.000 A 
ATOM      7  C   UNL     1       1.305   3.522  20.831  0.00  0.00    +0.000 C 
ATOM      8  C   UNL     1       1.791   2.328  20.032  0.00  0.00    +0.000 C 
ATOM      9  C   UNL     1       1.430   2.524  18.570  0.00  0.00    +0.000 C 
ATOM     10  N   UNL     1       2.073   3.719  18.009  0.00  0.00    +0.000 N 
ENDROOT
BRANCH   1  13
ATOM     11  N   UNL     1      -0.669   8.125  21.812  0.00  0.00    +0.000 NA
ATOM     12  C   UNL     1       0.329   8.915  21.522  0.00  0.00    +0.000 C 
ATOM     13  N   UNL     1       1.547   8.411  21.133  0.00  0.00    +0.000 N 
ATOM     14  H   UNL     1      -0.338   7.161  21.723  0.00  0.00    +0.000 HD
ATOM     15  H   UNL     1       2.353   9.000  21.305  0.00  0.00    +0.000 HD
BRANCH  12  16
ATOM     16  C   UNL     1       0.073  10.340  21.714  0.00  0.00    +0.000 A 
ATOM     17  C   UNL     1      -0.767  10.931  22.645  0.00  0.00    +0.000 A 
ATOM     18  C   UNL     1      -0.772  12.349  22.556  0.00  0.00    +0.000 A 
ATOM     19  C   UNL     1       0.047  12.801  21.545  0.00  0.00    +0.000 A 
ATOM     20  S   UNL     1       0.833  11.518  20.731  0.00  0.00    +0.000 S 
ENDBRANCH  12  16
ENDBRANCH   1  13
BRANCH  10  21
ATOM     21  C   UNL     1       3.121   3.613  16.978  0.00  0.00    +0.000 C 
BRANCH  21  22
ATOM     22  C   UNL     1       4.546   3.636  17.527  0.00  0.00    +0.000 C 
BRANCH  22  23
ATOM     23  C   UNL     1       5.540   4.099  16.461  0.00  0.00    +0.000 C 
BRANCH  23  24
ATOM     24  N   UNL     1       5.384   5.544  16.290  0.00  0.00    +0.000 NA
ATOM     25  H   UNL     1       4.399   5.730  16.103  0.00  0.00    +0.000 HD
BRANCH  24  26
ATOM     26  C   UNL     1       5.787   6.272  17.502  0.00  0.00    +0.000 C 
BRANCH  26  27
ATOM     27  C   UNL     1       7.316   6.343  17.597  0.00  0.00    +0.000 C 
BRANCH  27  28
ATOM     28  O   UNL     1       7.831   7.287  16.659  0.00  0.00    +0.000 OA
ATOM     29  H   UNL     1       8.564   7.740  17.111  0.00  0.00    +0.000 HD
ENDBRANCH  27  28
ENDBRANCH  26  27
ENDBRANCH  24  26
ENDBRANCH  23  24
ENDBRANCH  22  23
ENDBRANCH  21  22
ENDBRANCH  10  21
TORSDOF 9
ENDMDL
MODEL 4
REMARK VINA RESULT:      -7.5      2.945      4.676
REMARK  Name = 
REMARK  9 active torsions:
REMARK  status: ('A' for Active; 'I' for Inactive)
REMARK    1  A    between atoms: C_2  and  C_21
REMARK    2  A    between atoms: N_3  and  C_4
REMARK    3  A    between atoms: N_13  and  C_14
REMARK    4  A    between atoms: C_14  and  C_15
REMARK    5  A    between atoms: C_15  and  C_16
REMARK    6  A    between atoms: C_16  and  N_17
REMARK    7  A    between atoms: N_17  and  C_18
REMARK    8  A    between atoms: C_18  and  C_19
REMARK    9  A    between atoms: C_19  and  O_20
REMARK                            x       y       z     vdW  Elec       q    Type
REMARK                         _______ _______ _______ _____ _____    ______ ____
ROOT
ATOM      1  C   UNL     1       1.225   9.826  18.858  0.00  0.00    +0.000 A 
ATOM      2  C   UNL     1       0.961   9.267  20.110  0.00  0.00    +0.000 A 
ATOM      3  C   UNL     1       1.480   8.013  20.459  0.00  0.00    +0.000 A 
ATOM      4  C   UNL     1       2.291   7.271  19.586  0.00  0.00    +0.000 A 
ATOM      5  C   UNL     1       2.528   7.826  18.314  0.00  0.00    +0.000 A 
ATOM      6  C   UNL     1       1.997   9.087  17.967  0.00  0.00    +0.000 A 
ATOM      7  C   UNL     1       3.391   7.121  17.296  0.00  0.00    +0.000 C 
ATOM      8  C   UNL     1       3.599   5.660  17.649  0.00  0.00    +0.000 C 
ATOM      9  C   UNL     1       3.954   5.548  19.120  0.00  0.00    +0.000 C 
ATOM     10  N   UNL     1       2.877   6.058  19.979  0.00  0.00    +0.000 N 
ENDROOT
BRANCH   1  13
ATOM     11  N   UNL     1       2.833  12.099  17.748  0.00  0.00    +0.000 NA
ATOM     12  C   UNL     1       1.653  12.226  18.292  0.00  0.00    +0.000 C 
ATOM     13  N   UNL     1       0.847  11.134  18.509  0.00  0.00    +0.000 N 
ATOM     14  H   UNL     1       2.965  11.110  17.521  0.00  0.00    +0.000 HD
ATOM     15  H   UNL     1      -0.149  11.312  18.548  0.00  0.00    +0.000 HD
BRANCH  12  16
ATOM     16  C   UNL     1       1.240  13.599  18.573  0.00  0.00    +0.000 A 
ATOM     17  C   UNL     1       2.034  14.734  18.594  0.00  0.00    +0.000 A 
ATOM     18  C   UNL     1       1.300  15.911  18.899  0.00  0.00    +0.000 A 
ATOM     19  C   UNL     1      -0.032  15.639  19.125  0.00  0.00    +0.000 A 
ATOM     20  S   UNL     1      -0.389  13.976  18.942  0.00  0.00    +0.000 S 
ENDBRANCH  12  16
ENDBRANCH   1  13
BRANCH  10  21
ATOM     21  C   UNL     1       2.100   5.159  20.850  0.00  0.00    +0.000 C 
BRANCH  21  22
ATOM     22  C   UNL     1       1.079   4.296  20.111  0.00  0.00    +0.000 C 
BRANCH  22  23
ATOM     23  C   UNL     1       1.577   2.858  19.962  0.00  0.00    +0.000 C 
BRANCH  23  24
ATOM     24  N   UNL     1       1.248   2.399  18.612  0.00  0.00    +0.000 NA
ATOM     25  H   UNL     1       0.696   3.128  18.162  0.00  0.00    +0.000 HD
BRANCH  24  26
ATOM     26  C   UNL     1       2.462   2.158  17.819  0.00  0.00    +0.000 C 
BRANCH  26  27
ATOM     27  C   UNL     1       3.671   1.961  18.743  0.00  0.00    +0.000 C 
BRANCH  27  28
ATOM     28  O   UNL     1       4.264   0.682  18.521  0.00  0.00    +0.000 OA
ATOM     29  H   UNL     1       4.741   0.752  17.677  0.00  0.00    +0.000 HD
ENDBRANCH  27  28
ENDBRANCH  26  27
ENDBRANCH  24  26
ENDBRANCH  23  24
ENDBRANCH  22  23
ENDBRANCH  21  22
ENDBRANCH  10  21
TORSDOF 9
ENDMDL
MODEL 5
REMARK VINA RESULT:      -7.4      1.444      1.586
REMARK  Name = 
REMARK  9 active torsions:
REMARK  status: ('A' for Active; 'I' for Inactive)
REMARK    1  A    between atoms: C_2  and  C_21
REMARK    2  A    between atoms: N_3  and  C_4
REMARK    3  A    between atoms: N_13  and  C_14
REMARK    4  A    between atoms: C_14  and  C_15
REMARK    5  A    between atoms: C_15  and  C_16
REMARK    6  A    between atoms: C_16  and  N_17
REMARK    7  A    between atoms: N_17  and  C_18
REMARK    8  A    between atoms: C_18  and  C_19
REMARK    9  A    between atoms: C_19  and  O_20
REMARK                            x       y       z     vdW  Elec       q    Type
REMARK                         _______ _______ _______ _____ _____    ______ ____
ROOT
ATOM      1  C   UNL     1       1.724   7.757  19.911  0.00  0.00    +0.000 A 
ATOM      2  C   UNL     1       2.421   7.598  18.712  0.00  0.00    +0.000 A 
ATOM      3  C   UNL     1       2.824   6.328  18.279  0.00  0.00    +0.000 A 
ATOM      4  C   UNL     1       2.540   5.165  19.013  0.00  0.00    +0.000 A 
ATOM      5  C   UNL     1       1.865   5.335  20.236  0.00  0.00    +0.000 A 
ATOM      6  C   UNL     1       1.466   6.619  20.668  0.00  0.00    +0.000 A 
ATOM      7  C   UNL     1       1.500   4.156  21.105  0.00  0.00    +0.000 C 
ATOM      8  C   UNL     1       2.272   2.910  20.717  0.00  0.00    +0.000 C 
ATOM      9  C   UNL     1       2.238   2.752  19.207  0.00  0.00    +0.000 C 
ATOM     10  N   UNL     1       2.870   3.890  18.528  0.00  0.00    +0.000 N 
ENDROOT
BRANCH   1  13
ATOM     11  N   UNL     1       1.887   9.195  22.535  0.00  0.00    +0.000 NA
ATOM     12  C   UNL     1       1.019   9.466  21.598  0.00  0.00    +0.000 C 
ATOM     13  N   UNL     1       1.178   8.986  20.320  0.00  0.00    +0.000 N 
ATOM     14  H   UNL     1       2.636   8.639  22.114  0.00  0.00    +0.000 HD
ATOM     15  H   UNL     1       0.737   9.521  19.582  0.00  0.00    +0.000 HD
BRANCH  12  16
ATOM     16  C   UNL     1      -0.065  10.362  21.992  0.00  0.00    +0.000 A 
ATOM     17  C   UNL     1      -0.820  10.318  23.154  0.00  0.00    +0.000 A 
ATOM     18  C   UNL     1      -1.792  11.352  23.214  0.00  0.00    +0.000 A 
ATOM     19  C   UNL     1      -1.768  12.144  22.087  0.00  0.00    +0.000 A 
ATOM     20  S   UNL     1      -0.560  11.652  20.980  0.00  0.00    +0.000 S 
ENDBRANCH  12  16
ENDBRANCH   1  13
BRANCH  10  21
ATOM     21  C   UNL     1       4.132   3.734  17.782  0.00  0.00    +0.000 C 
BRANCH  21  22
ATOM     22  C   UNL     1       5.388   3.982  18.615  0.00  0.00    +0.000 C 
BRANCH  22  23
ATOM     23  C   UNL     1       6.488   4.632  17.773  0.00  0.00    +0.000 C 
BRANCH  23  24
ATOM     24  N   UNL     1       5.856   5.291  16.630  0.00  0.00    +0.000 NA
ATOM     25  H   UNL     1       4.849   5.162  16.714  0.00  0.00    +0.000 HD
BRANCH  24  26
ATOM     26  C   UNL     1       6.155   6.731  16.611  0.00  0.00    +0.000 C 
BRANCH  26  27
ATOM     27  C   UNL     1       7.302   7.049  17.579  0.00  0.00    +0.000 C 
BRANCH  27  28
ATOM     28  O   UNL     1       7.848   8.337  17.300  0.00  0.00    +0.000 OA
ATOM     29  H   UNL     1       7.515   8.925  17.999  0.00  0.00    +0.000 HD
ENDBRANCH  27  28
ENDBRANCH  26  27
ENDBRANCH  24  26
ENDBRANCH  23  24
ENDBRANCH  22  23
ENDBRANCH  21  22
ENDBRANCH  10  21
TORSDOF 9
ENDMDL
MODEL 6
REMARK VINA RESULT:      -7.3      1.638      1.896
REMARK  Name = 
REMARK  9 active torsions:
REMARK  status: ('A' for Active; 'I' for Inactive)
REMARK    1  A    between atoms: C_2  and  C_21
REMARK    2  A    between atoms: N_3  and  C_4
REMARK    3  A    between atoms: N_13  and  C_14
REMARK    4  A    between atoms: C_14  and  C_15
REMARK    5  A    between atoms: C_15  and  C_16
REMARK    6  A    between atoms: C_16  and  N_17
REMARK    7  A    between atoms: N_17  and  C_18
REMARK    8  A    between atoms: C_18  and  C_19
REMARK    9  A    between atoms: C_19  and  O_20
REMARK                            x       y       z     vdW  Elec       q    Type
REMARK                         _______ _______ _______ _____ _____    ______ ____
ROOT
ATOM      1  C   UNL     1       1.449   8.990  19.704  0.00  0.00    +0.000 A 
ATOM      2  C   UNL     1       1.960   8.969  18.404  0.00  0.00    +0.000 A 
ATOM      3  C   UNL     1       2.492   7.793  17.862  0.00  0.00    +0.000 A 
ATOM      4  C   UNL     1       2.528   6.588  18.581  0.00  0.00    +0.000 A 
ATOM      5  C   UNL     1       2.040   6.623  19.902  0.00  0.00    +0.000 A 
ATOM      6  C   UNL     1       1.509   7.814  20.443  0.00  0.00    +0.000 A 
ATOM      7  C   UNL     1       2.021   5.386  20.768  0.00  0.00    +0.000 C 
ATOM      8  C   UNL     1       2.916   4.295  20.211  0.00  0.00    +0.000 C 
ATOM      9  C   UNL     1       2.665   4.156  18.720  0.00  0.00    +0.000 C 
ATOM     10  N   UNL     1       2.981   5.395  17.998  0.00  0.00    +0.000 N 
ENDROOT
BRANCH   1  13
ATOM     11  N   UNL     1       1.169   9.918  22.540  0.00  0.00    +0.000 NA
ATOM     12  C   UNL     1       0.421  10.330  21.552  0.00  0.00    +0.000 C 
ATOM     13  N   UNL     1       0.780  10.102  20.244  0.00  0.00    +0.000 N 
ATOM     14  H   UNL     1       1.999   9.475  22.138  0.00  0.00    +0.000 HD
ATOM     15  H   UNL     1       0.413  10.751  19.559  0.00  0.00    +0.000 HD
BRANCH  12  16
ATOM     16  C   UNL     1      -0.757  11.099  21.940  0.00  0.00    +0.000 A 
ATOM     17  C   UNL     1      -1.402  11.100  23.167  0.00  0.00    +0.000 A 
ATOM     18  C   UNL     1      -2.519  11.977  23.198  0.00  0.00    +0.000 A 
ATOM     19  C   UNL     1      -2.711  12.605  21.987  0.00  0.00    +0.000 A 
ATOM     20  S   UNL     1      -1.530  12.154  20.834  0.00  0.00    +0.000 S 
ENDBRANCH  12  16
ENDBRANCH   1  13
BRANCH  10  21
ATOM     21  C   UNL     1       4.115   5.467  17.058  0.00  0.00    +0.000 C 
BRANCH  21  22
ATOM     22  C   UNL     1       4.580   4.111  16.532  0.00  0.00    +0.000 C 
BRANCH  22  23
ATOM     23  C   UNL     1       6.105   4.000  16.569  0.00  0.00    +0.000 C 
BRANCH  23  24
ATOM     24  N   UNL     1       6.538   4.124  17.962  0.00  0.00    +0.000 NA
ATOM     25  H   UNL     1       6.718   3.184  18.315  0.00  0.00    +0.000 HD
BRANCH  24  26
ATOM     26  C   UNL     1       7.768   4.921  18.070  0.00  0.00    +0.000 C 
BRANCH  26  27
ATOM     27  C   UNL     1       7.435   6.419  18.044  0.00  0.00    +0.000 C 
BRANCH  27  28
ATOM     28  O   UNL     1       7.736   6.975  16.766  0.00  0.00    +0.000 OA
ATOM     29  H   UNL     1       6.908   7.375  16.447  0.00  0.00    +0.000 HD
ENDBRANCH  27  28
ENDBRANCH  26  27
ENDBRANCH  24  26
ENDBRANCH  23  24
ENDBRANCH  22  23
ENDBRANCH  21  22
ENDBRANCH  10  21
TORSDOF 9
ENDMDL
MODEL 7
REMARK VINA RESULT:      -7.3      2.548      4.237
REMARK  Name = 
REMARK  9 active torsions:
REMARK  status: ('A' for Active; 'I' for Inactive)
REMARK    1  A    between atoms: C_2  and  C_21
REMARK    2  A    between atoms: N_3  and  C_4
REMARK    3  A    between atoms: N_13  and  C_14
REMARK    4  A    between atoms: C_14  and  C_15
REMARK    5  A    between atoms: C_15  and  C_16
REMARK    6  A    between atoms: C_16  and  N_17
REMARK    7  A    between atoms: N_17  and  C_18
REMARK    8  A    between atoms: C_18  and  C_19
REMARK    9  A    between atoms: C_19  and  O_20
REMARK                            x       y       z     vdW  Elec       q    Type
REMARK                         _______ _______ _______ _____ _____    ______ ____
ROOT
ATOM      1  C   UNL     1       2.154   8.012  19.101  0.00  0.00    +0.000 A 
ATOM      2  C   UNL     1       2.207   6.932  19.983  0.00  0.00    +0.000 A 
ATOM      3  C   UNL     1       3.039   5.835  19.724  0.00  0.00    +0.000 A 
ATOM      4  C   UNL     1       3.860   5.772  18.588  0.00  0.00    +0.000 A 
ATOM      5  C   UNL     1       3.779   6.851  17.686  0.00  0.00    +0.000 A 
ATOM      6  C   UNL     1       2.935   7.950  17.951  0.00  0.00    +0.000 A 
ATOM      7  C   UNL     1       4.621   6.896  16.434  0.00  0.00    +0.000 C 
ATOM      8  C   UNL     1       5.201   5.536  16.097  0.00  0.00    +0.000 C 
ATOM      9  C   UNL     1       5.782   4.914  17.354  0.00  0.00    +0.000 C 
ATOM     10  N   UNL     1       4.754   4.711  18.383  0.00  0.00    +0.000 N 
ENDROOT
BRANCH   1  13
ATOM     11  N   UNL     1       0.151   9.529  17.466  0.00  0.00    +0.000 NA
ATOM     12  C   UNL     1       0.774  10.014  18.506  0.00  0.00    +0.000 C 
ATOM     13  N   UNL     1       1.445   9.194  19.381  0.00  0.00    +0.000 N 
ATOM     14  H   UNL     1       0.249   8.510  17.492  0.00  0.00    +0.000 HD
ATOM     15  H   UNL     1       1.554   9.539  20.327  0.00  0.00    +0.000 HD
BRANCH  12  16
ATOM     16  C   UNL     1       0.636  11.455  18.699  0.00  0.00    +0.000 A 
ATOM     17  C   UNL     1      -0.523  12.166  18.969  0.00  0.00    +0.000 A 
ATOM     18  C   UNL     1      -0.291  13.561  19.104  0.00  0.00    +0.000 A 
ATOM     19  C   UNL     1       1.035  13.880  18.911  0.00  0.00    +0.000 A 
ATOM     20  S   UNL     1       1.991  12.496  18.596  0.00  0.00    +0.000 S 
ENDBRANCH  12  16
ENDBRANCH   1  13
BRANCH  10  21
ATOM     21  C   UNL     1       4.334   3.358  18.789  0.00  0.00    +0.000 C 
BRANCH  21  22
ATOM     22  C   UNL     1       3.234   2.754  17.919  0.00  0.00    +0.000 C 
BRANCH  22  23
ATOM     23  C   UNL     1       2.219   1.985  18.767  0.00  0.00    +0.000 C 
BRANCH  23  24
ATOM     24  N   UNL     1       0.991   2.777  18.838  0.00  0.00    +0.000 NA
ATOM     25  H   UNL     1       0.214   2.168  18.585  0.00  0.00    +0.000 HD
BRANCH  24  26
ATOM     26  C   UNL     1       0.769   3.298  20.195  0.00  0.00    +0.000 C 
BRANCH  26  27
ATOM     27  C   UNL     1       1.591   2.497  21.213  0.00  0.00    +0.000 C 
BRANCH  27  28
ATOM     28  O   UNL     1       2.205   3.372  22.158  0.00  0.00    +0.000 OA
ATOM     29  H   UNL     1       2.039   2.980  23.032  0.00  0.00    +0.000 HD
ENDBRANCH  27  28
ENDBRANCH  26  27
ENDBRANCH  24  26
ENDBRANCH  23  24
ENDBRANCH  22  23
ENDBRANCH  21  22
ENDBRANCH  10  21
TORSDOF 9
ENDMDL
MODEL 8
REMARK VINA RESULT:      -7.3      1.912      2.274
REMARK  Name = 
REMARK  9 active torsions:
REMARK  status: ('A' for Active; 'I' for Inactive)
REMARK    1  A    between atoms: C_2  and  C_21
REMARK    2  A    between atoms: N_3  and  C_4
REMARK    3  A    between atoms: N_13  and  C_14
REMARK    4  A    between atoms: C_14  and  C_15
REMARK    5  A    between atoms: C_15  and  C_16
REMARK    6  A    between atoms: C_16  and  N_17
REMARK    7  A    between atoms: N_17  and  C_18
REMARK    8  A    between atoms: C_18  and  C_19
REMARK    9  A    between atoms: C_19  and  O_20
REMARK                            x       y       z     vdW  Elec       q    Type
REMARK                         _______ _______ _______ _____ _____    ______ ____
ROOT
ATOM      1  C   UNL     1       1.817   7.311  20.413  0.00  0.00    +0.000 A 
ATOM      2  C   UNL     1       2.281   7.366  19.097  0.00  0.00    +0.000 A 
ATOM      3  C   UNL     1       2.415   6.198  18.336  0.00  0.00    +0.000 A 
ATOM      4  C   UNL     1       2.083   4.932  18.844  0.00  0.00    +0.000 A 
ATOM      5  C   UNL     1       1.645   4.881  20.182  0.00  0.00    +0.000 A 
ATOM      6  C   UNL     1       1.517   6.061  20.945  0.00  0.00    +0.000 A 
ATOM      7  C   UNL     1       1.253   3.576  20.832  0.00  0.00    +0.000 C 
ATOM      8  C   UNL     1       1.759   2.381  20.047  0.00  0.00    +0.000 C 
ATOM      9  C   UNL     1       1.461   2.589  18.573  0.00  0.00    +0.000 C 
ATOM     10  N   UNL     1       2.138   3.780  18.045  0.00  0.00    +0.000 N 
ENDROOT
BRANCH   1  13
ATOM     11  N   UNL     1      -0.711   8.191  21.763  0.00  0.00    +0.000 NA
ATOM     12  C   UNL     1       0.305   8.974  21.516  0.00  0.00    +0.000 C 
ATOM     13  N   UNL     1       1.532   8.461  21.172  0.00  0.00    +0.000 N 
ATOM     14  H   UNL     1      -0.385   7.224  21.682  0.00  0.00    +0.000 HD
ATOM     15  H   UNL     1       2.336   9.041  21.378  0.00  0.00    +0.000 HD
BRANCH  12  16
ATOM     16  C   UNL     1       0.053  10.400  21.706  0.00  0.00    +0.000 A 
ATOM     17  C   UNL     1       0.613  11.458  21.008  0.00  0.00    +0.000 A 
ATOM     18  C   UNL     1       0.137  12.720  21.454  0.00  0.00    +0.000 A 
ATOM     19  C   UNL     1      -0.757  12.592  22.494  0.00  0.00    +0.000 A 
ATOM     20  S   UNL     1      -1.033  10.955  22.908  0.00  0.00    +0.000 S 
ENDBRANCH  12  16
ENDBRANCH   1  13
BRANCH  10  21
ATOM     21  C   UNL     1       3.226   3.669  17.058  0.00  0.00    +0.000 C 
BRANCH  21  22
ATOM     22  C   UNL     1       4.596   3.373  17.664  0.00  0.00    +0.000 C 
BRANCH  22  23
ATOM     23  C   UNL     1       5.544   4.561  17.490  0.00  0.00    +0.000 C 
BRANCH  23  24
ATOM     24  N   UNL     1       6.608   4.164  16.568  0.00  0.00    +0.000 NA
ATOM     25  H   UNL     1       7.199   3.486  17.048  0.00  0.00    +0.000 HD
BRANCH  24  26
ATOM     26  C   UNL     1       6.059   3.545  15.353  0.00  0.00    +0.000 C 
BRANCH  26  27
ATOM     27  C   UNL     1       6.575   4.272  14.105  0.00  0.00    +0.000 C 
BRANCH  27  28
ATOM     28  O   UNL     1       6.452   3.437  12.954  0.00  0.00    +0.000 OA
ATOM     29  H   UNL     1       5.779   2.771  13.178  0.00  0.00    +0.000 HD
ENDBRANCH  27  28
ENDBRANCH  26  27
ENDBRANCH  24  26
ENDBRANCH  23  24
ENDBRANCH  22  23
ENDBRANCH  21  22
ENDBRANCH  10  21
TORSDOF 9
ENDMDL
MODEL 9
REMARK VINA RESULT:      -7.3      1.008      1.129
REMARK  Name = 
REMARK  9 active torsions:
REMARK  status: ('A' for Active; 'I' for Inactive)
REMARK    1  A    between atoms: C_2  and  C_21
REMARK    2  A    between atoms: N_3  and  C_4
REMARK    3  A    between atoms: N_13  and  C_14
REMARK    4  A    between atoms: C_14  and  C_15
REMARK    5  A    between atoms: C_15  and  C_16
REMARK    6  A    between atoms: C_16  and  N_17
REMARK    7  A    between atoms: N_17  and  C_18
REMARK    8  A    between atoms: C_18  and  C_19
REMARK    9  A    between atoms: C_19  and  O_20
REMARK                            x       y       z     vdW  Elec       q    Type
REMARK                         _______ _______ _______ _____ _____    ______ ____
ROOT
ATOM      1  C   UNL     1       1.731   7.664  19.730  0.00  0.00    +0.000 A 
ATOM      2  C   UNL     1       2.287   7.506  18.459  0.00  0.00    +0.000 A 
ATOM      3  C   UNL     1       2.501   6.230  17.923  0.00  0.00    +0.000 A 
ATOM      4  C   UNL     1       2.162   5.060  18.621  0.00  0.00    +0.000 A 
ATOM      5  C   UNL     1       1.630   5.225  19.915  0.00  0.00    +0.000 A 
ATOM      6  C   UNL     1       1.422   6.515  20.450  0.00  0.00    +0.000 A 
ATOM      7  C   UNL     1       1.222   4.040  20.756  0.00  0.00    +0.000 C 
ATOM      8  C   UNL     1       1.808   2.745  20.226  0.00  0.00    +0.000 C 
ATOM      9  C   UNL     1       1.612   2.686  18.722  0.00  0.00    +0.000 C 
ATOM     10  N   UNL     1       2.298   3.791  18.041  0.00  0.00    +0.000 N 
ENDROOT
BRANCH   1  13
ATOM     11  N   UNL     1       1.900   8.739  22.523  0.00  0.00    +0.000 NA
ATOM     12  C   UNL     1       1.179   9.267  21.572  0.00  0.00    +0.000 C 
ATOM     13  N   UNL     1       1.368   8.916  20.256  0.00  0.00    +0.000 N 
ATOM     14  H   UNL     1       2.577   8.108  22.086  0.00  0.00    +0.000 HD
ATOM     15  H   UNL     1       1.094   9.603  19.564  0.00  0.00    +0.000 HD
BRANCH  12  16
ATOM     16  C   UNL     1       0.232  10.293  22.002  0.00  0.00    +0.000 A 
ATOM     17  C   UNL     1      -0.710  10.204  23.015  0.00  0.00    +0.000 A 
ATOM     18  C   UNL     1      -1.463  11.399  23.168  0.00  0.00    +0.000 A 
ATOM     19  C   UNL     1      -1.091  12.359  22.253  0.00  0.00    +0.000 A 
ATOM     20  S   UNL     1       0.178  11.824  21.237  0.00  0.00    +0.000 S 
ENDBRANCH  12  16
ENDBRANCH   1  13
BRANCH  10  21
ATOM     21  C   UNL     1       3.457   3.548  17.163  0.00  0.00    +0.000 C 
BRANCH  21  22
ATOM     22  C   UNL     1       4.786   4.051  17.722  0.00  0.00    +0.000 C 
BRANCH  22  23
ATOM     23  C   UNL     1       5.016   3.536  19.143  0.00  0.00    +0.000 C 
BRANCH  23  24
ATOM     24  N   UNL     1       5.897   4.479  19.833  0.00  0.00    +0.000 NA
ATOM     25  H   UNL     1       6.667   3.946  20.238  0.00  0.00    +0.000 HD
BRANCH  24  26
ATOM     26  C   UNL     1       6.443   5.478  18.903  0.00  0.00    +0.000 C 
BRANCH  26  27
ATOM     27  C   UNL     1       7.893   5.815  19.276  0.00  0.00    +0.000 C 
BRANCH  27  28
ATOM     28  O   UNL     1       8.166   5.425  20.620  0.00  0.00    +0.000 OA
ATOM     29  H   UNL     1       8.635   6.175  21.026  0.00  0.00    +0.000 HD
ENDBRANCH  27  28
ENDBRANCH  26  27
ENDBRANCH  24  26
ENDBRANCH  23  24
ENDBRANCH  22  23
ENDBRANCH  21  22
ENDBRANCH  10  21
TORSDOF 9
ENDMDL
