MODEL 1
REMARK VINA RESULT:      -7.7      0.000      0.000
REMARK  Name = 
REMARK  9 active torsions:
REMARK  status: ('A' for Active; 'I' for Inactive)
REMARK    1  A    between atoms: C_1  and  C_2
REMARK    2  A    between atoms: C_2  and  N_3
REMARK    3  A    between atoms: N_3  and  C_4
REMARK    4  A    between atoms: C_4  and  C_5
REMARK    5  A    between atoms: C_11  and  N_12
REMARK    6  A    between atoms: C_14  and  C_15
REMARK    7  A    between atoms: C_15  and  C_16
REMARK    8  A    between atoms: C_16  and  O_18
REMARK    9  A    between atoms: C_25  and  C_27
REMARK                            x       y       z     vdW  Elec       q    Type
REMARK                         _______ _______ _______ _____ _____    ______ ____
ROOT
ATOM      1  C   UNL     1       2.879   4.861  20.155  0.00  0.00    +0.000 A 
ATOM      2  C   UNL     1       1.921   4.346  21.054  0.00  0.00    +0.000 A 
ATOM      3  C   UNL     1       1.441   3.049  20.916  0.00  0.00    +0.000 A 
ATOM      4  F   UNL     1       0.489   2.605  21.748  0.00  0.00    +0.000 F 
ATOM      5  C   UNL     1       1.904   2.224  19.906  0.00  0.00    +0.000 A 
ATOM      6  C   UNL     1       2.876   2.700  19.025  0.00  0.00    +0.000 A 
ATOM      7  C   UNL     1       3.379   4.012  19.137  0.00  0.00    +0.000 A 
ENDROOT
BRANCH   7   8
ATOM      8  N   UNL     1       4.389   4.418  18.200  0.00  0.00    +0.000 N 
ATOM      9  C   UNL     1       4.274   4.403  16.820  0.00  0.00    +0.000 A 
ATOM     10  C   UNL     1       5.340   5.070  16.245  0.00  0.00    +0.000 A 
ATOM     11  C   UNL     1       6.229   5.393  17.311  0.00  0.00    +0.000 A 
ATOM     12  C   UNL     1       7.489   6.007  17.398  0.00  0.00    +0.000 A 
ATOM     13  C   UNL     1       8.070   6.141  18.657  0.00  0.00    +0.000 A 
ATOM     14  C   UNL     1       7.379   5.673  19.766  0.00  0.00    +0.000 A 
ATOM     15  N   UNL     1       6.162   5.092  19.740  0.00  0.00    +0.000 NA
ATOM     16  C   UNL     1       5.624   4.984  18.501  0.00  0.00    +0.000 A 
BRANCH  10  17
ATOM     17  C   UNL     1       5.474   5.432  14.799  0.00  0.00    +0.000 C 
BRANCH  17  18
ATOM     18  C   UNL     1       6.609   4.727  14.095  0.00  0.00    +0.000 C 
ATOM     19  O   UNL     1       7.612   5.296  13.688  0.00  0.00    +0.000 OA
BRANCH  18  20
ATOM     20  O   UNL     1       6.407   3.400  13.914  0.00  0.00    +0.000 OA
ATOM     21  H   UNL     1       5.464   3.147  13.937  0.00  0.00    +0.000 HD
ENDBRANCH  18  20
ENDBRANCH  17  18
ENDBRANCH  10  17
ENDBRANCH   7   8
BRANCH   1  22
ATOM     22  C   UNL     1       3.123   6.349  20.207  0.00  0.00    +0.000 C 
BRANCH  22  23
ATOM     23  N   UNL     1       2.351   7.252  19.355  0.00  0.00    +0.000 N 
ATOM     24  C   UNL     1       1.432   8.148  19.922  0.00  0.00    +0.000 C 
ATOM     25  O   UNL     1       0.755   8.918  19.249  0.00  0.00    +0.000 OA
BRANCH  24  26
ATOM     26  C   UNL     1       1.277   8.148  21.417  0.00  0.00    +0.000 C 
ATOM     27  C   UNL     1       1.181   9.460  22.159  0.00  0.00    +0.000 C 
ATOM     28  C   UNL     1      -0.023   8.568  22.060  0.00  0.00    +0.000 C 
ENDBRANCH  24  26
BRANCH  23  30
ATOM     29  C   UNL     1       3.534   8.016  17.277  0.00  0.00    +0.000 C 
ATOM     30  C   UNL     1       2.419   7.186  17.888  0.00  0.00    +0.000 C 
ENDBRANCH  23  30
ENDBRANCH  22  23
ENDBRANCH   1  22
TORSDOF 8
ENDMDL
MODEL 2
REMARK VINA RESULT:      -7.4      1.807      2.885
REMARK  Name = 
REMARK  9 active torsions:
REMARK  status: ('A' for Active; 'I' for Inactive)
REMARK    1  A    between atoms: C_1  and  C_2
REMARK    2  A    between atoms: C_2  and  N_3
REMARK    3  A    between atoms: N_3  and  C_4
REMARK    4  A    between atoms: C_4  and  C_5
REMARK    5  A    between atoms: C_11  and  N_12
REMARK    6  A    between atoms: C_14  and  C_15
REMARK    7  A    between atoms: C_15  and  C_16
REMARK    8  A    between atoms: C_16  and  O_18
REMARK    9  A    between atoms: C_25  and  C_27
REMARK                            x       y       z     vdW  Elec       q    Type
REMARK                         _______ _______ _______ _____ _____    ______ ____
ROOT
ATOM      1  C   UNL     1       2.603   5.001  19.585  0.00  0.00    +0.000 A 
ATOM      2  C   UNL     1       1.426   4.348  20.009  0.00  0.00    +0.000 A 
ATOM      3  C   UNL     1       1.051   3.128  19.458  0.00  0.00    +0.000 A 
ATOM      4  F   UNL     1      -0.101   2.559  19.836  0.00  0.00    +0.000 F 
ATOM      5  C   UNL     1       1.832   2.514  18.495  0.00  0.00    +0.000 A 
ATOM      6  C   UNL     1       3.018   3.124  18.084  0.00  0.00    +0.000 A 
ATOM      7  C   UNL     1       3.423   4.363  18.621  0.00  0.00    +0.000 A 
ENDROOT
BRANCH   7   8
ATOM      8  N   UNL     1       4.664   4.915  18.155  0.00  0.00    +0.000 N 
ATOM      9  C   UNL     1       5.550   5.675  18.900  0.00  0.00    +0.000 A 
ATOM     10  C   UNL     1       6.735   5.841  18.208  0.00  0.00    +0.000 A 
ATOM     11  C   UNL     1       6.524   5.278  16.916  0.00  0.00    +0.000 A 
ATOM     12  C   UNL     1       7.293   5.169  15.745  0.00  0.00    +0.000 A 
ATOM     13  C   UNL     1       6.724   4.539  14.641  0.00  0.00    +0.000 A 
ATOM     14  C   UNL     1       5.433   4.039  14.747  0.00  0.00    +0.000 A 
ATOM     15  N   UNL     1       4.661   4.100  15.850  0.00  0.00    +0.000 NA
ATOM     16  C   UNL     1       5.247   4.714  16.906  0.00  0.00    +0.000 A 
BRANCH  10  17
ATOM     17  C   UNL     1       7.996   6.434  18.754  0.00  0.00    +0.000 C 
BRANCH  17  18
ATOM     18  C   UNL     1       8.232   7.865  18.332  0.00  0.00    +0.000 C 
ATOM     19  O   UNL     1       7.834   8.335  17.275  0.00  0.00    +0.000 OA
BRANCH  18  20
ATOM     20  O   UNL     1       8.962   8.588  19.213  0.00  0.00    +0.000 OA
ATOM     21  H   UNL     1       9.923   8.545  19.044  0.00  0.00    +0.000 HD
ENDBRANCH  18  20
ENDBRANCH  17  18
ENDBRANCH  10  17
ENDBRANCH   7   8
BRANCH   1  22
ATOM     22  C   UNL     1       2.775   6.434  20.022  0.00  0.00    +0.000 C 
BRANCH  22  23
ATOM     23  N   UNL     1       2.120   7.513  19.284  0.00  0.00    +0.000 N 
ATOM     24  C   UNL     1       1.262   8.404  19.945  0.00  0.00    +0.000 C 
ATOM     25  O   UNL     1       0.683   9.319  19.368  0.00  0.00    +0.000 OA
BRANCH  24  26
ATOM     26  C   UNL     1       1.048   8.215  21.420  0.00  0.00    +0.000 C 
ATOM     27  C   UNL     1       1.491   9.289  22.385  0.00  0.00    +0.000 C 
ATOM     28  C   UNL     1       0.026   9.039  22.166  0.00  0.00    +0.000 C 
ENDBRANCH  24  26
BRANCH  23  30
ATOM     29  C   UNL     1       3.607   8.108  17.350  0.00  0.00    +0.000 C 
ATOM     30  C   UNL     1       2.242   7.643  17.825  0.00  0.00    +0.000 C 
ENDBRANCH  23  30
ENDBRANCH  22  23
ENDBRANCH   1  22
TORSDOF 8
ENDMDL
MODEL 3
REMARK VINA RESULT:      -6.7      6.706      9.726
REMARK  Name = 
REMARK  9 active torsions:
REMARK  status: ('A' for Active; 'I' for Inactive)
REMARK    1  A    between atoms: C_1  and  C_2
REMARK    2  A    between atoms: C_2  and  N_3
REMARK    3  A    between atoms: N_3  and  C_4
REMARK    4  A    between atoms: C_4  and  C_5
REMARK    5  A    between atoms: C_11  and  N_12
REMARK    6  A    between atoms: C_14  and  C_15
REMARK    7  A    between atoms: C_15  and  C_16
REMARK    8  A    between atoms: C_16  and  O_18
REMARK    9  A    between atoms: C_25  and  C_27
REMARK                            x       y       z     vdW  Elec       q    Type
REMARK                         _______ _______ _______ _____ _____    ______ ____
ROOT
ATOM      1  C   UNL     1      -3.909  12.479  19.751  0.00  0.00    +0.000 A 
ATOM      2  C   UNL     1      -5.255  12.630  19.357  0.00  0.00    +0.000 A 
ATOM      3  C   UNL     1      -5.687  12.188  18.112  0.00  0.00    +0.000 A 
ATOM      4  F   UNL     1      -6.957  12.397  17.740  0.00  0.00    +0.000 F 
ATOM      5  C   UNL     1      -4.812  11.571  17.235  0.00  0.00    +0.000 A 
ATOM      6  C   UNL     1      -3.483  11.380  17.615  0.00  0.00    +0.000 A 
ATOM      7  C   UNL     1      -3.014  11.821  18.870  0.00  0.00    +0.000 A 
ENDROOT
BRANCH   7   8
ATOM      8  N   UNL     1      -1.636  11.572  19.189  0.00  0.00    +0.000 N 
ATOM      9  C   UNL     1      -1.095  10.359  19.580  0.00  0.00    +0.000 A 
ATOM     10  C   UNL     1       0.285  10.430  19.582  0.00  0.00    +0.000 A 
ATOM     11  C   UNL     1       0.614  11.791  19.317  0.00  0.00    +0.000 A 
ATOM     12  C   UNL     1       1.809  12.524  19.237  0.00  0.00    +0.000 A 
ATOM     13  C   UNL     1       1.729  13.886  18.959  0.00  0.00    +0.000 A 
ATOM     14  C   UNL     1       0.478  14.456  18.763  0.00  0.00    +0.000 A 
ATOM     15  N   UNL     1      -0.696  13.796  18.811  0.00  0.00    +0.000 NA
ATOM     16  C   UNL     1      -0.581  12.473  19.078  0.00  0.00    +0.000 A 
BRANCH  10  17
ATOM     17  C   UNL     1       1.224   9.279  19.760  0.00  0.00    +0.000 C 
BRANCH  17  18
ATOM     18  C   UNL     1       1.406   8.854  21.198  0.00  0.00    +0.000 C 
ATOM     19  O   UNL     1       1.358   9.627  22.145  0.00  0.00    +0.000 OA
BRANCH  18  20
ATOM     20  O   UNL     1       1.668   7.536  21.356  0.00  0.00    +0.000 OA
ATOM     21  H   UNL     1       1.786   7.275  22.290  0.00  0.00    +0.000 HD
ENDBRANCH  18  20
ENDBRANCH  17  18
ENDBRANCH  10  17
ENDBRANCH   7   8
BRANCH   1  22
ATOM     22  C   UNL     1      -3.476  13.235  20.981  0.00  0.00    +0.000 C 
BRANCH  22  23
ATOM     23  N   UNL     1      -3.333  12.541  22.261  0.00  0.00    +0.000 N 
ATOM     24  C   UNL     1      -4.354  12.609  23.220  0.00  0.00    +0.000 C 
ATOM     25  O   UNL     1      -4.277  12.053  24.311  0.00  0.00    +0.000 OA
BRANCH  24  26
ATOM     26  C   UNL     1      -5.584  13.405  22.887  0.00  0.00    +0.000 C 
ATOM     27  C   UNL     1      -6.883  12.691  22.599  0.00  0.00    +0.000 C 
ATOM     28  C   UNL     1      -6.736  13.493  23.860  0.00  0.00    +0.000 C 
ENDBRANCH  24  26
BRANCH  23  30
ATOM     29  C   UNL     1      -0.866  12.742  22.678  0.00  0.00    +0.000 C 
ATOM     30  C   UNL     1      -2.092  11.848  22.636  0.00  0.00    +0.000 C 
ENDBRANCH  23  30
ENDBRANCH  22  23
ENDBRANCH   1  22
TORSDOF 8
ENDMDL
MODEL 4
REMARK VINA RESULT:      -6.7      7.538     11.321
REMARK  Name = 
REMARK  9 active torsions:
REMARK  status: ('A' for Active; 'I' for Inactive)
REMARK    1  A    between atoms: C_1  and  C_2
REMARK    2  A    between atoms: C_2  and  N_3
REMARK    3  A    between atoms: N_3  and  C_4
REMARK    4  A    between atoms: C_4  and  C_5
REMARK    5  A    between atoms: C_11  and  N_12
REMARK    6  A    between atoms: C_14  and  C_15
REMARK    7  A    between atoms: C_15  and  C_16
REMARK    8  A    between atoms: C_16  and  O_18
REMARK    9  A    between atoms: C_25  and  C_27
REMARK                            x       y       z     vdW  Elec       q    Type
REMARK                         _______ _______ _______ _____ _____    ______ ____
ROOT
ATOM      1  C   UNL     1      -1.125  11.294  19.967  0.00  0.00    +0.000 A 
ATOM      2  C   UNL     1      -0.361  10.399  19.188  0.00  0.00    +0.000 A 
ATOM      3  C   UNL     1       0.645   9.633  19.764  0.00  0.00    +0.000 A 
ATOM      4  F   UNL     1       1.394   8.836  18.991  0.00  0.00    +0.000 F 
ATOM      5  C   UNL     1       0.911   9.715  21.120  0.00  0.00    +0.000 A 
ATOM      6  C   UNL     1       0.147  10.568  21.917  0.00  0.00    +0.000 A 
ATOM      7  C   UNL     1      -0.878  11.360  21.361  0.00  0.00    +0.000 A 
ENDROOT
BRANCH   7   8
ATOM      8  N   UNL     1      -1.626  12.200  22.254  0.00  0.00    +0.000 N 
ATOM      9  C   UNL     1      -2.804  11.861  22.898  0.00  0.00    +0.000 A 
ATOM     10  C   UNL     1      -3.121  12.814  23.847  0.00  0.00    +0.000 A 
ATOM     11  C   UNL     1      -2.171  13.864  23.689  0.00  0.00    +0.000 A 
ATOM     12  C   UNL     1      -1.971  15.118  24.290  0.00  0.00    +0.000 A 
ATOM     13  C   UNL     1      -0.905  15.897  23.848  0.00  0.00    +0.000 A 
ATOM     14  C   UNL     1      -0.083  15.400  22.846  0.00  0.00    +0.000 A 
ATOM     15  N   UNL     1      -0.220  14.199  22.249  0.00  0.00    +0.000 NA
ATOM     16  C   UNL     1      -1.263  13.465  22.707  0.00  0.00    +0.000 A 
BRANCH  10  17
ATOM     17  C   UNL     1      -4.206  12.707  24.872  0.00  0.00    +0.000 C 
BRANCH  17  18
ATOM     18  C   UNL     1      -5.596  12.895  24.313  0.00  0.00    +0.000 C 
ATOM     19  O   UNL     1      -6.347  11.970  24.036  0.00  0.00    +0.000 OA
BRANCH  18  20
ATOM     20  O   UNL     1      -5.937  14.189  24.103  0.00  0.00    +0.000 OA
ATOM     21  H   UNL     1      -6.712  14.473  24.625  0.00  0.00    +0.000 HD
ENDBRANCH  18  20
ENDBRANCH  17  18
ENDBRANCH  10  17
ENDBRANCH   7   8
BRANCH   1  22
ATOM     22  C   UNL     1      -1.986  12.278  19.217  0.00  0.00    +0.000 C 
BRANCH  22  23
ATOM     23  N   UNL     1      -3.399  11.987  18.975  0.00  0.00    +0.000 N 
ATOM     24  C   UNL     1      -3.815  11.474  17.738  0.00  0.00    +0.000 C 
ATOM     25  O   UNL     1      -4.988  11.223  17.485  0.00  0.00    +0.000 OA
BRANCH  24  26
ATOM     26  C   UNL     1      -2.769  11.233  16.686  0.00  0.00    +0.000 C 
ATOM     27  C   UNL     1      -2.447   9.821  16.260  0.00  0.00    +0.000 C 
ATOM     28  C   UNL     1      -3.154  10.744  15.311  0.00  0.00    +0.000 C 
ENDBRANCH  24  26
BRANCH  23  30
ATOM     29  C   UNL     1      -4.442  13.768  20.405  0.00  0.00    +0.000 C 
ATOM     30  C   UNL     1      -4.440  12.316  19.960  0.00  0.00    +0.000 C 
ENDBRANCH  23  30
ENDBRANCH  22  23
ENDBRANCH   1  22
TORSDOF 8
ENDMDL
MODEL 5
REMARK VINA RESULT:      -6.7      2.053      3.123
REMARK  Name = 
REMARK  9 active torsions:
REMARK  status: ('A' for Active; 'I' for Inactive)
REMARK    1  A    between atoms: C_1  and  C_2
REMARK    2  A    between atoms: C_2  and  N_3
REMARK    3  A    between atoms: N_3  and  C_4
REMARK    4  A    between atoms: C_4  and  C_5
REMARK    5  A    between atoms: C_11  and  N_12
REMARK    6  A    between atoms: C_14  and  C_15
REMARK    7  A    between atoms: C_15  and  C_16
REMARK    8  A    between atoms: C_16  and  O_18
REMARK    9  A    between atoms: C_25  and  C_27
REMARK                            x       y       z     vdW  Elec       q    Type
REMARK                         _______ _______ _______ _____ _____    ______ ____
ROOT
ATOM      1  C   UNL     1       2.594   4.560  19.339  0.00  0.00    +0.000 A 
ATOM      2  C   UNL     1       1.342   4.055  19.750  0.00  0.00    +0.000 A 
ATOM      3  C   UNL     1       0.821   2.895  19.186  0.00  0.00    +0.000 A 
ATOM      4  F   UNL     1      -0.395   2.471  19.553  0.00  0.00    +0.000 F 
ATOM      5  C   UNL     1       1.526   2.197  18.221  0.00  0.00    +0.000 A 
ATOM      6  C   UNL     1       2.781   2.659  17.822  0.00  0.00    +0.000 A 
ATOM      7  C   UNL     1       3.334   3.833  18.372  0.00  0.00    +0.000 A 
ENDROOT
BRANCH   7   8
ATOM      8  N   UNL     1       4.636   4.230  17.918  0.00  0.00    +0.000 N 
ATOM      9  C   UNL     1       5.715   4.561  18.720  0.00  0.00    +0.000 A 
ATOM     10  C   UNL     1       6.862   4.669  17.958  0.00  0.00    +0.000 A 
ATOM     11  C   UNL     1       6.452   4.537  16.600  0.00  0.00    +0.000 A 
ATOM     12  C   UNL     1       7.103   4.603  15.357  0.00  0.00    +0.000 A 
ATOM     13  C   UNL     1       6.340   4.429  14.204  0.00  0.00    +0.000 A 
ATOM     14  C   UNL     1       4.979   4.189  14.332  0.00  0.00    +0.000 A 
ATOM     15  N   UNL     1       4.309   4.099  15.499  0.00  0.00    +0.000 NA
ATOM     16  C   UNL     1       5.081   4.267  16.599  0.00  0.00    +0.000 A 
BRANCH  10  17
ATOM     17  C   UNL     1       8.255   4.823  18.482  0.00  0.00    +0.000 C 
BRANCH  17  18
ATOM     18  C   UNL     1       8.372   5.791  19.635  0.00  0.00    +0.000 C 
ATOM     19  O   UNL     1       8.288   5.460  20.810  0.00  0.00    +0.000 OA
BRANCH  18  20
ATOM     20  O   UNL     1       8.541   7.081  19.259  0.00  0.00    +0.000 OA
ATOM     21  H   UNL     1       9.450   7.280  18.963  0.00  0.00    +0.000 HD
ENDBRANCH  18  20
ENDBRANCH  17  18
ENDBRANCH  10  17
ENDBRANCH   7   8
BRANCH   1  22
ATOM     22  C   UNL     1       2.940   5.956  19.790  0.00  0.00    +0.000 C 
BRANCH  22  23
ATOM     23  N   UNL     1       2.481   7.113  19.023  0.00  0.00    +0.000 N 
ATOM     24  C   UNL     1       1.661   8.081  19.623  0.00  0.00    +0.000 C 
ATOM     25  O   UNL     1       1.243   9.063  19.020  0.00  0.00    +0.000 OA
BRANCH  24  26
ATOM     26  C   UNL     1       1.282   7.889  21.065  0.00  0.00    +0.000 C 
ATOM     27  C   UNL     1       1.372   9.052  22.024  0.00  0.00    +0.000 C 
ATOM     28  C   UNL     1       0.028   8.515  21.625  0.00  0.00    +0.000 C 
ENDBRANCH  24  26
BRANCH  23  30
ATOM     29  C   UNL     1       4.202   7.602  17.262  0.00  0.00    +0.000 C 
ATOM     30  C   UNL     1       2.760   7.255  17.587  0.00  0.00    +0.000 C 
ENDBRANCH  23  30
ENDBRANCH  22  23
ENDBRANCH   1  22
TORSDOF 8
ENDMDL
MODEL 6
REMARK VINA RESULT:      -6.7      2.171      3.588
REMARK  Name = 
REMARK  9 active torsions:
REMARK  status: ('A' for Active; 'I' for Inactive)
REMARK    1  A    between atoms: C_1  and  C_2
REMARK    2  A    between atoms: C_2  and  N_3
REMARK    3  A    between atoms: N_3  and  C_4
REMARK    4  A    between atoms: C_4  and  C_5
REMARK    5  A    between atoms: C_11  and  N_12
REMARK    6  A    between atoms: C_14  and  C_15
REMARK    7  A    between atoms: C_15  and  C_16
REMARK    8  A    between atoms: C_16  and  O_18
REMARK    9  A    between atoms: C_25  and  C_27
REMARK                            x       y       z     vdW  Elec       q    Type
REMARK                         _______ _______ _______ _____ _____    ______ ____
ROOT
ATOM      1  C   UNL     1       2.470   4.573  18.222  0.00  0.00    +0.000 A 
ATOM      2  C   UNL     1       1.347   3.775  18.527  0.00  0.00    +0.000 A 
ATOM      3  C   UNL     1       1.376   2.399  18.333  0.00  0.00    +0.000 A 
ATOM      4  F   UNL     1       0.277   1.673  18.576  0.00  0.00    +0.000 F 
ATOM      5  C   UNL     1       2.515   1.774  17.853  0.00  0.00    +0.000 A 
ATOM      6  C   UNL     1       3.649   2.538  17.575  0.00  0.00    +0.000 A 
ATOM      7  C   UNL     1       3.648   3.936  17.758  0.00  0.00    +0.000 A 
ENDROOT
BRANCH   7   8
ATOM      8  N   UNL     1       4.861   4.645  17.463  0.00  0.00    +0.000 N 
ATOM      9  C   UNL     1       5.594   5.413  18.352  0.00  0.00    +0.000 A 
ATOM     10  C   UNL     1       6.812   5.756  17.795  0.00  0.00    +0.000 A 
ATOM     11  C   UNL     1       6.776   5.298  16.446  0.00  0.00    +0.000 A 
ATOM     12  C   UNL     1       7.652   5.373  15.350  0.00  0.00    +0.000 A 
ATOM     13  C   UNL     1       7.251   4.798  14.147  0.00  0.00    +0.000 A 
ATOM     14  C   UNL     1       6.015   4.168  14.085  0.00  0.00    +0.000 A 
ATOM     15  N   UNL     1       5.146   4.052  15.109  0.00  0.00    +0.000 NA
ATOM     16  C   UNL     1       5.570   4.618  16.265  0.00  0.00    +0.000 A 
BRANCH  10  17
ATOM     17  C   UNL     1       7.951   6.413  18.509  0.00  0.00    +0.000 C 
BRANCH  17  18
ATOM     18  C   UNL     1       8.098   7.884  18.202  0.00  0.00    +0.000 C 
ATOM     19  O   UNL     1       7.592   8.428  17.230  0.00  0.00    +0.000 OA
BRANCH  18  20
ATOM     20  O   UNL     1       8.878   8.557  19.081  0.00  0.00    +0.000 OA
ATOM     21  H   UNL     1       9.335   9.323  18.683  0.00  0.00    +0.000 HD
ENDBRANCH  18  20
ENDBRANCH  17  18
ENDBRANCH  10  17
ENDBRANCH   7   8
BRANCH   1  22
ATOM     22  C   UNL     1       2.251   6.064  18.193  0.00  0.00    +0.000 C 
BRANCH  22  23
ATOM     23  N   UNL     1       2.163   6.821  19.442  0.00  0.00    +0.000 N 
ATOM     24  C   UNL     1       1.846   8.186  19.422  0.00  0.00    +0.000 C 
ATOM     25  O   UNL     1       1.770   8.865  20.440  0.00  0.00    +0.000 OA
BRANCH  24  26
ATOM     26  C   UNL     1       1.597   8.834  18.089  0.00  0.00    +0.000 C 
ATOM     27  C   UNL     1       0.407   9.746  17.909  0.00  0.00    +0.000 C 
ATOM     28  C   UNL     1       1.795  10.319  17.900  0.00  0.00    +0.000 C 
ENDBRANCH  24  26
BRANCH  23  30
ATOM     29  C   UNL     1       1.603   5.075  21.157  0.00  0.00    +0.000 C 
ATOM     30  C   UNL     1       2.506   6.221  20.740  0.00  0.00    +0.000 C 
ENDBRANCH  23  30
ENDBRANCH  22  23
ENDBRANCH   1  22
TORSDOF 8
ENDMDL
MODEL 7
REMARK VINA RESULT:      -6.6      6.032     11.654
REMARK  Name = 
REMARK  9 active torsions:
REMARK  status: ('A' for Active; 'I' for Inactive)
REMARK    1  A    between atoms: C_1  and  C_2
REMARK    2  A    between atoms: C_2  and  N_3
REMARK    3  A    between atoms: N_3  and  C_4
REMARK    4  A    between atoms: C_4  and  C_5
REMARK    5  A    between atoms: C_11  and  N_12
REMARK    6  A    between atoms: C_14  and  C_15
REMARK    7  A    between atoms: C_15  and  C_16
REMARK    8  A    between atoms: C_16  and  O_18
REMARK    9  A    between atoms: C_25  and  C_27
REMARK                            x       y       z     vdW  Elec       q    Type
REMARK                         _______ _______ _______ _____ _____    ______ ____
ROOT
ATOM      1  C   UNL     1      -0.395  12.327  20.126  0.00  0.00    +0.000 A 
ATOM      2  C   UNL     1       0.867  12.712  19.625  0.00  0.00    +0.000 A 
ATOM      3  C   UNL     1       1.122  14.034  19.278  0.00  0.00    +0.000 A 
ATOM      4  F   UNL     1       2.309  14.361  18.749  0.00  0.00    +0.000 F 
ATOM      5  C   UNL     1       0.152  15.009  19.434  0.00  0.00    +0.000 A 
ATOM      6  C   UNL     1      -1.093  14.658  19.958  0.00  0.00    +0.000 A 
ATOM      7  C   UNL     1      -1.383  13.326  20.316  0.00  0.00    +0.000 A 
ENDROOT
BRANCH   7   8
ATOM      8  N   UNL     1      -2.682  13.052  20.863  0.00  0.00    +0.000 N 
ATOM      9  C   UNL     1      -3.102  13.340  22.151  0.00  0.00    +0.000 A 
ATOM     10  C   UNL     1      -4.467  13.153  22.261  0.00  0.00    +0.000 A 
ATOM     11  C   UNL     1      -4.892  12.588  21.024  0.00  0.00    +0.000 A 
ATOM     12  C   UNL     1      -6.117  12.124  20.516  0.00  0.00    +0.000 A 
ATOM     13  C   UNL     1      -6.140  11.612  19.221  0.00  0.00    +0.000 A 
ATOM     14  C   UNL     1      -4.961  11.592  18.488  0.00  0.00    +0.000 A 
ATOM     15  N   UNL     1      -3.765  12.041  18.920  0.00  0.00    +0.000 NA
ATOM     16  C   UNL     1      -3.780  12.537  20.181  0.00  0.00    +0.000 A 
BRANCH  10  17
ATOM     17  C   UNL     1      -5.316  13.540  23.431  0.00  0.00    +0.000 C 
BRANCH  17  18
ATOM     18  C   UNL     1      -5.845  12.366  24.218  0.00  0.00    +0.000 C 
ATOM     19  O   UNL     1      -6.994  11.954  24.132  0.00  0.00    +0.000 OA
BRANCH  18  20
ATOM     20  O   UNL     1      -4.945  11.819  25.069  0.00  0.00    +0.000 OA
ATOM     21  H   UNL     1      -4.617  10.947  24.775  0.00  0.00    +0.000 HD
ENDBRANCH  18  20
ENDBRANCH  17  18
ENDBRANCH  10  17
ENDBRANCH   7   8
BRANCH   1  22
ATOM     22  C   UNL     1      -0.668  10.846  20.202  0.00  0.00    +0.000 C 
BRANCH  22  23
ATOM     23  N   UNL     1       0.250   9.963  20.921  0.00  0.00    +0.000 N 
ATOM     24  C   UNL     1       1.075   9.074  20.216  0.00  0.00    +0.000 C 
ATOM     25  O   UNL     1       1.854   8.308  20.773  0.00  0.00    +0.000 OA
BRANCH  24  26
ATOM     26  C   UNL     1       0.985   9.067  18.716  0.00  0.00    +0.000 C 
ATOM     27  C   UNL     1       2.013   9.815  17.900  0.00  0.00    +0.000 C 
ATOM     28  C   UNL     1       1.995   8.314  17.884  0.00  0.00    +0.000 C 
ENDBRANCH  24  26
BRANCH  23  30
ATOM     29  C   UNL     1      -1.008  10.367  23.056  0.00  0.00    +0.000 C 
ATOM     30  C   UNL     1       0.270   9.890  22.389  0.00  0.00    +0.000 C 
ENDBRANCH  23  30
ENDBRANCH  22  23
ENDBRANCH   1  22
TORSDOF 8
ENDMDL
MODEL 8
REMARK VINA RESULT:      -6.6      6.119      9.382
REMARK  Name = 
REMARK  9 active torsions:
REMARK  status: ('A' for Active; 'I' for Inactive)
REMARK    1  A    between atoms: C_1  and  C_2
REMARK    2  A    between atoms: C_2  and  N_3
REMARK    3  A    between atoms: N_3  and  C_4
REMARK    4  A    between atoms: C_4  and  C_5
REMARK    5  A    between atoms: C_11  and  N_12
REMARK    6  A    between atoms: C_14  and  C_15
REMARK    7  A    between atoms: C_15  and  C_16
REMARK    8  A    between atoms: C_16  and  O_18
REMARK    9  A    between atoms: C_25  and  C_27
REMARK                            x       y       z     vdW  Elec       q    Type
REMARK                         _______ _______ _______ _____ _____    ______ ____
ROOT
ATOM      1  C   UNL     1      -3.799  12.451  19.719  0.00  0.00    +0.000 A 
ATOM      2  C   UNL     1      -5.149  12.610  19.337  0.00  0.00    +0.000 A 
ATOM      3  C   UNL     1      -5.592  12.176  18.093  0.00  0.00    +0.000 A 
ATOM      4  F   UNL     1      -6.864  12.391  17.733  0.00  0.00    +0.000 F 
ATOM      5  C   UNL     1      -4.726  11.561  17.205  0.00  0.00    +0.000 A 
ATOM      6  C   UNL     1      -3.395  11.365  17.573  0.00  0.00    +0.000 A 
ATOM      7  C   UNL     1      -2.914  11.796  18.826  0.00  0.00    +0.000 A 
ENDROOT
BRANCH   7   8
ATOM      8  N   UNL     1      -1.535  11.541  19.133  0.00  0.00    +0.000 N 
ATOM      9  C   UNL     1      -0.994  10.323  19.509  0.00  0.00    +0.000 A 
ATOM     10  C   UNL     1       0.386  10.390  19.501  0.00  0.00    +0.000 A 
ATOM     11  C   UNL     1       0.717  11.752  19.244  0.00  0.00    +0.000 A 
ATOM     12  C   UNL     1       1.914  12.482  19.161  0.00  0.00    +0.000 A 
ATOM     13  C   UNL     1       1.835  13.847  18.895  0.00  0.00    +0.000 A 
ATOM     14  C   UNL     1       0.585  14.423  18.714  0.00  0.00    +0.000 A 
ATOM     15  N   UNL     1      -0.592  13.765  18.765  0.00  0.00    +0.000 NA
ATOM     16  C   UNL     1      -0.478  12.440  19.020  0.00  0.00    +0.000 A 
BRANCH  10  17
ATOM     17  C   UNL     1       1.323   9.235  19.662  0.00  0.00    +0.000 C 
BRANCH  17  18
ATOM     18  C   UNL     1       1.919   8.744  18.364  0.00  0.00    +0.000 C 
ATOM     19  O   UNL     1       1.969   9.417  17.344  0.00  0.00    +0.000 OA
BRANCH  18  20
ATOM     20  O   UNL     1       2.366   7.467  18.409  0.00  0.00    +0.000 OA
ATOM     21  H   UNL     1       1.763   6.832  17.976  0.00  0.00    +0.000 HD
ENDBRANCH  18  20
ENDBRANCH  17  18
ENDBRANCH  10  17
ENDBRANCH   7   8
BRANCH   1  22
ATOM     22  C   UNL     1      -3.353  13.199  20.950  0.00  0.00    +0.000 C 
BRANCH  22  23
ATOM     23  N   UNL     1      -3.242  12.506  22.233  0.00  0.00    +0.000 N 
ATOM     24  C   UNL     1      -4.275  12.594  23.178  0.00  0.00    +0.000 C 
ATOM     25  O   UNL     1      -4.224  12.039  24.270  0.00  0.00    +0.000 OA
BRANCH  24  26
ATOM     26  C   UNL     1      -5.486  13.411  22.825  0.00  0.00    +0.000 C 
ATOM     27  C   UNL     1      -6.806  12.723  22.570  0.00  0.00    +0.000 C 
ATOM     28  C   UNL     1      -6.628  13.563  23.801  0.00  0.00    +0.000 C 
ENDBRANCH  24  26
BRANCH  23  30
ATOM     29  C   UNL     1      -0.761  12.641  22.596  0.00  0.00    +0.000 C 
ATOM     30  C   UNL     1      -2.019  11.792  22.628  0.00  0.00    +0.000 C 
ENDBRANCH  23  30
ENDBRANCH  22  23
ENDBRANCH   1  22
TORSDOF 8
ENDMDL
MODEL 9
REMARK VINA RESULT:      -6.6      7.733      9.791
REMARK  Name = 
REMARK  9 active torsions:
REMARK  status: ('A' for Active; 'I' for Inactive)
REMARK    1  A    between atoms: C_1  and  C_2
REMARK    2  A    between atoms: C_2  and  N_3
REMARK    3  A    between atoms: N_3  and  C_4
REMARK    4  A    between atoms: C_4  and  C_5
REMARK    5  A    between atoms: C_11  and  N_12
REMARK    6  A    between atoms: C_14  and  C_15
REMARK    7  A    between atoms: C_15  and  C_16
REMARK    8  A    between atoms: C_16  and  O_18
REMARK    9  A    between atoms: C_25  and  C_27
REMARK                            x       y       z     vdW  Elec       q    Type
REMARK                         _______ _______ _______ _____ _____    ______ ____
ROOT
ATOM      1  C   UNL     1      -3.568  11.351  17.621  0.00  0.00    +0.000 A 
ATOM      2  C   UNL     1      -4.322  11.116  16.452  0.00  0.00    +0.000 A 
ATOM      3  C   UNL     1      -3.822  10.315  15.431  0.00  0.00    +0.000 A 
ATOM      4  F   UNL     1      -4.535  10.155  14.308  0.00  0.00    +0.000 F 
ATOM      5  C   UNL     1      -2.581   9.713  15.544  0.00  0.00    +0.000 A 
ATOM      6  C   UNL     1      -1.830   9.905  16.704  0.00  0.00    +0.000 A 
ATOM      7  C   UNL     1      -2.308  10.714  17.755  0.00  0.00    +0.000 A 
ENDROOT
BRANCH   7   8
ATOM      8  N   UNL     1      -1.480  10.847  18.921  0.00  0.00    +0.000 N 
ATOM      9  C   UNL     1      -1.280   9.882  19.894  0.00  0.00    +0.000 A 
ATOM     10  C   UNL     1      -0.255  10.262  20.739  0.00  0.00    +0.000 A 
ATOM     11  C   UNL     1       0.105  11.587  20.358  0.00  0.00    +0.000 A 
ATOM     12  C   UNL     1       1.017  12.543  20.837  0.00  0.00    +0.000 A 
ATOM     13  C   UNL     1       1.079  13.775  20.190  0.00  0.00    +0.000 A 
ATOM     14  C   UNL     1       0.249  14.001  19.100  0.00  0.00    +0.000 A 
ATOM     15  N   UNL     1      -0.629  13.114  18.591  0.00  0.00    +0.000 NA
ATOM     16  C   UNL     1      -0.660  11.926  19.239  0.00  0.00    +0.000 A 
BRANCH  10  17
ATOM     17  C   UNL     1       0.381   9.407  21.789  0.00  0.00    +0.000 C 
BRANCH  17  18
ATOM     18  C   UNL     1      -0.059   9.737  23.196  0.00  0.00    +0.000 C 
ATOM     19  O   UNL     1       0.628   9.532  24.187  0.00  0.00    +0.000 OA
BRANCH  18  20
ATOM     20  O   UNL     1      -1.309  10.251  23.277  0.00  0.00    +0.000 OA
ATOM     21  H   UNL     1      -1.843  10.094  22.476  0.00  0.00    +0.000 HD
ENDBRANCH  18  20
ENDBRANCH  17  18
ENDBRANCH  10  17
ENDBRANCH   7   8
BRANCH   1  22
ATOM     22  C   UNL     1      -4.059  12.448  18.532  0.00  0.00    +0.000 C 
BRANCH  22  23
ATOM     23  N   UNL     1      -4.943  12.132  19.654  0.00  0.00    +0.000 N 
ATOM     24  C   UNL     1      -4.545  12.413  20.969  0.00  0.00    +0.000 C 
ATOM     25  O   UNL     1      -5.246  12.159  21.943  0.00  0.00    +0.000 OA
BRANCH  24  26
ATOM     26  C   UNL     1      -3.199  13.047  21.180  0.00  0.00    +0.000 C 
ATOM     27  C   UNL     1      -3.092  14.546  21.330  0.00  0.00    +0.000 C 
ATOM     28  C   UNL     1      -2.830  13.656  22.511  0.00  0.00    +0.000 C 
ENDBRANCH  24  26
BRANCH  23  30
ATOM     29  C   UNL     1      -7.248  12.186  18.661  0.00  0.00    +0.000 C 
ATOM     30  C   UNL     1      -6.214  11.419  19.466  0.00  0.00    +0.000 C 
ENDBRANCH  23  30
ENDBRANCH  22  23
ENDBRANCH   1  22
TORSDOF 8
ENDMDL
