MODEL 1
REMARK VINA RESULT:      -8.3      0.000      0.000
REMARK  Name = 
REMARK  13 active torsions:
REMARK  status: ('A' for Active; 'I' for Inactive)
REMARK    1  A    between atoms: C_1  and  C_2
REMARK    2  A    between atoms: C_2  and  O_4
REMARK    3  A    between atoms: O_4  and  C_5
REMARK    4  A    between atoms: C_7  and  C_8
REMARK    5  A    between atoms: C_11  and  C_12
REMARK    6  A    between atoms: C_14  and  C_15
REMARK    7  A    between atoms: C_15  and  C_16
REMARK    8  A    between atoms: C_15  and  C_17
REMARK    9  A    between atoms: C_17  and  O_19
REMARK   10  A    between atoms: O_19  and  C_20
REMARK   11  A    between atoms: C_20  and  C_21
REMARK   12  A    between atoms: N_23  and  C_24
REMARK   13  A    between atoms: C_29  and  C_30
REMARK                            x       y       z     vdW  Elec       q    Type
REMARK                         _______ _______ _______ _____ _____    ______ ____
ROOT
ATOM      1  C   UNL     1       0.302  10.448  20.664  0.00  0.00    +0.000 C 
ATOM      2  C   UNL     1       0.149  11.618  21.638  0.00  0.00    +0.000 C 
ENDROOT
BRANCH   1  12
ATOM      3  C   UNL     1      -5.186  12.174  17.979  0.00  0.00    +0.000 A 
ATOM      4  C   UNL     1      -4.955  11.544  16.757  0.00  0.00    +0.000 A 
ATOM      5  C   UNL     1      -3.733  10.928  16.499  0.00  0.00    +0.000 A 
ATOM      6  C   UNL     1      -3.528  10.275  15.158  0.00  0.00    +0.000 C 
ATOM      7  C   UNL     1      -2.739  10.912  17.503  0.00  0.00    +0.000 A 
ATOM      8  C   UNL     1      -2.999  11.486  18.777  0.00  0.00    +0.000 A 
ATOM      9  C   UNL     1      -4.226  12.160  19.007  0.00  0.00    +0.000 A 
ATOM     10  C   UNL     1      -4.552  12.849  20.308  0.00  0.00    +0.000 C 
ATOM     11  C   UNL     1      -1.959  11.388  19.883  0.00  0.00    +0.000 C 
ATOM     12  C   UNL     1      -0.842  10.357  19.629  0.00  0.00    +0.000 C 
ATOM     13  C   UNL     1      -0.325  10.561  18.200  0.00  0.00    +0.000 C 
ATOM     14  C   UNL     1      -1.428  10.215  17.215  0.00  0.00    +0.000 C 
BRANCH   3  15
ATOM     15  O   UNL     1      -6.471  12.694  18.251  0.00  0.00    +0.000 OA
BRANCH  15  17
ATOM     16  C   UNL     1      -6.809  15.004  18.530  0.00  0.00    +0.000 C 
ATOM     17  C   UNL     1      -6.860  13.848  17.578  0.00  0.00    +0.000 C 
ATOM     18  O   UNL     1      -7.234  13.932  16.415  0.00  0.00    +0.000 OA
ENDBRANCH  15  17
ENDBRANCH   3  15
ENDBRANCH   1  12
BRANCH   1  19
ATOM     19  C   UNL     1       0.327   9.173  21.486  0.00  0.00    +0.000 C 
ATOM     20  O   UNL     1      -0.620   8.759  22.144  0.00  0.00    +0.000 OA
BRANCH  19  21
ATOM     21  O   UNL     1       1.527   8.547  21.358  0.00  0.00    +0.000 OA
BRANCH  21  22
ATOM     22  C   UNL     1       1.461   7.214  20.827  0.00  0.00    +0.000 C 
BRANCH  22  23
ATOM     23  C   UNL     1       2.303   7.056  19.618  0.00  0.00    +0.000 A 
ATOM     24  C   UNL     1       3.163   6.036  19.278  0.00  0.00    +0.000 A 
ATOM     25  N   UNL     1       3.753   6.440  18.106  0.00  0.00    +0.000 N 
ATOM     26  N   UNL     1       3.257   7.646  17.755  0.00  0.00    +0.000 NA
ATOM     27  N   UNL     1       2.366   8.024  18.659  0.00  0.00    +0.000 NA
BRANCH  25  28
ATOM     28  C   UNL     1       4.687   5.731  17.307  0.00  0.00    +0.000 A 
ATOM     29  C   UNL     1       5.906   6.361  16.982  0.00  0.00    +0.000 A 
ATOM     30  C   UNL     1       6.887   5.679  16.260  0.00  0.00    +0.000 A 
ATOM     31  C   UNL     1       6.661   4.375  15.837  0.00  0.00    +0.000 A 
ATOM     32  C   UNL     1       5.445   3.753  16.126  0.00  0.00    +0.000 A 
ATOM     33  C   UNL     1       4.447   4.417  16.861  0.00  0.00    +0.000 A 
BRANCH  33  34
ATOM     34  C   UNL     1       3.203   3.715  17.034  0.00  0.00    +0.000 C 
ATOM     35  N   UNL     1       2.243   3.075  17.164  0.00  0.00    +0.000 NA
ENDBRANCH  33  34
ENDBRANCH  25  28
ENDBRANCH  22  23
ENDBRANCH  21  22
ENDBRANCH  19  21
ENDBRANCH   1  19
TORSDOF 9
ENDMDL
MODEL 2
REMARK VINA RESULT:      -7.9      3.754      9.519
REMARK  Name = 
REMARK  13 active torsions:
REMARK  status: ('A' for Active; 'I' for Inactive)
REMARK    1  A    between atoms: C_1  and  C_2
REMARK    2  A    between atoms: C_2  and  O_4
REMARK    3  A    between atoms: O_4  and  C_5
REMARK    4  A    between atoms: C_7  and  C_8
REMARK    5  A    between atoms: C_11  and  C_12
REMARK    6  A    between atoms: C_14  and  C_15
REMARK    7  A    between atoms: C_15  and  C_16
REMARK    8  A    between atoms: C_15  and  C_17
REMARK    9  A    between atoms: C_17  and  O_19
REMARK   10  A    between atoms: O_19  and  C_20
REMARK   11  A    between atoms: C_20  and  C_21
REMARK   12  A    between atoms: N_23  and  C_24
REMARK   13  A    between atoms: C_29  and  C_30
REMARK                            x       y       z     vdW  Elec       q    Type
REMARK                         _______ _______ _______ _____ _____    ______ ____
ROOT
ATOM      1  C   UNL     1       0.375   9.267  20.991  0.00  0.00    +0.000 C 
ATOM      2  C   UNL     1      -0.660   8.346  21.638  0.00  0.00    +0.000 C 
ENDROOT
BRANCH   1  12
ATOM      3  C   UNL     1       3.570   4.112  19.116  0.00  0.00    +0.000 A 
ATOM      4  C   UNL     1       4.229   4.727  18.053  0.00  0.00    +0.000 A 
ATOM      5  C   UNL     1       3.939   6.046  17.709  0.00  0.00    +0.000 A 
ATOM      6  C   UNL     1       4.668   6.659  16.543  0.00  0.00    +0.000 C 
ATOM      7  C   UNL     1       2.997   6.770  18.473  0.00  0.00    +0.000 A 
ATOM      8  C   UNL     1       2.380   6.170  19.604  0.00  0.00    +0.000 A 
ATOM      9  C   UNL     1       2.640   4.810  19.908  0.00  0.00    +0.000 A 
ATOM     10  C   UNL     1       1.978   4.084  21.052  0.00  0.00    +0.000 C 
ATOM     11  C   UNL     1       1.433   6.983  20.474  0.00  0.00    +0.000 C 
ATOM     12  C   UNL     1       1.499   8.506  20.252  0.00  0.00    +0.000 C 
ATOM     13  C   UNL     1       1.455   8.767  18.742  0.00  0.00    +0.000 C 
ATOM     14  C   UNL     1       2.715   8.209  18.102  0.00  0.00    +0.000 C 
BRANCH   3  15
ATOM     15  O   UNL     1       3.962   2.813  19.508  0.00  0.00    +0.000 OA
BRANCH  15  17
ATOM     16  C   UNL     1       2.197   2.028  18.168  0.00  0.00    +0.000 C 
ATOM     17  C   UNL     1       3.566   1.746  18.707  0.00  0.00    +0.000 C 
ATOM     18  O   UNL     1       4.187   0.712  18.498  0.00  0.00    +0.000 OA
ENDBRANCH  15  17
ENDBRANCH   3  15
ENDBRANCH   1  12
BRANCH   1  19
ATOM     19  C   UNL     1       0.989  10.107  22.095  0.00  0.00    +0.000 C 
ATOM     20  O   UNL     1       1.278   9.678  23.206  0.00  0.00    +0.000 OA
BRANCH  19  21
ATOM     21  O   UNL     1       1.203  11.378  21.664  0.00  0.00    +0.000 OA
BRANCH  21  22
ATOM     22  C   UNL     1       0.045  12.229  21.686  0.00  0.00    +0.000 C 
BRANCH  22  23
ATOM     23  C   UNL     1      -0.595  12.328  20.353  0.00  0.00    +0.000 A 
ATOM     24  C   UNL     1      -1.514  11.493  19.760  0.00  0.00    +0.000 A 
ATOM     25  N   UNL     1      -1.695  11.998  18.495  0.00  0.00    +0.000 N 
ATOM     26  N   UNL     1      -0.924  13.097  18.345  0.00  0.00    +0.000 NA
ATOM     27  N   UNL     1      -0.261  13.314  19.472  0.00  0.00    +0.000 NA
BRANCH  25  28
ATOM     28  C   UNL     1      -2.577  11.534  17.486  0.00  0.00    +0.000 A 
ATOM     29  C   UNL     1      -2.022  10.999  16.305  0.00  0.00    +0.000 A 
ATOM     30  C   UNL     1      -2.846  10.465  15.313  0.00  0.00    +0.000 A 
ATOM     31  C   UNL     1      -4.226  10.473  15.474  0.00  0.00    +0.000 A 
ATOM     32  C   UNL     1      -4.787  11.029  16.625  0.00  0.00    +0.000 A 
ATOM     33  C   UNL     1      -3.976  11.563  17.642  0.00  0.00    +0.000 A 
BRANCH  33  34
ATOM     34  C   UNL     1      -4.658  12.183  18.748  0.00  0.00    +0.000 C 
ATOM     35  N   UNL     1      -5.167  12.756  19.620  0.00  0.00    +0.000 NA
ENDBRANCH  33  34
ENDBRANCH  25  28
ENDBRANCH  22  23
ENDBRANCH  21  22
ENDBRANCH  19  21
ENDBRANCH   1  19
TORSDOF 9
ENDMDL
MODEL 3
REMARK VINA RESULT:      -7.9      4.560     10.616
REMARK  Name = 
REMARK  13 active torsions:
REMARK  status: ('A' for Active; 'I' for Inactive)
REMARK    1  A    between atoms: C_1  and  C_2
REMARK    2  A    between atoms: C_2  and  O_4
REMARK    3  A    between atoms: O_4  and  C_5
REMARK    4  A    between atoms: C_7  and  C_8
REMARK    5  A    between atoms: C_11  and  C_12
REMARK    6  A    between atoms: C_14  and  C_15
REMARK    7  A    between atoms: C_15  and  C_16
REMARK    8  A    between atoms: C_15  and  C_17
REMARK    9  A    between atoms: C_17  and  O_19
REMARK   10  A    between atoms: O_19  and  C_20
REMARK   11  A    between atoms: C_20  and  C_21
REMARK   12  A    between atoms: N_23  and  C_24
REMARK   13  A    between atoms: C_29  and  C_30
REMARK                            x       y       z     vdW  Elec       q    Type
REMARK                         _______ _______ _______ _____ _____    ______ ____
ROOT
ATOM      1  C   UNL     1       0.657  10.256  20.150  0.00  0.00    +0.000 C 
ATOM      2  C   UNL     1      -0.739  10.075  19.554  0.00  0.00    +0.000 C 
ENDROOT
BRANCH   1  12
ATOM      3  C   UNL     1       3.171   4.537  19.016  0.00  0.00    +0.000 A 
ATOM      4  C   UNL     1       3.982   4.942  17.958  0.00  0.00    +0.000 A 
ATOM      5  C   UNL     1       3.914   6.246  17.472  0.00  0.00    +0.000 A 
ATOM      6  C   UNL     1       4.801   6.628  16.318  0.00  0.00    +0.000 C 
ATOM      7  C   UNL     1       3.042   7.170  18.089  0.00  0.00    +0.000 A 
ATOM      8  C   UNL     1       2.269   6.782  19.217  0.00  0.00    +0.000 A 
ATOM      9  C   UNL     1       2.304   5.437  19.664  0.00  0.00    +0.000 A 
ATOM     10  C   UNL     1       1.468   4.932  20.812  0.00  0.00    +0.000 C 
ATOM     11  C   UNL     1       1.398   7.804  19.931  0.00  0.00    +0.000 C 
ATOM     12  C   UNL     1       1.703   9.272  19.576  0.00  0.00    +0.000 C 
ATOM     13  C   UNL     1       1.798   9.381  18.050  0.00  0.00    +0.000 C 
ATOM     14  C   UNL     1       3.001   8.589  17.566  0.00  0.00    +0.000 C 
BRANCH   3  15
ATOM     15  O   UNL     1       3.340   3.243  19.555  0.00  0.00    +0.000 OA
BRANCH  15  17
ATOM     16  C   UNL     1       3.802   1.192  18.503  0.00  0.00    +0.000 C 
ATOM     17  C   UNL     1       2.742   2.178  18.887  0.00  0.00    +0.000 C 
ATOM     18  O   UNL     1       1.558   2.061  18.601  0.00  0.00    +0.000 OA
ENDBRANCH  15  17
ENDBRANCH   3  15
ENDBRANCH   1  12
BRANCH   1  19
ATOM     19  C   UNL     1       0.544  10.038  21.647  0.00  0.00    +0.000 C 
ATOM     20  O   UNL     1       1.501   9.878  22.394  0.00  0.00    +0.000 OA
BRANCH  19  21
ATOM     21  O   UNL     1      -0.758  10.082  22.038  0.00  0.00    +0.000 OA
BRANCH  21  22
ATOM     22  C   UNL     1      -1.048  11.035  23.073  0.00  0.00    +0.000 C 
BRANCH  22  23
ATOM     23  C   UNL     1      -2.306  11.775  22.810  0.00  0.00    +0.000 A 
ATOM     24  C   UNL     1      -2.650  12.555  21.730  0.00  0.00    +0.000 A 
ATOM     25  N   UNL     1      -3.884  13.074  22.042  0.00  0.00    +0.000 N 
ATOM     26  N   UNL     1      -4.264  12.611  23.252  0.00  0.00    +0.000 NA
ATOM     27  N   UNL     1      -3.318  11.811  23.723  0.00  0.00    +0.000 NA
BRANCH  25  28
ATOM     28  C   UNL     1      -4.708  13.909  21.245  0.00  0.00    +0.000 A 
ATOM     29  C   UNL     1      -4.344  15.263  21.093  0.00  0.00    +0.000 A 
ATOM     30  C   UNL     1      -5.082  16.107  20.262  0.00  0.00    +0.000 A 
ATOM     31  C   UNL     1      -6.198  15.623  19.590  0.00  0.00    +0.000 A 
ATOM     32  C   UNL     1      -6.586  14.293  19.759  0.00  0.00    +0.000 A 
ATOM     33  C   UNL     1      -5.851  13.422  20.582  0.00  0.00    +0.000 A 
BRANCH  33  34
ATOM     34  C   UNL     1      -6.383  12.095  20.749  0.00  0.00    +0.000 C 
ATOM     35  N   UNL     1      -6.794  11.010  20.800  0.00  0.00    +0.000 NA
ENDBRANCH  33  34
ENDBRANCH  25  28
ENDBRANCH  22  23
ENDBRANCH  21  22
ENDBRANCH  19  21
ENDBRANCH   1  19
TORSDOF 9
ENDMDL
MODEL 4
REMARK VINA RESULT:      -7.9      4.431     10.278
REMARK  Name = 
REMARK  13 active torsions:
REMARK  status: ('A' for Active; 'I' for Inactive)
REMARK    1  A    between atoms: C_1  and  C_2
REMARK    2  A    between atoms: C_2  and  O_4
REMARK    3  A    between atoms: O_4  and  C_5
REMARK    4  A    between atoms: C_7  and  C_8
REMARK    5  A    between atoms: C_11  and  C_12
REMARK    6  A    between atoms: C_14  and  C_15
REMARK    7  A    between atoms: C_15  and  C_16
REMARK    8  A    between atoms: C_15  and  C_17
REMARK    9  A    between atoms: C_17  and  O_19
REMARK   10  A    between atoms: O_19  and  C_20
REMARK   11  A    between atoms: C_20  and  C_21
REMARK   12  A    between atoms: N_23  and  C_24
REMARK   13  A    between atoms: C_29  and  C_30
REMARK                            x       y       z     vdW  Elec       q    Type
REMARK                         _______ _______ _______ _____ _____    ______ ____
ROOT
ATOM      1  C   UNL     1       1.432   9.684  18.987  0.00  0.00    +0.000 C 
ATOM      2  C   UNL     1       2.058  10.525  17.873  0.00  0.00    +0.000 C 
ENDROOT
BRANCH   1  12
ATOM      3  C   UNL     1       4.793   4.639  17.102  0.00  0.00    +0.000 A 
ATOM      4  C   UNL     1       4.268   3.755  18.042  0.00  0.00    +0.000 A 
ATOM      5  C   UNL     1       3.394   4.207  19.029  0.00  0.00    +0.000 A 
ATOM      6  C   UNL     1       2.868   3.214  20.030  0.00  0.00    +0.000 C 
ATOM      7  C   UNL     1       3.011   5.566  19.045  0.00  0.00    +0.000 A 
ATOM      8  C   UNL     1       3.484   6.455  18.041  0.00  0.00    +0.000 A 
ATOM      9  C   UNL     1       4.418   5.995  17.078  0.00  0.00    +0.000 A 
ATOM     10  C   UNL     1       5.014   6.889  16.021  0.00  0.00    +0.000 C 
ATOM     11  C   UNL     1       2.999   7.897  18.011  0.00  0.00    +0.000 C 
ATOM     12  C   UNL     1       1.754   8.177  18.874  0.00  0.00    +0.000 C 
ATOM     13  C   UNL     1       1.980   7.546  20.252  0.00  0.00    +0.000 C 
ATOM     14  C   UNL     1       2.041   6.034  20.106  0.00  0.00    +0.000 C 
BRANCH   3  15
ATOM     15  O   UNL     1       5.589   4.132  16.051  0.00  0.00    +0.000 OA
BRANCH  15  17
ATOM     16  C   UNL     1       7.482   4.471  17.404  0.00  0.00    +0.000 C 
ATOM     17  C   UNL     1       6.928   4.508  16.012  0.00  0.00    +0.000 C 
ATOM     18  O   UNL     1       7.565   4.863  15.029  0.00  0.00    +0.000 OA
ENDBRANCH  15  17
ENDBRANCH   3  15
ENDBRANCH   1  12
BRANCH   1  19
ATOM     19  C   UNL     1      -0.071   9.876  18.911  0.00  0.00    +0.000 C 
ATOM     20  O   UNL     1      -0.714   9.869  17.868  0.00  0.00    +0.000 OA
BRANCH  19  21
ATOM     21  O   UNL     1      -0.597  10.018  20.156  0.00  0.00    +0.000 OA
BRANCH  21  22
ATOM     22  C   UNL     1      -1.147  11.316  20.437  0.00  0.00    +0.000 C 
BRANCH  22  23
ATOM     23  C   UNL     1      -0.143  12.393  20.263  0.00  0.00    +0.000 A 
ATOM     24  C   UNL     1       0.030  13.265  19.213  0.00  0.00    +0.000 A 
ATOM     25  N   UNL     1       1.158  13.984  19.525  0.00  0.00    +0.000 N 
ATOM     26  N   UNL     1       1.631  13.565  20.719  0.00  0.00    +0.000 NA
ATOM     27  N   UNL     1       0.842  12.607  21.182  0.00  0.00    +0.000 NA
BRANCH  25  28
ATOM     28  C   UNL     1       1.747  15.048  18.795  0.00  0.00    +0.000 A 
ATOM     29  C   UNL     1       2.917  14.786  18.054  0.00  0.00    +0.000 A 
ATOM     30  C   UNL     1       3.494  15.781  17.263  0.00  0.00    +0.000 A 
ATOM     31  C   UNL     1       2.927  17.049  17.215  0.00  0.00    +0.000 A 
ATOM     32  C   UNL     1       1.787  17.328  17.969  0.00  0.00    +0.000 A 
ATOM     33  C   UNL     1       1.183  16.338  18.765  0.00  0.00    +0.000 A 
BRANCH  33  34
ATOM     34  C   UNL     1       0.060  16.753  19.564  0.00  0.00    +0.000 C 
ATOM     35  N   UNL     1      -0.792  17.091  20.276  0.00  0.00    +0.000 NA
ENDBRANCH  33  34
ENDBRANCH  25  28
ENDBRANCH  22  23
ENDBRANCH  21  22
ENDBRANCH  19  21
ENDBRANCH   1  19
TORSDOF 9
ENDMDL
MODEL 5
REMARK VINA RESULT:      -7.8      1.970      2.979
REMARK  Name = 
REMARK  13 active torsions:
REMARK  status: ('A' for Active; 'I' for Inactive)
REMARK    1  A    between atoms: C_1  and  C_2
REMARK    2  A    between atoms: C_2  and  O_4
REMARK    3  A    between atoms: O_4  and  C_5
REMARK    4  A    between atoms: C_7  and  C_8
REMARK    5  A    between atoms: C_11  and  C_12
REMARK    6  A    between atoms: C_14  and  C_15
REMARK    7  A    between atoms: C_15  and  C_16
REMARK    8  A    between atoms: C_15  and  C_17
REMARK    9  A    between atoms: C_17  and  O_19
REMARK   10  A    between atoms: O_19  and  C_20
REMARK   11  A    between atoms: C_20  and  C_21
REMARK   12  A    between atoms: N_23  and  C_24
REMARK   13  A    between atoms: C_29  and  C_30
REMARK                            x       y       z     vdW  Elec       q    Type
REMARK                         _______ _______ _______ _____ _____    ______ ____
ROOT
ATOM      1  C   UNL     1       0.446  10.456  18.736  0.00  0.00    +0.000 C 
ATOM      2  C   UNL     1       1.247  11.756  18.799  0.00  0.00    +0.000 C 
ENDROOT
BRANCH   1  12
ATOM      3  C   UNL     1      -4.769  13.562  20.598  0.00  0.00    +0.000 A 
ATOM      4  C   UNL     1      -5.652  12.875  19.767  0.00  0.00    +0.000 A 
ATOM      5  C   UNL     1      -5.177  11.948  18.841  0.00  0.00    +0.000 A 
ATOM      6  C   UNL     1      -6.171  11.245  17.956  0.00  0.00    +0.000 C 
ATOM      7  C   UNL     1      -3.792  11.678  18.779  0.00  0.00    +0.000 A 
ATOM      8  C   UNL     1      -2.897  12.319  19.678  0.00  0.00    +0.000 A 
ATOM      9  C   UNL     1      -3.386  13.304  20.575  0.00  0.00    +0.000 A 
ATOM     10  C   UNL     1      -2.493  14.073  21.515  0.00  0.00    +0.000 C 
ATOM     11  C   UNL     1      -1.419  11.960  19.666  0.00  0.00    +0.000 C 
ATOM     12  C   UNL     1      -1.076  10.663  18.910  0.00  0.00    +0.000 C 
ATOM     13  C   UNL     1      -1.796  10.698  17.557  0.00  0.00    +0.000 C 
ATOM     14  C   UNL     1      -3.297  10.649  17.788  0.00  0.00    +0.000 C 
BRANCH   3  15
ATOM     15  O   UNL     1      -5.288  14.413  21.598  0.00  0.00    +0.000 OA
BRANCH  15  17
ATOM     16  C   UNL     1      -5.552  13.034  23.484  0.00  0.00    +0.000 C 
ATOM     17  C   UNL     1      -6.242  13.889  22.465  0.00  0.00    +0.000 C 
ATOM     18  O   UNL     1      -7.455  14.040  22.404  0.00  0.00    +0.000 OA
ENDBRANCH  15  17
ENDBRANCH   3  15
ENDBRANCH   1  12
BRANCH   1  19
ATOM     19  C   UNL     1       0.952   9.556  19.848  0.00  0.00    +0.000 C 
ATOM     20  O   UNL     1       1.040   9.895  21.022  0.00  0.00    +0.000 OA
BRANCH  19  21
ATOM     21  O   UNL     1       1.257   8.323  19.363  0.00  0.00    +0.000 OA
BRANCH  21  22
ATOM     22  C   UNL     1       1.866   7.432  20.311  0.00  0.00    +0.000 C 
BRANCH  22  23
ATOM     23  C   UNL     1       2.738   6.431  19.650  0.00  0.00    +0.000 A 
ATOM     24  C   UNL     1       3.639   6.600  18.624  0.00  0.00    +0.000 A 
ATOM     25  N   UNL     1       4.099   5.337  18.340  0.00  0.00    +0.000 N 
ATOM     26  N   UNL     1       3.506   4.454  19.172  0.00  0.00    +0.000 NA
ATOM     27  N   UNL     1       2.687   5.110  19.981  0.00  0.00    +0.000 NA
BRANCH  25  28
ATOM     28  C   UNL     1       5.082   4.957  17.390  0.00  0.00    +0.000 A 
ATOM     29  C   UNL     1       4.657   4.561  16.106  0.00  0.00    +0.000 A 
ATOM     30  C   UNL     1       5.588   4.247  15.115  0.00  0.00    +0.000 A 
ATOM     31  C   UNL     1       6.948   4.304  15.394  0.00  0.00    +0.000 A 
ATOM     32  C   UNL     1       7.380   4.664  16.671  0.00  0.00    +0.000 A 
ATOM     33  C   UNL     1       6.459   4.995  17.682  0.00  0.00    +0.000 A 
BRANCH  33  34
ATOM     34  C   UNL     1       7.008   5.274  18.983  0.00  0.00    +0.000 C 
ATOM     35  N   UNL     1       7.527   5.473  20.002  0.00  0.00    +0.000 NA
ENDBRANCH  33  34
ENDBRANCH  25  28
ENDBRANCH  22  23
ENDBRANCH  21  22
ENDBRANCH  19  21
ENDBRANCH   1  19
TORSDOF 9
ENDMDL
MODEL 6
REMARK VINA RESULT:      -7.7      4.456     10.684
REMARK  Name = 
REMARK  13 active torsions:
REMARK  status: ('A' for Active; 'I' for Inactive)
REMARK    1  A    between atoms: C_1  and  C_2
REMARK    2  A    between atoms: C_2  and  O_4
REMARK    3  A    between atoms: O_4  and  C_5
REMARK    4  A    between atoms: C_7  and  C_8
REMARK    5  A    between atoms: C_11  and  C_12
REMARK    6  A    between atoms: C_14  and  C_15
REMARK    7  A    between atoms: C_15  and  C_16
REMARK    8  A    between atoms: C_15  and  C_17
REMARK    9  A    between atoms: C_17  and  O_19
REMARK   10  A    between atoms: O_19  and  C_20
REMARK   11  A    between atoms: C_20  and  C_21
REMARK   12  A    between atoms: N_23  and  C_24
REMARK   13  A    between atoms: C_29  and  C_30
REMARK                            x       y       z     vdW  Elec       q    Type
REMARK                         _______ _______ _______ _____ _____    ______ ____
ROOT
ATOM      1  C   UNL     1       0.568   9.858  20.351  0.00  0.00    +0.000 C 
ATOM      2  C   UNL     1       0.563   9.845  21.880  0.00  0.00    +0.000 C 
ENDROOT
BRANCH   1  12
ATOM      3  C   UNL     1       3.407   4.319  19.100  0.00  0.00    +0.000 A 
ATOM      4  C   UNL     1       4.146   4.776  18.011  0.00  0.00    +0.000 A 
ATOM      5  C   UNL     1       3.972   6.074  17.532  0.00  0.00    +0.000 A 
ATOM      6  C   UNL     1       4.784   6.514  16.344  0.00  0.00    +0.000 C 
ATOM      7  C   UNL     1       3.066   6.938  18.186  0.00  0.00    +0.000 A 
ATOM      8  C   UNL     1       2.367   6.499  19.344  0.00  0.00    +0.000 A 
ATOM      9  C   UNL     1       2.510   5.159  19.785  0.00  0.00    +0.000 A 
ATOM     10  C   UNL     1       1.756   4.599  20.965  0.00  0.00    +0.000 C 
ATOM     11  C   UNL     1       1.460   7.461  20.095  0.00  0.00    +0.000 C 
ATOM     12  C   UNL     1       1.652   8.946  19.732  0.00  0.00    +0.000 C 
ATOM     13  C   UNL     1       1.678   9.061  18.204  0.00  0.00    +0.000 C 
ATOM     14  C   UNL     1       2.910   8.350  17.670  0.00  0.00    +0.000 C 
BRANCH   3  15
ATOM     15  O   UNL     1       3.683   3.039  19.628  0.00  0.00    +0.000 OA
BRANCH  15  17
ATOM     16  C   UNL     1       1.779   2.020  18.697  0.00  0.00    +0.000 C 
ATOM     17  C   UNL     1       3.261   1.931  18.899  0.00  0.00    +0.000 C 
ATOM     18  O   UNL     1       3.951   0.996  18.514  0.00  0.00    +0.000 OA
ENDBRANCH  15  17
ENDBRANCH   3  15
ENDBRANCH   1  12
BRANCH   1  19
ATOM     19  C   UNL     1       0.815  11.289  19.910  0.00  0.00    +0.000 C 
ATOM     20  O   UNL     1       1.668  12.021  20.396  0.00  0.00    +0.000 OA
BRANCH  19  21
ATOM     21  O   UNL     1      -0.013  11.622  18.885  0.00  0.00    +0.000 OA
BRANCH  21  22
ATOM     22  C   UNL     1      -0.480  12.981  18.900  0.00  0.00    +0.000 C 
BRANCH  22  23
ATOM     23  C   UNL     1      -1.332  13.262  20.080  0.00  0.00    +0.000 A 
ATOM     24  C   UNL     1      -2.430  12.577  20.548  0.00  0.00    +0.000 A 
ATOM     25  N   UNL     1      -2.891  13.319  21.608  0.00  0.00    +0.000 N 
ATOM     26  N   UNL     1      -2.092  14.396  21.773  0.00  0.00    +0.000 NA
ATOM     27  N   UNL     1      -1.135  14.365  20.857  0.00  0.00    +0.000 NA
BRANCH  25  28
ATOM     28  C   UNL     1      -3.978  13.029  22.472  0.00  0.00    +0.000 A 
ATOM     29  C   UNL     1      -3.695  12.560  23.771  0.00  0.00    +0.000 A 
ATOM     30  C   UNL     1      -4.727  12.329  24.682  0.00  0.00    +0.000 A 
ATOM     31  C   UNL     1      -6.048  12.541  24.308  0.00  0.00    +0.000 A 
ATOM     32  C   UNL     1      -6.341  12.975  23.014  0.00  0.00    +0.000 A 
ATOM     33  C   UNL     1      -5.317  13.225  22.083  0.00  0.00    +0.000 A 
BRANCH  33  34
ATOM     34  C   UNL     1      -5.732  13.591  20.755  0.00  0.00    +0.000 C 
ATOM     35  N   UNL     1      -6.004  13.944  19.682  0.00  0.00    +0.000 NA
ENDBRANCH  33  34
ENDBRANCH  25  28
ENDBRANCH  22  23
ENDBRANCH  21  22
ENDBRANCH  19  21
ENDBRANCH   1  19
TORSDOF 9
ENDMDL
MODEL 7
REMARK VINA RESULT:      -7.7      3.897     10.757
REMARK  Name = 
REMARK  13 active torsions:
REMARK  status: ('A' for Active; 'I' for Inactive)
REMARK    1  A    between atoms: C_1  and  C_2
REMARK    2  A    between atoms: C_2  and  O_4
REMARK    3  A    between atoms: O_4  and  C_5
REMARK    4  A    between atoms: C_7  and  C_8
REMARK    5  A    between atoms: C_11  and  C_12
REMARK    6  A    between atoms: C_14  and  C_15
REMARK    7  A    between atoms: C_15  and  C_16
REMARK    8  A    between atoms: C_15  and  C_17
REMARK    9  A    between atoms: C_17  and  O_19
REMARK   10  A    between atoms: O_19  and  C_20
REMARK   11  A    between atoms: C_20  and  C_21
REMARK   12  A    between atoms: N_23  and  C_24
REMARK   13  A    between atoms: C_29  and  C_30
REMARK                            x       y       z     vdW  Elec       q    Type
REMARK                         _______ _______ _______ _____ _____    ______ ____
ROOT
ATOM      1  C   UNL     1       0.310   9.997  20.230  0.00  0.00    +0.000 C 
ATOM      2  C   UNL     1       0.801  11.031  21.244  0.00  0.00    +0.000 C 
ENDROOT
BRANCH   1  12
ATOM      3  C   UNL     1       3.321   4.520  19.113  0.00  0.00    +0.000 A 
ATOM      4  C   UNL     1       4.100   4.994  18.059  0.00  0.00    +0.000 A 
ATOM      5  C   UNL     1       3.921   6.288  17.573  0.00  0.00    +0.000 A 
ATOM      6  C   UNL     1       4.778   6.746  16.423  0.00  0.00    +0.000 C 
ATOM      7  C   UNL     1       2.968   7.132  18.184  0.00  0.00    +0.000 A 
ATOM      8  C   UNL     1       2.225   6.678  19.308  0.00  0.00    +0.000 A 
ATOM      9  C   UNL     1       2.375   5.340  19.756  0.00  0.00    +0.000 A 
ATOM     10  C   UNL     1       1.580   4.764  20.899  0.00  0.00    +0.000 C 
ATOM     11  C   UNL     1       1.264   7.620  20.016  0.00  0.00    +0.000 C 
ATOM     12  C   UNL     1       1.441   9.109  19.662  0.00  0.00    +0.000 C 
ATOM     13  C   UNL     1       1.535   9.226  18.137  0.00  0.00    +0.000 C 
ATOM     14  C   UNL     1       2.806   8.541  17.660  0.00  0.00    +0.000 C 
BRANCH   3  15
ATOM     15  O   UNL     1       3.600   3.246  19.654  0.00  0.00    +0.000 OA
BRANCH  15  17
ATOM     16  C   UNL     1       3.983   1.199  18.561  0.00  0.00    +0.000 C 
ATOM     17  C   UNL     1       2.952   2.148  19.094  0.00  0.00    +0.000 C 
ATOM     18  O   UNL     1       1.744   1.978  18.994  0.00  0.00    +0.000 OA
ENDBRANCH  15  17
ENDBRANCH   3  15
ENDBRANCH   1  12
BRANCH   1  19
ATOM     19  C   UNL     1      -0.343  10.754  19.089  0.00  0.00    +0.000 C 
ATOM     20  O   UNL     1       0.116  11.774  18.587  0.00  0.00    +0.000 OA
BRANCH  19  21
ATOM     21  O   UNL     1      -1.478  10.124  18.686  0.00  0.00    +0.000 OA
BRANCH  21  22
ATOM     22  C   UNL     1      -2.098  10.681  17.516  0.00  0.00    +0.000 C 
BRANCH  22  23
ATOM     23  C   UNL     1      -3.374  11.364  17.836  0.00  0.00    +0.000 A 
ATOM     24  C   UNL     1      -3.812  11.880  19.035  0.00  0.00    +0.000 A 
ATOM     25  N   UNL     1      -5.094  12.311  18.793  0.00  0.00    +0.000 N 
ATOM     26  N   UNL     1      -5.402  12.073  17.500  0.00  0.00    +0.000 NA
ATOM     27  N   UNL     1      -4.361  11.509  16.906  0.00  0.00    +0.000 NA
BRANCH  25  28
ATOM     28  C   UNL     1      -5.980  12.966  19.687  0.00  0.00    +0.000 A 
ATOM     29  C   UNL     1      -5.870  14.363  19.836  0.00  0.00    +0.000 A 
ATOM     30  C   UNL     1      -6.764  15.063  20.648  0.00  0.00    +0.000 A 
ATOM     31  C   UNL     1      -7.762  14.381  21.334  0.00  0.00    +0.000 A 
ATOM     32  C   UNL     1      -7.859  12.994  21.219  0.00  0.00    +0.000 A 
ATOM     33  C   UNL     1      -6.976  12.270  20.398  0.00  0.00    +0.000 A 
BRANCH  33  34
ATOM     34  C   UNL     1      -7.114  10.838  20.413  0.00  0.00    +0.000 C 
ATOM     35  N   UNL     1      -7.259   9.688  20.347  0.00  0.00    +0.000 NA
ENDBRANCH  33  34
ENDBRANCH  25  28
ENDBRANCH  22  23
ENDBRANCH  21  22
ENDBRANCH  19  21
ENDBRANCH   1  19
TORSDOF 9
ENDMDL
MODEL 8
REMARK VINA RESULT:      -7.7      4.343     10.434
REMARK  Name = 
REMARK  13 active torsions:
REMARK  status: ('A' for Active; 'I' for Inactive)
REMARK    1  A    between atoms: C_1  and  C_2
REMARK    2  A    between atoms: C_2  and  O_4
REMARK    3  A    between atoms: O_4  and  C_5
REMARK    4  A    between atoms: C_7  and  C_8
REMARK    5  A    between atoms: C_11  and  C_12
REMARK    6  A    between atoms: C_14  and  C_15
REMARK    7  A    between atoms: C_15  and  C_16
REMARK    8  A    between atoms: C_15  and  C_17
REMARK    9  A    between atoms: C_17  and  O_19
REMARK   10  A    between atoms: O_19  and  C_20
REMARK   11  A    between atoms: C_20  and  C_21
REMARK   12  A    between atoms: N_23  and  C_24
REMARK   13  A    between atoms: C_29  and  C_30
REMARK                            x       y       z     vdW  Elec       q    Type
REMARK                         _______ _______ _______ _____ _____    ______ ____
ROOT
ATOM      1  C   UNL     1       1.474   9.574  19.257  0.00  0.00    +0.000 C 
ATOM      2  C   UNL     1       1.813  10.437  18.041  0.00  0.00    +0.000 C 
ENDROOT
BRANCH   1  12
ATOM      3  C   UNL     1       4.774   4.632  17.022  0.00  0.00    +0.000 A 
ATOM      4  C   UNL     1       4.266   3.698  17.923  0.00  0.00    +0.000 A 
ATOM      5  C   UNL     1       3.415   4.097  18.952  0.00  0.00    +0.000 A 
ATOM      6  C   UNL     1       2.907   3.051  19.907  0.00  0.00    +0.000 C 
ATOM      7  C   UNL     1       3.038   5.455  19.051  0.00  0.00    +0.000 A 
ATOM      8  C   UNL     1       3.492   6.396  18.088  0.00  0.00    +0.000 A 
ATOM      9  C   UNL     1       4.404   5.988  17.081  0.00  0.00    +0.000 A 
ATOM     10  C   UNL     1       4.980   6.938  16.063  0.00  0.00    +0.000 C 
ATOM     11  C   UNL     1       3.013   7.839  18.149  0.00  0.00    +0.000 C 
ATOM     12  C   UNL     1       1.787   8.074  19.053  0.00  0.00    +0.000 C 
ATOM     13  C   UNL     1       2.041   7.366  20.389  0.00  0.00    +0.000 C 
ATOM     14  C   UNL     1       2.092   5.865  20.158  0.00  0.00    +0.000 C 
BRANCH   3  15
ATOM     15  O   UNL     1       5.545   4.182  15.928  0.00  0.00    +0.000 OA
BRANCH  15  17
ATOM     16  C   UNL     1       7.432   4.486  17.296  0.00  0.00    +0.000 C 
ATOM     17  C   UNL     1       6.893   4.526  15.898  0.00  0.00    +0.000 C 
ATOM     18  O   UNL     1       7.547   4.859  14.919  0.00  0.00    +0.000 OA
ENDBRANCH  15  17
ENDBRANCH   3  15
ENDBRANCH   1  12
BRANCH   1  19
ATOM     19  C   UNL     1      -0.010   9.736  19.529  0.00  0.00    +0.000 C 
ATOM     20  O   UNL     1      -0.537   9.537  20.617  0.00  0.00    +0.000 OA
BRANCH  19  21
ATOM     21  O   UNL     1      -0.656  10.163  18.411  0.00  0.00    +0.000 OA
BRANCH  21  22
ATOM     22  C   UNL     1      -1.784  11.020  18.653  0.00  0.00    +0.000 C 
BRANCH  22  23
ATOM     23  C   UNL     1      -1.369  12.408  18.967  0.00  0.00    +0.000 A 
ATOM     24  C   UNL     1      -0.659  13.303  18.199  0.00  0.00    +0.000 A 
ATOM     25  N   UNL     1      -0.472  14.399  19.006  0.00  0.00    +0.000 N 
ATOM     26  N   UNL     1      -1.058  14.171  20.202  0.00  0.00    +0.000 NA
ATOM     27  N   UNL     1      -1.616  12.970  20.185  0.00  0.00    +0.000 NA
BRANCH  25  28
ATOM     28  C   UNL     1       0.161  15.626  18.682  0.00  0.00    +0.000 A 
ATOM     29  C   UNL     1      -0.646  16.719  18.305  0.00  0.00    +0.000 A 
ATOM     30  C   UNL     1      -0.075  17.966  18.046  0.00  0.00    +0.000 A 
ATOM     31  C   UNL     1       1.300  18.136  18.139  0.00  0.00    +0.000 A 
ATOM     32  C   UNL     1       2.112  17.053  18.480  0.00  0.00    +0.000 A 
ATOM     33  C   UNL     1       1.558  15.790  18.756  0.00  0.00    +0.000 A 
BRANCH  33  34
ATOM     34  C   UNL     1       2.489  14.725  19.018  0.00  0.00    +0.000 C 
ATOM     35  N   UNL     1       3.289  13.922  19.274  0.00  0.00    +0.000 NA
ENDBRANCH  33  34
ENDBRANCH  25  28
ENDBRANCH  22  23
ENDBRANCH  21  22
ENDBRANCH  19  21
ENDBRANCH   1  19
TORSDOF 9
ENDMDL
MODEL 9
REMARK VINA RESULT:      -7.6      4.069     10.891
REMARK  Name = 
REMARK  13 active torsions:
REMARK  status: ('A' for Active; 'I' for Inactive)
REMARK    1  A    between atoms: C_1  and  C_2
REMARK    2  A    between atoms: C_2  and  O_4
REMARK    3  A    between atoms: O_4  and  C_5
REMARK    4  A    between atoms: C_7  and  C_8
REMARK    5  A    between atoms: C_11  and  C_12
REMARK    6  A    between atoms: C_14  and  C_15
REMARK    7  A    between atoms: C_15  and  C_16
REMARK    8  A    between atoms: C_15  and  C_17
REMARK    9  A    between atoms: C_17  and  O_19
REMARK   10  A    between atoms: O_19  and  C_20
REMARK   11  A    between atoms: C_20  and  C_21
REMARK   12  A    between atoms: N_23  and  C_24
REMARK   13  A    between atoms: C_29  and  C_30
REMARK                            x       y       z     vdW  Elec       q    Type
REMARK                         _______ _______ _______ _____ _____    ______ ____
ROOT
ATOM      1  C   UNL     1       0.357   9.532  20.898  0.00  0.00    +0.000 C 
ATOM      2  C   UNL     1       0.197   9.219  22.387  0.00  0.00    +0.000 C 
ENDROOT
BRANCH   1  12
ATOM      3  C   UNL     1       3.382   4.189  19.282  0.00  0.00    +0.000 A 
ATOM      4  C   UNL     1       4.085   4.737  18.211  0.00  0.00    +0.000 A 
ATOM      5  C   UNL     1       3.855   6.053  17.813  0.00  0.00    +0.000 A 
ATOM      6  C   UNL     1       4.630   6.593  16.641  0.00  0.00    +0.000 C 
ATOM      7  C   UNL     1       2.927   6.841  18.529  0.00  0.00    +0.000 A 
ATOM      8  C   UNL     1       2.265   6.309  19.669  0.00  0.00    +0.000 A 
ATOM      9  C   UNL     1       2.465   4.952  20.029  0.00  0.00    +0.000 A 
ATOM     10  C   UNL     1       1.753   4.296  21.184  0.00  0.00    +0.000 C 
ATOM     11  C   UNL     1       1.334   7.190  20.489  0.00  0.00    +0.000 C 
ATOM     12  C   UNL     1       1.464   8.700  20.212  0.00  0.00    +0.000 C 
ATOM     13  C   UNL     1       1.461   8.905  18.692  0.00  0.00    +0.000 C 
ATOM     14  C   UNL     1       2.710   8.275  18.100  0.00  0.00    +0.000 C 
BRANCH   3  15
ATOM     15  O   UNL     1       3.715   2.891  19.730  0.00  0.00    +0.000 OA
BRANCH  15  17
ATOM     16  C   UNL     1       1.887   1.743  18.798  0.00  0.00    +0.000 C 
ATOM     17  C   UNL     1       3.379   1.816  18.912  0.00  0.00    +0.000 C 
ATOM     18  O   UNL     1       4.148   1.015  18.396  0.00  0.00    +0.000 OA
ENDBRANCH  15  17
ENDBRANCH   3  15
ENDBRANCH   1  12
BRANCH   1  19
ATOM     19  C   UNL     1       0.699  11.005  20.777  0.00  0.00    +0.000 C 
ATOM     20  O   UNL     1       1.431  11.608  21.553  0.00  0.00    +0.000 OA
BRANCH  19  21
ATOM     21  O   UNL     1       0.109  11.542  19.676  0.00  0.00    +0.000 OA
BRANCH  21  22
ATOM     22  C   UNL     1      -0.459  12.847  19.870  0.00  0.00    +0.000 C 
BRANCH  22  23
ATOM     23  C   UNL     1      -1.941  12.811  19.877  0.00  0.00    +0.000 A 
ATOM     24  C   UNL     1      -2.828  13.500  20.672  0.00  0.00    +0.000 A 
ATOM     25  N   UNL     1      -4.068  13.022  20.325  0.00  0.00    +0.000 N 
ATOM     26  N   UNL     1      -3.926  12.095  19.352  0.00  0.00    +0.000 NA
ATOM     27  N   UNL     1      -2.640  11.968  19.064  0.00  0.00    +0.000 NA
BRANCH  25  28
ATOM     28  C   UNL     1      -5.334  13.434  20.815  0.00  0.00    +0.000 A 
ATOM     29  C   UNL     1      -6.227  14.062  19.923  0.00  0.00    +0.000 A 
ATOM     30  C   UNL     1      -7.509  14.422  20.339  0.00  0.00    +0.000 A 
ATOM     31  C   UNL     1      -7.912  14.179  21.646  0.00  0.00    +0.000 A 
ATOM     32  C   UNL     1      -7.025  13.587  22.547  0.00  0.00    +0.000 A 
ATOM     33  C   UNL     1      -5.731  13.206  22.146  0.00  0.00    +0.000 A 
BRANCH  33  34
ATOM     34  C   UNL     1      -4.872  12.678  23.173  0.00  0.00    +0.000 C 
ATOM     35  N   UNL     1      -4.118  12.307  23.974  0.00  0.00    +0.000 NA
ENDBRANCH  33  34
ENDBRANCH  25  28
ENDBRANCH  22  23
ENDBRANCH  21  22
ENDBRANCH  19  21
ENDBRANCH   1  19
TORSDOF 9
ENDMDL
