MODEL 1
REMARK VINA RESULT:      -8.6      0.000      0.000
REMARK  Name = 
REMARK  4 active torsions:
REMARK  status: ('A' for Active; 'I' for Inactive)
REMARK    1  A    between atoms: N_4  and  C_5
REMARK    2  A    between atoms: C_10  and  C_11
REMARK    3  A    between atoms: N_22  and  C_23
REMARK    4  A    between atoms: C_23  and  C_24
REMARK                            x       y       z     vdW  Elec       q    Type
REMARK                         _______ _______ _______ _____ _____    ______ ____
ROOT
ATOM      1  C   UNL     1       2.610   7.682  18.483  0.00  0.00    +0.000 A 
ATOM      2  C   UNL     1       2.073   8.465  17.441  0.00  0.00    +0.000 A 
ATOM      3  C   UNL     1       0.969   9.221  17.636  0.00  0.00    +0.000 A 
ATOM      4  C   UNL     1       1.189   9.979  18.748  0.00  0.00    +0.000 A 
ATOM      5  C   UNL     1       1.569  11.357  18.580  0.00  0.00    +0.000 A 
ATOM      6  N   UNL     1       2.217  11.953  17.534  0.00  0.00    +0.000 N 
ATOM      7  N   UNL     1       2.338  13.278  17.719  0.00  0.00    +0.000 NA
ATOM      8  C   UNL     1       1.935  13.451  18.991  0.00  0.00    +0.000 A 
ATOM      9  C   UNL     1       1.644  12.242  19.628  0.00  0.00    +0.000 A 
ATOM     10  C   UNL     1       1.348  11.769  20.947  0.00  0.00    +0.000 A 
ATOM     11  O   UNL     1       1.132  12.552  21.863  0.00  0.00    +0.000 OA
ATOM     12  N   UNL     1       1.369  10.323  21.126  0.00  0.00    +0.000 N 
ATOM     13  C   UNL     1       1.512   9.412  19.962  0.00  0.00    +0.000 A 
ATOM     14  C   UNL     1       2.186   8.144  19.814  0.00  0.00    +0.000 A 
ATOM     15  H   UNL     1       2.621  11.510  16.715  0.00  0.00    +0.000 HD
ENDROOT
BRANCH   1  21
ATOM     16  C   UNL     1       3.581   5.186  18.179  0.00  0.00    +0.000 A 
ATOM     17  N   UNL     1       4.561   4.358  17.702  0.00  0.00    +0.000 NA
ATOM     18  C   UNL     1       5.574   4.858  16.973  0.00  0.00    +0.000 A 
ATOM     19  C   UNL     1       5.663   6.173  16.645  0.00  0.00    +0.000 A 
ATOM     20  C   UNL     1       4.649   7.006  17.108  0.00  0.00    +0.000 A 
ATOM     21  C   UNL     1       3.562   6.582  17.947  0.00  0.00    +0.000 A 
BRANCH  16  25
ATOM     22  O   UNL     1       0.159   1.945  18.424  0.00  0.00    +0.000 OA
ATOM     23  C   UNL     1       0.922   2.727  18.974  0.00  0.00    +0.000 C 
ATOM     24  C   UNL     1       2.226   3.230  18.321  0.00  0.00    +0.000 C 
ATOM     25  N   UNL     1       2.546   4.572  18.861  0.00  0.00    +0.000 N 
ATOM     26  C   UNL     1       2.779   4.480  20.306  0.00  0.00    +0.000 C 
ATOM     27  C   UNL     1       1.386   4.253  20.904  0.00  0.00    +0.000 C 
ATOM     28  N   UNL     1       0.669   3.154  20.263  0.00  0.00    +0.000 N 
ATOM     29  H   UNL     1      -0.249   2.893  20.595  0.00  0.00    +0.000 HD
ENDBRANCH  16  25
ENDBRANCH   1  21
BRANCH  12  30
ATOM     30  C   UNL     1       0.724   9.928  22.397  0.00  0.00    +0.000 C 
BRANCH  30  31
ATOM     31  C   UNL     1      -0.799   9.616  22.310  0.00  0.00    +0.000 C 
ATOM     32  F   UNL     1      -1.495  10.068  23.379  0.00  0.00    +0.000 F 
ATOM     33  F   UNL     1      -1.346  10.212  21.215  0.00  0.00    +0.000 F 
ATOM     34  F   UNL     1      -1.058   8.291  22.180  0.00  0.00    +0.000 F 
ENDBRANCH  30  31
ENDBRANCH  12  30
TORSDOF 4
ENDMDL
MODEL 2
REMARK VINA RESULT:      -8.4      0.938      1.056
REMARK  Name = 
REMARK  4 active torsions:
REMARK  status: ('A' for Active; 'I' for Inactive)
REMARK    1  A    between atoms: N_4  and  C_5
REMARK    2  A    between atoms: C_10  and  C_11
REMARK    3  A    between atoms: N_22  and  C_23
REMARK    4  A    between atoms: C_23  and  C_24
REMARK                            x       y       z     vdW  Elec       q    Type
REMARK                         _______ _______ _______ _____ _____    ______ ____
ROOT
ATOM      1  C   UNL     1       2.780   7.402  18.622  0.00  0.00    +0.000 A 
ATOM      2  C   UNL     1       2.647   8.205  17.470  0.00  0.00    +0.000 A 
ATOM      3  C   UNL     1       1.534   8.942  17.260  0.00  0.00    +0.000 A 
ATOM      4  C   UNL     1       1.316   9.675  18.388  0.00  0.00    +0.000 A 
ATOM      5  C   UNL     1       1.704  11.062  18.396  0.00  0.00    +0.000 A 
ATOM      6  N   UNL     1       2.677  11.691  17.672  0.00  0.00    +0.000 N 
ATOM      7  N   UNL     1       2.696  13.012  17.912  0.00  0.00    +0.000 NA
ATOM      8  C   UNL     1       1.851  13.149  18.950  0.00  0.00    +0.000 A 
ATOM      9  C   UNL     1       1.372  11.922  19.414  0.00  0.00    +0.000 A 
ATOM     10  C   UNL     1       0.622  11.414  20.524  0.00  0.00    +0.000 A 
ATOM     11  O   UNL     1       0.070  12.173  21.311  0.00  0.00    +0.000 OA
ATOM     12  N   UNL     1       0.605   9.964  20.672  0.00  0.00    +0.000 N 
ATOM     13  C   UNL     1       1.183   9.084  19.625  0.00  0.00    +0.000 A 
ATOM     14  C   UNL     1       1.889   7.827  19.713  0.00  0.00    +0.000 A 
ATOM     15  H   UNL     1       3.362  11.272  17.051  0.00  0.00    +0.000 HD
ENDROOT
BRANCH   1  21
ATOM     16  C   UNL     1       3.922   4.973  18.860  0.00  0.00    +0.000 A 
ATOM     17  N   UNL     1       5.026   4.175  18.720  0.00  0.00    +0.000 NA
ATOM     18  C   UNL     1       6.151   4.668  18.172  0.00  0.00    +0.000 A 
ATOM     19  C   UNL     1       6.244   5.941  17.706  0.00  0.00    +0.000 A 
ATOM     20  C   UNL     1       5.110   6.737  17.825  0.00  0.00    +0.000 A 
ATOM     21  C   UNL     1       3.884   6.327  18.453  0.00  0.00    +0.000 A 
BRANCH  16  25
ATOM     22  O   UNL     1       0.210   2.101  18.366  0.00  0.00    +0.000 OA
ATOM     23  C   UNL     1       1.003   2.698  19.081  0.00  0.00    +0.000 C 
ATOM     24  C   UNL     1       2.388   3.168  18.591  0.00  0.00    +0.000 C 
ATOM     25  N   UNL     1       2.792   4.361  19.373  0.00  0.00    +0.000 N 
ATOM     26  C   UNL     1       2.919   4.003  20.789  0.00  0.00    +0.000 C 
ATOM     27  C   UNL     1       1.474   3.820  21.268  0.00  0.00    +0.000 C 
ATOM     28  N   UNL     1       0.704   2.924  20.410  0.00  0.00    +0.000 N 
ATOM     29  H   UNL     1      -0.253   2.706  20.645  0.00  0.00    +0.000 HD
ENDBRANCH  16  25
ENDBRANCH   1  21
BRANCH  12  30
ATOM     30  C   UNL     1      -0.453   9.532  21.611  0.00  0.00    +0.000 C 
BRANCH  30  31
ATOM     31  C   UNL     1      -0.038   9.474  23.111  0.00  0.00    +0.000 C 
ATOM     32  F   UNL     1       1.303   9.489  23.290  0.00  0.00    +0.000 F 
ATOM     33  F   UNL     1      -0.529  10.551  23.782  0.00  0.00    +0.000 F 
ATOM     34  F   UNL     1      -0.527   8.383  23.750  0.00  0.00    +0.000 F 
ENDBRANCH  30  31
ENDBRANCH  12  30
TORSDOF 4
ENDMDL
MODEL 3
REMARK VINA RESULT:      -7.7      5.786      9.392
REMARK  Name = 
REMARK  4 active torsions:
REMARK  status: ('A' for Active; 'I' for Inactive)
REMARK    1  A    between atoms: N_4  and  C_5
REMARK    2  A    between atoms: C_10  and  C_11
REMARK    3  A    between atoms: N_22  and  C_23
REMARK    4  A    between atoms: C_23  and  C_24
REMARK                            x       y       z     vdW  Elec       q    Type
REMARK                         _______ _______ _______ _____ _____    ______ ____
ROOT
ATOM      1  C   UNL     1      -4.030  12.892  21.740  0.00  0.00    +0.000 A 
ATOM      2  C   UNL     1      -3.152  12.844  22.843  0.00  0.00    +0.000 A 
ATOM      3  C   UNL     1      -1.984  12.168  22.774  0.00  0.00    +0.000 A 
ATOM      4  C   UNL     1      -1.333  12.597  21.656  0.00  0.00    +0.000 A 
ATOM      5  C   UNL     1      -0.267  13.553  21.803  0.00  0.00    +0.000 A 
ATOM      6  N   UNL     1      -0.070  14.484  22.784  0.00  0.00    +0.000 N 
ATOM      7  N   UNL     1       1.080  15.155  22.605  0.00  0.00    +0.000 NA
ATOM      8  C   UNL     1       1.483  14.757  21.385  0.00  0.00    +0.000 A 
ATOM      9  C   UNL     1       0.557  13.914  20.765  0.00  0.00    +0.000 A 
ATOM     10  C   UNL     1       0.335  13.328  19.477  0.00  0.00    +0.000 A 
ATOM     11  O   UNL     1       1.187  13.396  18.599  0.00  0.00    +0.000 OA
ATOM     12  N   UNL     1      -0.965  12.701  19.277  0.00  0.00    +0.000 N 
ATOM     13  C   UNL     1      -1.913  12.534  20.408  0.00  0.00    +0.000 A 
ATOM     14  C   UNL     1      -3.355  12.598  20.467  0.00  0.00    +0.000 A 
ATOM     15  H   UNL     1      -0.691  14.725  23.550  0.00  0.00    +0.000 HD
ENDROOT
BRANCH   1  21
ATOM     16  C   UNL     1      -6.724  12.898  21.673  0.00  0.00    +0.000 A 
ATOM     17  N   UNL     1      -7.908  13.446  22.089  0.00  0.00    +0.000 NA
ATOM     18  C   UNL     1      -7.912  14.432  23.004  0.00  0.00    +0.000 A 
ATOM     19  C   UNL     1      -6.777  14.904  23.579  0.00  0.00    +0.000 A 
ATOM     20  C   UNL     1      -5.579  14.323  23.175  0.00  0.00    +0.000 A 
ATOM     21  C   UNL     1      -5.462  13.313  22.160  0.00  0.00    +0.000 A 
BRANCH  16  25
ATOM     22  O   UNL     1      -7.871   8.428  20.685  0.00  0.00    +0.000 OA
ATOM     23  C   UNL     1      -7.631   9.569  20.315  0.00  0.00    +0.000 C 
ATOM     24  C   UNL     1      -7.764  10.797  21.239  0.00  0.00    +0.000 C 
ATOM     25  N   UNL     1      -6.822  11.846  20.781  0.00  0.00    +0.000 N 
ATOM     26  C   UNL     1      -7.178  12.269  19.423  0.00  0.00    +0.000 C 
ATOM     27  C   UNL     1      -6.758  11.094  18.533  0.00  0.00    +0.000 C 
ATOM     28  N   UNL     1      -7.283   9.814  19.002  0.00  0.00    +0.000 N 
ATOM     29  H   UNL     1      -7.094   8.973  18.476  0.00  0.00    +0.000 HD
ENDBRANCH  16  25
ENDBRANCH   1  21
BRANCH  12  30
ATOM     30  C   UNL     1      -0.968  11.840  18.074  0.00  0.00    +0.000 C 
BRANCH  30  31
ATOM     31  C   UNL     1      -1.022  10.307  18.344  0.00  0.00    +0.000 C 
ATOM     32  F   UNL     1      -0.446   9.576  17.362  0.00  0.00    +0.000 F 
ATOM     33  F   UNL     1      -0.357  10.002  19.492  0.00  0.00    +0.000 F 
ATOM     34  F   UNL     1      -2.286   9.847  18.513  0.00  0.00    +0.000 F 
ENDBRANCH  30  31
ENDBRANCH  12  30
TORSDOF 4
ENDMDL
MODEL 4
REMARK VINA RESULT:      -7.7      1.308      1.602
REMARK  Name = 
REMARK  4 active torsions:
REMARK  status: ('A' for Active; 'I' for Inactive)
REMARK    1  A    between atoms: N_4  and  C_5
REMARK    2  A    between atoms: C_10  and  C_11
REMARK    3  A    between atoms: N_22  and  C_23
REMARK    4  A    between atoms: C_23  and  C_24
REMARK                            x       y       z     vdW  Elec       q    Type
REMARK                         _______ _______ _______ _____ _____    ______ ____
ROOT
ATOM      1  C   UNL     1       2.961   7.213  18.700  0.00  0.00    +0.000 A 
ATOM      2  C   UNL     1       2.779   7.969  17.524  0.00  0.00    +0.000 A 
ATOM      3  C   UNL     1       1.630   8.643  17.301  0.00  0.00    +0.000 A 
ATOM      4  C   UNL     1       1.384   9.401  18.406  0.00  0.00    +0.000 A 
ATOM      5  C   UNL     1       1.703  10.805  18.366  0.00  0.00    +0.000 A 
ATOM      6  N   UNL     1       2.638  11.457  17.612  0.00  0.00    +0.000 N 
ATOM      7  N   UNL     1       2.594  12.785  17.809  0.00  0.00    +0.000 NA
ATOM      8  C   UNL     1       1.752  12.915  18.850  0.00  0.00    +0.000 A 
ATOM      9  C   UNL     1       1.337  11.681  19.358  0.00  0.00    +0.000 A 
ATOM     10  C   UNL     1       0.623  11.174  20.492  0.00  0.00    +0.000 A 
ATOM     11  O   UNL     1       0.040  11.929  21.259  0.00  0.00    +0.000 OA
ATOM     12  N   UNL     1       0.678   9.730  20.687  0.00  0.00    +0.000 N 
ATOM     13  C   UNL     1       1.291   8.845  19.664  0.00  0.00    +0.000 A 
ATOM     14  C   UNL     1       2.059   7.629  19.785  0.00  0.00    +0.000 A 
ATOM     15  H   UNL     1       3.338  11.052  16.998  0.00  0.00    +0.000 HD
ENDROOT
BRANCH   1  21
ATOM     16  C   UNL     1       4.172   4.811  18.876  0.00  0.00    +0.000 A 
ATOM     17  N   UNL     1       5.314   4.062  18.777  0.00  0.00    +0.000 NA
ATOM     18  C   UNL     1       6.460   4.627  18.358  0.00  0.00    +0.000 A 
ATOM     19  C   UNL     1       6.541   5.930  17.984  0.00  0.00    +0.000 A 
ATOM     20  C   UNL     1       5.372   6.680  18.059  0.00  0.00    +0.000 A 
ATOM     21  C   UNL     1       4.116   6.188  18.555  0.00  0.00    +0.000 A 
BRANCH  16  25
ATOM     22  O   UNL     1       1.404   2.932  22.204  0.00  0.00    +0.000 OA
ATOM     23  C   UNL     1       1.559   3.357  21.067  0.00  0.00    +0.000 C 
ATOM     24  C   UNL     1       2.691   4.331  20.681  0.00  0.00    +0.000 C 
ATOM     25  N   UNL     1       3.029   4.130  19.252  0.00  0.00    +0.000 N 
ATOM     26  C   UNL     1       1.865   4.447  18.420  0.00  0.00    +0.000 C 
ATOM     27  C   UNL     1       0.897   3.282  18.655  0.00  0.00    +0.000 C 
ATOM     28  N   UNL     1       0.664   3.018  20.072  0.00  0.00    +0.000 N 
ATOM     29  H   UNL     1       0.020   2.290  20.347  0.00  0.00    +0.000 HD
ENDBRANCH  16  25
ENDBRANCH   1  21
BRANCH  12  30
ATOM     30  C   UNL     1      -0.349   9.277  21.649  0.00  0.00    +0.000 C 
BRANCH  30  31
ATOM     31  C   UNL     1       0.014   9.456  23.153  0.00  0.00    +0.000 C 
ATOM     32  F   UNL     1       1.347   9.544  23.370  0.00  0.00    +0.000 F 
ATOM     33  F   UNL     1      -0.532  10.603  23.642  0.00  0.00    +0.000 F 
ATOM     34  F   UNL     1      -0.465   8.455  23.932  0.00  0.00    +0.000 F 
ENDBRANCH  30  31
ENDBRANCH  12  30
TORSDOF 4
ENDMDL
MODEL 5
REMARK VINA RESULT:      -7.6      0.919      1.386
REMARK  Name = 
REMARK  4 active torsions:
REMARK  status: ('A' for Active; 'I' for Inactive)
REMARK    1  A    between atoms: N_4  and  C_5
REMARK    2  A    between atoms: C_10  and  C_11
REMARK    3  A    between atoms: N_22  and  C_23
REMARK    4  A    between atoms: C_23  and  C_24
REMARK                            x       y       z     vdW  Elec       q    Type
REMARK                         _______ _______ _______ _____ _____    ______ ____
ROOT
ATOM      1  C   UNL     1       2.838   7.368  18.445  0.00  0.00    +0.000 A 
ATOM      2  C   UNL     1       2.275   8.122  17.395  0.00  0.00    +0.000 A 
ATOM      3  C   UNL     1       1.136   8.825  17.576  0.00  0.00    +0.000 A 
ATOM      4  C   UNL     1       1.308   9.596  18.686  0.00  0.00    +0.000 A 
ATOM      5  C   UNL     1       1.625  10.990  18.517  0.00  0.00    +0.000 A 
ATOM      6  N   UNL     1       2.254  11.613  17.475  0.00  0.00    +0.000 N 
ATOM      7  N   UNL     1       2.312  12.943  17.656  0.00  0.00    +0.000 NA
ATOM      8  C   UNL     1       1.888  13.101  18.923  0.00  0.00    +0.000 A 
ATOM      9  C   UNL     1       1.648  11.881  19.562  0.00  0.00    +0.000 A 
ATOM     10  C   UNL     1       1.361  11.400  20.880  0.00  0.00    +0.000 A 
ATOM     11  O   UNL     1       1.099  12.176  21.791  0.00  0.00    +0.000 OA
ATOM     12  N   UNL     1       1.447   9.957  21.065  0.00  0.00    +0.000 N 
ATOM     13  C   UNL     1       1.645   9.050  19.906  0.00  0.00    +0.000 A 
ATOM     14  C   UNL     1       2.379   7.814  19.770  0.00  0.00    +0.000 A 
ATOM     15  H   UNL     1       2.688  11.186  16.662  0.00  0.00    +0.000 HD
ENDROOT
BRANCH   1  21
ATOM     16  C   UNL     1       3.942   4.924  18.179  0.00  0.00    +0.000 A 
ATOM     17  N   UNL     1       4.963   4.141  17.711  0.00  0.00    +0.000 NA
ATOM     18  C   UNL     1       5.945   4.683  16.968  0.00  0.00    +0.000 A 
ATOM     19  C   UNL     1       5.960   5.995  16.618  0.00  0.00    +0.000 A 
ATOM     20  C   UNL     1       4.905   6.779  17.072  0.00  0.00    +0.000 A 
ATOM     21  C   UNL     1       3.846   6.312  17.923  0.00  0.00    +0.000 A 
BRANCH  16  25
ATOM     22  O   UNL     1       2.118   3.320  22.226  0.00  0.00    +0.000 OA
ATOM     23  C   UNL     1       1.981   3.643  21.053  0.00  0.00    +0.000 C 
ATOM     24  C   UNL     1       2.956   4.590  20.324  0.00  0.00    +0.000 C 
ATOM     25  N   UNL     1       2.945   4.267  18.877  0.00  0.00    +0.000 N 
ATOM     26  C   UNL     1       1.605   4.498  18.330  0.00  0.00    +0.000 C 
ATOM     27  C   UNL     1       0.759   3.348  18.889  0.00  0.00    +0.000 C 
ATOM     28  N   UNL     1       0.884   3.209  20.338  0.00  0.00    +0.000 N 
ATOM     29  H   UNL     1       0.348   2.502  20.821  0.00  0.00    +0.000 HD
ENDBRANCH  16  25
ENDBRANCH   1  21
BRANCH  12  30
ATOM     30  C   UNL     1       0.809   9.537  22.331  0.00  0.00    +0.000 C 
BRANCH  30  31
ATOM     31  C   UNL     1      -0.744   9.423  22.295  0.00  0.00    +0.000 C 
ATOM     32  F   UNL     1      -1.294  10.021  21.213  0.00  0.00    +0.000 F 
ATOM     33  F   UNL     1      -1.125   8.117  22.249  0.00  0.00    +0.000 F 
ATOM     34  F   UNL     1      -1.335   9.945  23.398  0.00  0.00    +0.000 F 
ENDBRANCH  30  31
ENDBRANCH  12  30
TORSDOF 4
ENDMDL
MODEL 6
REMARK VINA RESULT:      -7.6      5.769      9.388
REMARK  Name = 
REMARK  4 active torsions:
REMARK  status: ('A' for Active; 'I' for Inactive)
REMARK    1  A    between atoms: N_4  and  C_5
REMARK    2  A    between atoms: C_10  and  C_11
REMARK    3  A    between atoms: N_22  and  C_23
REMARK    4  A    between atoms: C_23  and  C_24
REMARK                            x       y       z     vdW  Elec       q    Type
REMARK                         _______ _______ _______ _____ _____    ______ ____
ROOT
ATOM      1  C   UNL     1      -4.040  12.936  21.654  0.00  0.00    +0.000 A 
ATOM      2  C   UNL     1      -3.270  13.170  22.812  0.00  0.00    +0.000 A 
ATOM      3  C   UNL     1      -2.164  12.439  23.073  0.00  0.00    +0.000 A 
ATOM      4  C   UNL     1      -1.383  12.474  21.957  0.00  0.00    +0.000 A 
ATOM      5  C   UNL     1      -0.254  13.367  21.933  0.00  0.00    +0.000 A 
ATOM      6  N   UNL     1      -0.063  14.537  22.613  0.00  0.00    +0.000 N 
ATOM      7  N   UNL     1       1.153  15.055  22.374  0.00  0.00    +0.000 NA
ATOM      8  C   UNL     1       1.625  14.287  21.375  0.00  0.00    +0.000 A 
ATOM      9  C   UNL     1       0.687  13.351  20.932  0.00  0.00    +0.000 A 
ATOM     10  C   UNL     1       0.528  12.419  19.856  0.00  0.00    +0.000 A 
ATOM     11  O   UNL     1       1.455  12.171  19.096  0.00  0.00    +0.000 OA
ATOM     12  N   UNL     1      -0.800  11.837  19.707  0.00  0.00    +0.000 N 
ATOM     13  C   UNL     1      -1.854  12.072  20.726  0.00  0.00    +0.000 A 
ATOM     14  C   UNL     1      -3.284  12.234  20.605  0.00  0.00    +0.000 A 
ATOM     15  H   UNL     1      -0.725  15.032  23.203  0.00  0.00    +0.000 HD
ENDROOT
BRANCH   1  21
ATOM     16  C   UNL     1      -6.691  13.128  21.212  0.00  0.00    +0.000 A 
ATOM     17  N   UNL     1      -7.853  13.842  21.334  0.00  0.00    +0.000 NA
ATOM     18  C   UNL     1      -7.866  15.003  22.014  0.00  0.00    +0.000 A 
ATOM     19  C   UNL     1      -6.765  15.503  22.632  0.00  0.00    +0.000 A 
ATOM     20  C   UNL     1      -5.594  14.759  22.528  0.00  0.00    +0.000 A 
ATOM     21  C   UNL     1      -5.461  13.545  21.773  0.00  0.00    +0.000 A 
BRANCH  16  25
ATOM     22  O   UNL     1      -7.766   8.533  21.180  0.00  0.00    +0.000 OA
ATOM     23  C   UNL     1      -7.561   9.580  20.580  0.00  0.00    +0.000 C 
ATOM     24  C   UNL     1      -7.697  10.967  21.241  0.00  0.00    +0.000 C 
ATOM     25  N   UNL     1      -6.790  11.916  20.553  0.00  0.00    +0.000 N 
ATOM     26  C   UNL     1      -7.190  12.051  19.149  0.00  0.00    +0.000 C 
ATOM     27  C   UNL     1      -6.766  10.727  18.502  0.00  0.00    +0.000 C 
ATOM     28  N   UNL     1      -7.252   9.560  19.235  0.00  0.00    +0.000 N 
ATOM     29  H   UNL     1      -7.058   8.633  18.885  0.00  0.00    +0.000 HD
ENDBRANCH  16  25
ENDBRANCH   1  21
BRANCH  12  30
ATOM     30  C   UNL     1      -0.773  10.656  18.817  0.00  0.00    +0.000 C 
BRANCH  30  31
ATOM     31  C   UNL     1      -1.880  10.614  17.722  0.00  0.00    +0.000 C 
ATOM     32  F   UNL     1      -2.187  11.838  17.232  0.00  0.00    +0.000 F 
ATOM     33  F   UNL     1      -1.473   9.866  16.661  0.00  0.00    +0.000 F 
ATOM     34  F   UNL     1      -3.031  10.046  18.160  0.00  0.00    +0.000 F 
ENDBRANCH  30  31
ENDBRANCH  12  30
TORSDOF 4
ENDMDL
MODEL 7
REMARK VINA RESULT:      -7.1      4.941      8.141
REMARK  Name = 
REMARK  4 active torsions:
REMARK  status: ('A' for Active; 'I' for Inactive)
REMARK    1  A    between atoms: N_4  and  C_5
REMARK    2  A    between atoms: C_10  and  C_11
REMARK    3  A    between atoms: N_22  and  C_23
REMARK    4  A    between atoms: C_23  and  C_24
REMARK                            x       y       z     vdW  Elec       q    Type
REMARK                         _______ _______ _______ _____ _____    ______ ____
ROOT
ATOM      1  C   UNL     1      -1.831  11.566  20.778  0.00  0.00    +0.000 A 
ATOM      2  C   UNL     1      -2.501  12.457  21.641  0.00  0.00    +0.000 A 
ATOM      3  C   UNL     1      -3.332  13.404  21.155  0.00  0.00    +0.000 A 
ATOM      4  C   UNL     1      -4.214  12.781  20.323  0.00  0.00    +0.000 A 
ATOM      5  C   UNL     1      -5.537  12.492  20.812  0.00  0.00    +0.000 A 
ATOM      6  N   UNL     1      -5.959  12.288  22.096  0.00  0.00    +0.000 N 
ATOM      7  N   UNL     1      -7.288  12.106  22.157  0.00  0.00    +0.000 NA
ATOM      8  C   UNL     1      -7.645  11.998  20.864  0.00  0.00    +0.000 A 
ATOM      9  C   UNL     1      -6.544  12.027  20.003  0.00  0.00    +0.000 A 
ATOM     10  C   UNL     1      -6.262  11.802  18.616  0.00  0.00    +0.000 A 
ATOM     11  O   UNL     1      -7.168  11.655  17.805  0.00  0.00    +0.000 OA
ATOM     12  N   UNL     1      -4.852  11.715  18.259  0.00  0.00    +0.000 N 
ATOM     13  C   UNL     1      -3.793  12.023  19.253  0.00  0.00    +0.000 A 
ATOM     14  C   UNL     1      -2.482  11.454  19.464  0.00  0.00    +0.000 A 
ATOM     15  H   UNL     1      -5.393  12.223  22.936  0.00  0.00    +0.000 HD
ENDROOT
BRANCH   1  21
ATOM     16  C   UNL     1       0.709  10.698  21.031  0.00  0.00    +0.000 A 
ATOM     17  N   UNL     1       1.640   9.982  21.733  0.00  0.00    +0.000 NA
ATOM     18  C   UNL     1       1.312   9.414  22.907  0.00  0.00    +0.000 A 
ATOM     19  C   UNL     1       0.082   9.543  23.466  0.00  0.00    +0.000 A 
ATOM     20  C   UNL     1      -0.853  10.296  22.762  0.00  0.00    +0.000 A 
ATOM     21  C   UNL     1      -0.622  10.887  21.473  0.00  0.00    +0.000 A 
BRANCH  16  25
ATOM     22  O   UNL     1       2.206  14.505  18.678  0.00  0.00    +0.000 OA
ATOM     23  C   UNL     1       2.111  13.290  18.781  0.00  0.00    +0.000 C 
ATOM     24  C   UNL     1       1.864  12.577  20.126  0.00  0.00    +0.000 C 
ATOM     25  N   UNL     1       1.156  11.301  19.869  0.00  0.00    +0.000 N 
ATOM     26  C   UNL     1       1.999  10.425  19.050  0.00  0.00    +0.000 C 
ATOM     27  C   UNL     1       1.967  11.059  17.654  0.00  0.00    +0.000 C 
ATOM     28  N   UNL     1       2.290  12.484  17.674  0.00  0.00    +0.000 N 
ATOM     29  H   UNL     1       2.328  13.001  16.807  0.00  0.00    +0.000 HD
ENDBRANCH  16  25
ENDBRANCH   1  21
BRANCH  12  30
ATOM     30  C   UNL     1      -4.659  11.831  16.797  0.00  0.00    +0.000 C 
BRANCH  30  31
ATOM     31  C   UNL     1      -3.731  10.759  16.154  0.00  0.00    +0.000 C 
ATOM     32  F   UNL     1      -4.160  10.348  14.938  0.00  0.00    +0.000 F 
ATOM     33  F   UNL     1      -2.479  11.261  15.971  0.00  0.00    +0.000 F 
ATOM     34  F   UNL     1      -3.581   9.659  16.931  0.00  0.00    +0.000 F 
ENDBRANCH  30  31
ENDBRANCH  12  30
TORSDOF 4
ENDMDL
MODEL 8
REMARK VINA RESULT:      -7.1      6.366      8.784
REMARK  Name = 
REMARK  4 active torsions:
REMARK  status: ('A' for Active; 'I' for Inactive)
REMARK    1  A    between atoms: N_4  and  C_5
REMARK    2  A    between atoms: C_10  and  C_11
REMARK    3  A    between atoms: N_22  and  C_23
REMARK    4  A    between atoms: C_23  and  C_24
REMARK                            x       y       z     vdW  Elec       q    Type
REMARK                         _______ _______ _______ _____ _____    ______ ____
ROOT
ATOM      1  C   UNL     1      -5.120  12.030  19.090  0.00  0.00    +0.000 A 
ATOM      2  C   UNL     1      -6.315  12.521  18.525  0.00  0.00    +0.000 A 
ATOM      3  C   UNL     1      -7.429  12.671  19.275  0.00  0.00    +0.000 A 
ATOM      4  C   UNL     1      -7.081  13.394  20.377  0.00  0.00    +0.000 A 
ATOM      5  C   UNL     1      -7.399  14.798  20.409  0.00  0.00    +0.000 A 
ATOM      6  N   UNL     1      -7.561  15.671  19.370  0.00  0.00    +0.000 N 
ATOM      7  N   UNL     1      -7.916  16.893  19.802  0.00  0.00    +0.000 NA
ATOM      8  C   UNL     1      -7.769  16.803  21.137  0.00  0.00    +0.000 A 
ATOM      9  C   UNL     1      -7.246  15.570  21.535  0.00  0.00    +0.000 A 
ATOM     10  C   UNL     1      -6.731  14.957  22.723  0.00  0.00    +0.000 A 
ATOM     11  O   UNL     1      -6.829  15.511  23.810  0.00  0.00    +0.000 OA
ATOM     12  N   UNL     1      -6.056  13.678  22.539  0.00  0.00    +0.000 N 
ATOM     13  C   UNL     1      -6.072  12.989  21.224  0.00  0.00    +0.000 A 
ATOM     14  C   UNL     1      -5.079  12.184  20.552  0.00  0.00    +0.000 A 
ATOM     15  H   UNL     1      -7.405  15.502  18.382  0.00  0.00    +0.000 HD
ENDROOT
BRANCH   1  21
ATOM     16  C   UNL     1      -2.737  11.314  18.054  0.00  0.00    +0.000 A 
ATOM     17  N   UNL     1      -1.992  10.949  16.964  0.00  0.00    +0.000 NA
ATOM     18  C   UNL     1      -2.584  10.767  15.770  0.00  0.00    +0.000 A 
ATOM     19  C   UNL     1      -3.923  10.897  15.588  0.00  0.00    +0.000 A 
ATOM     20  C   UNL     1      -4.679  11.241  16.704  0.00  0.00    +0.000 A 
ATOM     21  C   UNL     1      -4.136  11.520  18.005  0.00  0.00    +0.000 A 
BRANCH  16  25
ATOM     22  O   UNL     1       0.049   9.443  21.372  0.00  0.00    +0.000 OA
ATOM     23  C   UNL     1      -0.442  10.421  20.825  0.00  0.00    +0.000 C 
ATOM     24  C   UNL     1      -0.984  10.393  19.381  0.00  0.00    +0.000 C 
ATOM     25  N   UNL     1      -2.052  11.413  19.251  0.00  0.00    +0.000 N 
ATOM     26  C   UNL     1      -1.494  12.746  19.492  0.00  0.00    +0.000 C 
ATOM     27  C   UNL     1      -1.238  12.788  21.003  0.00  0.00    +0.000 C 
ATOM     28  N   UNL     1      -0.472  11.638  21.477  0.00  0.00    +0.000 N 
ATOM     29  H   UNL     1      -0.218  11.574  22.452  0.00  0.00    +0.000 HD
ENDBRANCH  16  25
ENDBRANCH   1  21
BRANCH  12  30
ATOM     30  C   UNL     1      -5.877  12.975  23.828  0.00  0.00    +0.000 C 
BRANCH  30  31
ATOM     31  C   UNL     1      -4.412  12.898  24.353  0.00  0.00    +0.000 C 
ATOM     32  F   UNL     1      -4.321  12.355  25.589  0.00  0.00    +0.000 F 
ATOM     33  F   UNL     1      -3.653  12.122  23.534  0.00  0.00    +0.000 F 
ATOM     34  F   UNL     1      -3.803  14.109  24.389  0.00  0.00    +0.000 F 
ENDBRANCH  30  31
ENDBRANCH  12  30
TORSDOF 4
ENDMDL
MODEL 9
REMARK VINA RESULT:      -7.1      5.535      8.897
REMARK  Name = 
REMARK  4 active torsions:
REMARK  status: ('A' for Active; 'I' for Inactive)
REMARK    1  A    between atoms: N_4  and  C_5
REMARK    2  A    between atoms: C_10  and  C_11
REMARK    3  A    between atoms: N_22  and  C_23
REMARK    4  A    between atoms: C_23  and  C_24
REMARK                            x       y       z     vdW  Elec       q    Type
REMARK                         _______ _______ _______ _____ _____    ______ ____
ROOT
ATOM      1  C   UNL     1      -2.174  12.371  22.616  0.00  0.00    +0.000 A 
ATOM      2  C   UNL     1      -3.127  11.934  23.559  0.00  0.00    +0.000 A 
ATOM      3  C   UNL     1      -3.860  12.820  24.269  0.00  0.00    +0.000 A 
ATOM      4  C   UNL     1      -4.422  13.686  23.379  0.00  0.00    +0.000 A 
ATOM      5  C   UNL     1      -5.802  13.502  23.014  0.00  0.00    +0.000 A 
ATOM      6  N   UNL     1      -6.550  12.358  23.010  0.00  0.00    +0.000 N 
ATOM      7  N   UNL     1      -7.824  12.602  22.662  0.00  0.00    +0.000 NA
ATOM      8  C   UNL     1      -7.794  13.884  22.255  0.00  0.00    +0.000 A 
ATOM      9  C   UNL     1      -6.502  14.416  22.264  0.00  0.00    +0.000 A 
ATOM     10  C   UNL     1      -5.825  15.594  21.812  0.00  0.00    +0.000 A 
ATOM     11  O   UNL     1      -6.451  16.556  21.385  0.00  0.00    +0.000 OA
ATOM     12  N   UNL     1      -4.368  15.548  21.851  0.00  0.00    +0.000 N 
ATOM     13  C   UNL     1      -3.659  14.412  22.491  0.00  0.00    +0.000 A 
ATOM     14  C   UNL     1      -2.419  13.748  22.160  0.00  0.00    +0.000 A 
ATOM     15  H   UNL     1      -6.239  11.408  23.190  0.00  0.00    +0.000 HD
ENDROOT
BRANCH   1  21
ATOM     16  C   UNL     1      -0.625  10.858  21.011  0.00  0.00    +0.000 A 
ATOM     17  N   UNL     1       0.195   9.773  20.854  0.00  0.00    +0.000 NA
ATOM     18  C   UNL     1       0.532   9.020  21.916  0.00  0.00    +0.000 A 
ATOM     19  C   UNL     1       0.119   9.304  23.178  0.00  0.00    +0.000 A 
ATOM     20  C   UNL     1      -0.691  10.424  23.336  0.00  0.00    +0.000 A 
ATOM     21  C   UNL     1      -1.160  11.253  22.260  0.00  0.00    +0.000 A 
BRANCH  16  25
ATOM     22  O   UNL     1       0.085  14.733  18.413  0.00  0.00    +0.000 OA
ATOM     23  C   UNL     1      -0.279  13.568  18.506  0.00  0.00    +0.000 C 
ATOM     24  C   UNL     1       0.185  12.631  19.639  0.00  0.00    +0.000 C 
ATOM     25  N   UNL     1      -0.863  11.609  19.875  0.00  0.00    +0.000 N 
ATOM     26  C   UNL     1      -1.038  10.796  18.668  0.00  0.00    +0.000 C 
ATOM     27  C   UNL     1      -1.756  11.724  17.682  0.00  0.00    +0.000 C 
ATOM     28  N   UNL     1      -1.091  13.016  17.536  0.00  0.00    +0.000 N 
ATOM     29  H   UNL     1      -1.459  13.698  16.888  0.00  0.00    +0.000 HD
ENDBRANCH  16  25
ENDBRANCH   1  21
BRANCH  12  30
ATOM     30  C   UNL     1      -3.783  16.898  21.703  0.00  0.00    +0.000 C 
BRANCH  30  31
ATOM     31  C   UNL     1      -3.025  17.159  20.368  0.00  0.00    +0.000 C 
ATOM     32  F   UNL     1      -3.852  17.446  19.336  0.00  0.00    +0.000 F 
ATOM     33  F   UNL     1      -2.186  18.223  20.496  0.00  0.00    +0.000 F 
ATOM     34  F   UNL     1      -2.245  16.115  19.993  0.00  0.00    +0.000 F 
ENDBRANCH  30  31
ENDBRANCH  12  30
TORSDOF 4
ENDMDL
