MODEL 1
REMARK VINA RESULT:      -9.0      0.000      0.000
REMARK  Name = 
REMARK  7 active torsions:
REMARK  status: ('A' for Active; 'I' for Inactive)
REMARK    1  A    between atoms: C_1  and  C_2
REMARK    2  A    between atoms: C_2  and  C_3
REMARK    3  A    between atoms: C_2  and  C_4
REMARK    4  A    between atoms: C_2  and  C_5
REMARK    5  A    between atoms: N_12  and  C_13
REMARK    6  A    between atoms: C_17  and  N_18
REMARK    7  A    between atoms: C_20  and  C_21
REMARK                            x       y       z     vdW  Elec       q    Type
REMARK                         _______ _______ _______ _____ _____    ______ ____
ROOT
ATOM      1  C   UNL     1      -0.089  11.671  20.598  0.00  0.00    +0.000 A 
ATOM      2  C   UNL     1      -0.009  10.747  21.657  0.00  0.00    +0.000 A 
ATOM      3  C   UNL     1       0.582   9.500  21.491  0.00  0.00    +0.000 A 
ATOM      4  F   UNL     1       0.608   8.683  22.552  0.00  0.00    +0.000 F 
ATOM      5  C   UNL     1       1.108   9.127  20.262  0.00  0.00    +0.000 A 
ATOM      6  C   UNL     1       1.666   7.788  20.041  0.00  0.00    +0.000 A 
ATOM      7  O   UNL     1       1.623   7.003  20.984  0.00  0.00    +0.000 OA
ATOM      8  N   UNL     1       2.139   7.511  18.748  0.00  0.00    +0.000 N 
ATOM      9  N   UNL     1       2.106   8.436  17.716  0.00  0.00    +0.000 NA
ATOM     10  C   UNL     1       1.608   9.608  17.938  0.00  0.00    +0.000 A 
ATOM     11  C   UNL     1       1.055  10.027  19.216  0.00  0.00    +0.000 A 
ATOM     12  C   UNL     1       0.469  11.291  19.365  0.00  0.00    +0.000 A 
ENDROOT
BRANCH   8  13
ATOM     13  C   UNL     1       2.583   6.201  18.355  0.00  0.00    +0.000 A 
ATOM     14  C   UNL     1       1.872   5.034  18.668  0.00  0.00    +0.000 A 
ATOM     15  C   UNL     1       2.244   3.790  18.153  0.00  0.00    +0.000 A 
ATOM     16  C   UNL     1       3.368   3.678  17.342  0.00  0.00    +0.000 A 
ATOM     17  C   UNL     1       4.147   4.811  17.081  0.00  0.00    +0.000 A 
ATOM     18  C   UNL     1       3.749   6.060  17.584  0.00  0.00    +0.000 A 
BRANCH  17  19
ATOM     19  N   UNL     1       5.339   4.689  16.322  0.00  0.00    +0.000 N 
ATOM     20  C   UNL     1       5.485   4.830  14.962  0.00  0.00    +0.000 A 
ATOM     21  C   UNL     1       6.828   4.719  14.665  0.00  0.00    +0.000 A 
ATOM     22  C   UNL     1       7.419   4.472  15.918  0.00  0.00    +0.000 A 
ATOM     23  N   UNL     1       6.536   4.444  16.919  0.00  0.00    +0.000 NA
BRANCH  21  24
ATOM     24  C   UNL     1       7.386   4.852  13.338  0.00  0.00    +0.000 C 
ATOM     25  N   UNL     1       8.366   5.787  13.185  0.00  0.00    +0.000 N 
ATOM     26  O   UNL     1       7.016   4.182  12.380  0.00  0.00    +0.000 OA
ATOM     27  H   UNL     1       8.707   6.378  13.924  0.00  0.00    +0.000 HD
ATOM     28  H   UNL     1       8.749   5.897  12.255  0.00  0.00    +0.000 HD
ENDBRANCH  21  24
ENDBRANCH  17  19
ENDBRANCH   8  13
BRANCH   1  30
ATOM     29  C   UNL     1       0.068  14.143  20.182  0.00  0.00    +0.000 C 
ATOM     30  C   UNL     1      -0.775  13.025  20.832  0.00  0.00    +0.000 C 
ATOM     31  C   UNL     1      -0.890  13.293  22.349  0.00  0.00    +0.000 C 
ATOM     32  C   UNL     1      -2.197  13.103  20.240  0.00  0.00    +0.000 C 
ENDBRANCH   1  30
TORSDOF 4
ENDMDL
MODEL 2
REMARK VINA RESULT:      -9.0      1.856      2.422
REMARK  Name = 
REMARK  7 active torsions:
REMARK  status: ('A' for Active; 'I' for Inactive)
REMARK    1  A    between atoms: C_1  and  C_2
REMARK    2  A    between atoms: C_2  and  C_3
REMARK    3  A    between atoms: C_2  and  C_4
REMARK    4  A    between atoms: C_2  and  C_5
REMARK    5  A    between atoms: N_12  and  C_13
REMARK    6  A    between atoms: C_17  and  N_18
REMARK    7  A    between atoms: C_20  and  C_21
REMARK                            x       y       z     vdW  Elec       q    Type
REMARK                         _______ _______ _______ _____ _____    ______ ____
ROOT
ATOM      1  C   UNL     1      -0.052  11.821  20.188  0.00  0.00    +0.000 A 
ATOM      2  C   UNL     1       0.656  11.686  18.979  0.00  0.00    +0.000 A 
ATOM      3  C   UNL     1       1.273  10.491  18.627  0.00  0.00    +0.000 A 
ATOM      4  F   UNL     1       1.930  10.456  17.460  0.00  0.00    +0.000 F 
ATOM      5  C   UNL     1       1.212   9.390  19.470  0.00  0.00    +0.000 A 
ATOM      6  C   UNL     1       1.920   8.145  19.158  0.00  0.00    +0.000 A 
ATOM      7  O   UNL     1       2.591   8.126  18.130  0.00  0.00    +0.000 OA
ATOM      8  N   UNL     1       1.815   7.109  20.102  0.00  0.00    +0.000 N 
ATOM      9  N   UNL     1       1.078   7.223  21.271  0.00  0.00    +0.000 NA
ATOM     10  C   UNL     1       0.464   8.333  21.521  0.00  0.00    +0.000 A 
ATOM     11  C   UNL     1       0.507   9.499  20.653  0.00  0.00    +0.000 A 
ATOM     12  C   UNL     1      -0.127  10.692  21.023  0.00  0.00    +0.000 A 
ENDROOT
BRANCH   8  13
ATOM     13  C   UNL     1       2.566   5.887  19.992  0.00  0.00    +0.000 A 
ATOM     14  C   UNL     1       2.250   4.736  20.727  0.00  0.00    +0.000 A 
ATOM     15  C   UNL     1       2.899   3.521  20.498  0.00  0.00    +0.000 A 
ATOM     16  C   UNL     1       3.914   3.440  19.552  0.00  0.00    +0.000 A 
ATOM     17  C   UNL     1       4.310   4.592  18.863  0.00  0.00    +0.000 A 
ATOM     18  C   UNL     1       3.633   5.802  19.084  0.00  0.00    +0.000 A 
BRANCH  17  19
ATOM     19  N   UNL     1       5.401   4.533  17.957  0.00  0.00    +0.000 N 
ATOM     20  C   UNL     1       5.348   4.511  16.583  0.00  0.00    +0.000 A 
ATOM     21  C   UNL     1       6.642   4.545  16.107  0.00  0.00    +0.000 A 
ATOM     22  C   UNL     1       7.420   4.549  17.280  0.00  0.00    +0.000 A 
ATOM     23  N   UNL     1       6.687   4.533  18.396  0.00  0.00    +0.000 NA
BRANCH  21  24
ATOM     24  C   UNL     1       6.998   4.576  14.706  0.00  0.00    +0.000 C 
ATOM     25  N   UNL     1       6.415   3.634  13.913  0.00  0.00    +0.000 N 
ATOM     26  O   UNL     1       7.782   5.389  14.228  0.00  0.00    +0.000 OA
ATOM     27  H   UNL     1       5.776   2.931  14.242  0.00  0.00    +0.000 HD
ATOM     28  H   UNL     1       6.674   3.640  12.934  0.00  0.00    +0.000 HD
ENDBRANCH  21  24
ENDBRANCH  17  19
ENDBRANCH   8  13
BRANCH   1  30
ATOM     29  C   UNL     1      -2.227  13.010  20.589  0.00  0.00    +0.000 C 
ATOM     30  C   UNL     1      -0.693  13.172  20.537  0.00  0.00    +0.000 C 
ATOM     31  C   UNL     1      -0.330  14.213  19.455  0.00  0.00    +0.000 C 
ATOM     32  C   UNL     1      -0.232  13.738  21.896  0.00  0.00    +0.000 C 
ENDBRANCH   1  30
TORSDOF 4
ENDMDL
MODEL 3
REMARK VINA RESULT:      -8.9      1.254      1.318
REMARK  Name = 
REMARK  7 active torsions:
REMARK  status: ('A' for Active; 'I' for Inactive)
REMARK    1  A    between atoms: C_1  and  C_2
REMARK    2  A    between atoms: C_2  and  C_3
REMARK    3  A    between atoms: C_2  and  C_4
REMARK    4  A    between atoms: C_2  and  C_5
REMARK    5  A    between atoms: N_12  and  C_13
REMARK    6  A    between atoms: C_17  and  N_18
REMARK    7  A    between atoms: C_20  and  C_21
REMARK                            x       y       z     vdW  Elec       q    Type
REMARK                         _______ _______ _______ _____ _____    ______ ____
ROOT
ATOM      1  C   UNL     1      -0.636  12.057  20.702  0.00  0.00    +0.000 A 
ATOM      2  C   UNL     1      -0.548  11.354  21.918  0.00  0.00    +0.000 A 
ATOM      3  C   UNL     1       0.132  10.144  22.011  0.00  0.00    +0.000 A 
ATOM      4  F   UNL     1       0.160   9.542  23.207  0.00  0.00    +0.000 F 
ATOM      5  C   UNL     1       0.742   9.590  20.894  0.00  0.00    +0.000 A 
ATOM      6  C   UNL     1       1.397   8.279  20.949  0.00  0.00    +0.000 A 
ATOM      7  O   UNL     1       1.360   7.681  22.020  0.00  0.00    +0.000 OA
ATOM      8  N   UNL     1       1.950   7.803  19.749  0.00  0.00    +0.000 N 
ATOM      9  N   UNL     1       1.907   8.517  18.561  0.00  0.00    +0.000 NA
ATOM     10  C   UNL     1       1.322   9.670  18.541  0.00  0.00    +0.000 A 
ATOM     11  C   UNL     1       0.680  10.275  19.696  0.00  0.00    +0.000 A 
ATOM     12  C   UNL     1       0.006  11.498  19.584  0.00  0.00    +0.000 A 
ENDROOT
BRANCH   8  13
ATOM     13  C   UNL     1       2.499   6.480  19.624  0.00  0.00    +0.000 A 
ATOM     14  C   UNL     1       1.958   5.370  20.289  0.00  0.00    +0.000 A 
ATOM     15  C   UNL     1       2.415   4.074  20.040  0.00  0.00    +0.000 A 
ATOM     16  C   UNL     1       3.460   3.862  19.148  0.00  0.00    +0.000 A 
ATOM     17  C   UNL     1       4.077   4.958  18.534  0.00  0.00    +0.000 A 
ATOM     18  C   UNL     1       3.592   6.254  18.772  0.00  0.00    +0.000 A 
BRANCH  17  19
ATOM     19  N   UNL     1       5.197   4.755  17.686  0.00  0.00    +0.000 N 
ATOM     20  C   UNL     1       5.224   4.788  16.312  0.00  0.00    +0.000 A 
ATOM     21  C   UNL     1       6.533   4.628  15.908  0.00  0.00    +0.000 A 
ATOM     22  C   UNL     1       7.230   4.467  17.121  0.00  0.00    +0.000 A 
ATOM     23  N   UNL     1       6.439   4.533  18.193  0.00  0.00    +0.000 NA
BRANCH  21  24
ATOM     24  C   UNL     1       6.973   4.648  14.531  0.00  0.00    +0.000 C 
ATOM     25  N   UNL     1       6.454   3.687  13.716  0.00  0.00    +0.000 N 
ATOM     26  O   UNL     1       7.772   5.467  14.091  0.00  0.00    +0.000 OA
ATOM     27  H   UNL     1       5.806   2.978  14.015  0.00  0.00    +0.000 HD
ATOM     28  H   UNL     1       6.771   3.686  12.755  0.00  0.00    +0.000 HD
ENDBRANCH  21  24
ENDBRANCH  17  19
ENDBRANCH   8  13
BRANCH   1  30
ATOM     29  C   UNL     1      -0.863  14.259  19.517  0.00  0.00    +0.000 C 
ATOM     30  C   UNL     1      -1.421  13.376  20.653  0.00  0.00    +0.000 C 
ATOM     31  C   UNL     1      -1.267  14.122  21.997  0.00  0.00    +0.000 C 
ATOM     32  C   UNL     1      -2.930  13.184  20.402  0.00  0.00    +0.000 C 
ENDBRANCH   1  30
TORSDOF 4
ENDMDL
MODEL 4
REMARK VINA RESULT:      -8.8      3.517      4.528
REMARK  Name = 
REMARK  7 active torsions:
REMARK  status: ('A' for Active; 'I' for Inactive)
REMARK    1  A    between atoms: C_1  and  C_2
REMARK    2  A    between atoms: C_2  and  C_3
REMARK    3  A    between atoms: C_2  and  C_4
REMARK    4  A    between atoms: C_2  and  C_5
REMARK    5  A    between atoms: N_12  and  C_13
REMARK    6  A    between atoms: C_17  and  N_18
REMARK    7  A    between atoms: C_20  and  C_21
REMARK                            x       y       z     vdW  Elec       q    Type
REMARK                         _______ _______ _______ _____ _____    ______ ____
ROOT
ATOM      1  C   UNL     1      -2.527  12.313  22.526  0.00  0.00    +0.000 A 
ATOM      2  C   UNL     1      -1.877  11.426  23.404  0.00  0.00    +0.000 A 
ATOM      3  C   UNL     1      -0.876  10.569  22.962  0.00  0.00    +0.000 A 
ATOM      4  F   UNL     1      -0.316   9.755  23.867  0.00  0.00    +0.000 F 
ATOM      5  C   UNL     1      -0.493  10.560  21.628  0.00  0.00    +0.000 A 
ATOM      6  C   UNL     1       0.504   9.610  21.122  0.00  0.00    +0.000 A 
ATOM      7  O   UNL     1       0.967   8.806  21.926  0.00  0.00    +0.000 OA
ATOM      8  N   UNL     1       0.788   9.671  19.748  0.00  0.00    +0.000 N 
ATOM      9  N   UNL     1       0.183  10.577  18.890  0.00  0.00    +0.000 NA
ATOM     10  C   UNL     1      -0.693  11.402  19.362  0.00  0.00    +0.000 A 
ATOM     11  C   UNL     1      -1.108  11.436  20.755  0.00  0.00    +0.000 A 
ATOM     12  C   UNL     1      -2.114  12.312  21.182  0.00  0.00    +0.000 A 
ENDROOT
BRANCH   8  13
ATOM     13  C   UNL     1       1.639   8.713  19.094  0.00  0.00    +0.000 A 
ATOM     14  C   UNL     1       2.369   9.016  17.936  0.00  0.00    +0.000 A 
ATOM     15  C   UNL     1       3.299   8.120  17.403  0.00  0.00    +0.000 A 
ATOM     16  C   UNL     1       3.488   6.877  17.995  0.00  0.00    +0.000 A 
ATOM     17  C   UNL     1       2.712   6.512  19.101  0.00  0.00    +0.000 A 
ATOM     18  C   UNL     1       1.800   7.431  19.643  0.00  0.00    +0.000 A 
BRANCH  17  19
ATOM     19  N   UNL     1       2.843   5.214  19.659  0.00  0.00    +0.000 N 
ATOM     20  C   UNL     1       3.774   4.255  19.338  0.00  0.00    +0.000 A 
ATOM     21  C   UNL     1       3.589   3.182  20.187  0.00  0.00    +0.000 A 
ATOM     22  C   UNL     1       2.487   3.575  20.971  0.00  0.00    +0.000 A 
ATOM     23  N   UNL     1       2.026   4.787  20.658  0.00  0.00    +0.000 NA
BRANCH  21  24
ATOM     24  C   UNL     1       4.405   1.989  20.188  0.00  0.00    +0.000 C 
ATOM     25  N   UNL     1       4.334   1.207  19.074  0.00  0.00    +0.000 N 
ATOM     26  O   UNL     1       5.127   1.667  21.125  0.00  0.00    +0.000 OA
ATOM     27  H   UNL     1       3.754   1.406  18.277  0.00  0.00    +0.000 HD
ATOM     28  H   UNL     1       4.891   0.362  19.076  0.00  0.00    +0.000 HD
ENDBRANCH  21  24
ENDBRANCH  17  19
ENDBRANCH   8  13
BRANCH   1  30
ATOM     29  C   UNL     1      -3.090  14.650  23.256  0.00  0.00    +0.000 C 
ATOM     30  C   UNL     1      -3.643  13.221  23.065  0.00  0.00    +0.000 C 
ATOM     31  C   UNL     1      -4.138  12.683  24.425  0.00  0.00    +0.000 C 
ATOM     32  C   UNL     1      -4.867  13.310  22.131  0.00  0.00    +0.000 C 
ENDBRANCH   1  30
TORSDOF 4
ENDMDL
MODEL 5
REMARK VINA RESULT:      -8.8      0.746      1.051
REMARK  Name = 
REMARK  7 active torsions:
REMARK  status: ('A' for Active; 'I' for Inactive)
REMARK    1  A    between atoms: C_1  and  C_2
REMARK    2  A    between atoms: C_2  and  C_3
REMARK    3  A    between atoms: C_2  and  C_4
REMARK    4  A    between atoms: C_2  and  C_5
REMARK    5  A    between atoms: N_12  and  C_13
REMARK    6  A    between atoms: C_17  and  N_18
REMARK    7  A    between atoms: C_20  and  C_21
REMARK                            x       y       z     vdW  Elec       q    Type
REMARK                         _______ _______ _______ _____ _____    ______ ____
ROOT
ATOM      1  C   UNL     1      -0.352  11.612  20.413  0.00  0.00    +0.000 A 
ATOM      2  C   UNL     1      -0.180  10.791  21.543  0.00  0.00    +0.000 A 
ATOM      3  C   UNL     1       0.496   9.578  21.465  0.00  0.00    +0.000 A 
ATOM      4  F   UNL     1       0.607   8.859  22.590  0.00  0.00    +0.000 F 
ATOM      5  C   UNL     1       1.018   9.138  20.256  0.00  0.00    +0.000 A 
ATOM      6  C   UNL     1       1.666   7.829  20.132  0.00  0.00    +0.000 A 
ATOM      7  O   UNL     1       1.704   7.126  21.138  0.00  0.00    +0.000 OA
ATOM      8  N   UNL     1       2.126   7.475  18.853  0.00  0.00    +0.000 N 
ATOM      9  N   UNL     1       2.001   8.303  17.748  0.00  0.00    +0.000 NA
ATOM     10  C   UNL     1       1.425   9.452  17.886  0.00  0.00    +0.000 A 
ATOM     11  C   UNL     1       0.874   9.939  19.140  0.00  0.00    +0.000 A 
ATOM     12  C   UNL     1       0.202  11.167  19.200  0.00  0.00    +0.000 A 
ENDROOT
BRANCH   8  13
ATOM     13  C   UNL     1       2.655   6.170  18.557  0.00  0.00    +0.000 A 
ATOM     14  C   UNL     1       2.112   4.994  19.092  0.00  0.00    +0.000 A 
ATOM     15  C   UNL     1       2.547   3.733  18.679  0.00  0.00    +0.000 A 
ATOM     16  C   UNL     1       3.573   3.620  17.747  0.00  0.00    +0.000 A 
ATOM     17  C   UNL     1       4.193   4.775  17.259  0.00  0.00    +0.000 A 
ATOM     18  C   UNL     1       3.730   6.038  17.663  0.00  0.00    +0.000 A 
BRANCH  17  19
ATOM     19  N   UNL     1       5.295   4.665  16.371  0.00  0.00    +0.000 N 
ATOM     20  C   UNL     1       5.263   4.351  15.033  0.00  0.00    +0.000 A 
ATOM     21  C   UNL     1       6.550   4.444  14.544  0.00  0.00    +0.000 A 
ATOM     22  C   UNL     1       7.306   4.788  15.681  0.00  0.00    +0.000 A 
ATOM     23  N   UNL     1       6.566   4.915  16.784  0.00  0.00    +0.000 NA
BRANCH  21  24
ATOM     24  C   UNL     1       6.918   4.228  13.163  0.00  0.00    +0.000 C 
ATOM     25  N   UNL     1       6.408   3.112  12.569  0.00  0.00    +0.000 N 
ATOM     26  O   UNL     1       7.652   4.983  12.534  0.00  0.00    +0.000 OA
ATOM     27  H   UNL     1       5.812   2.446  13.030  0.00  0.00    +0.000 HD
ATOM     28  H   UNL     1       6.675   2.946  11.607  0.00  0.00    +0.000 HD
ENDBRANCH  21  24
ENDBRANCH  17  19
ENDBRANCH   8  13
BRANCH   1  30
ATOM     29  C   UNL     1      -1.105  13.381  22.028  0.00  0.00    +0.000 C 
ATOM     30  C   UNL     1      -1.128  12.929  20.553  0.00  0.00    +0.000 C 
ATOM     31  C   UNL     1      -2.593  12.718  20.110  0.00  0.00    +0.000 C 
ATOM     32  C   UNL     1      -0.550  14.077  19.700  0.00  0.00    +0.000 C 
ENDBRANCH   1  30
TORSDOF 4
ENDMDL
MODEL 6
REMARK VINA RESULT:      -8.7      4.157      9.943
REMARK  Name = 
REMARK  7 active torsions:
REMARK  status: ('A' for Active; 'I' for Inactive)
REMARK    1  A    between atoms: C_1  and  C_2
REMARK    2  A    between atoms: C_2  and  C_3
REMARK    3  A    between atoms: C_2  and  C_4
REMARK    4  A    between atoms: C_2  and  C_5
REMARK    5  A    between atoms: N_12  and  C_13
REMARK    6  A    between atoms: C_17  and  N_18
REMARK    7  A    between atoms: C_20  and  C_21
REMARK                            x       y       z     vdW  Elec       q    Type
REMARK                         _______ _______ _______ _____ _____    ______ ____
ROOT
ATOM      1  C   UNL     1       3.026   4.842  19.248  0.00  0.00    +0.000 A 
ATOM      2  C   UNL     1       3.381   5.532  18.075  0.00  0.00    +0.000 A 
ATOM      3  C   UNL     1       3.030   6.863  17.880  0.00  0.00    +0.000 A 
ATOM      4  F   UNL     1       3.406   7.439  16.730  0.00  0.00    +0.000 F 
ATOM      5  C   UNL     1       2.307   7.551  18.845  0.00  0.00    +0.000 A 
ATOM      6  C   UNL     1       1.858   8.930  18.629  0.00  0.00    +0.000 A 
ATOM      7  O   UNL     1       2.127   9.442  17.546  0.00  0.00    +0.000 OA
ATOM      8  N   UNL     1       1.104   9.513  19.660  0.00  0.00    +0.000 N 
ATOM      9  N   UNL     1       0.794   8.851  20.838  0.00  0.00    +0.000 NA
ATOM     10  C   UNL     1       1.202   7.635  21.002  0.00  0.00    +0.000 A 
ATOM     11  C   UNL     1       1.965   6.894  20.011  0.00  0.00    +0.000 A 
ATOM     12  C   UNL     1       2.314   5.555  20.229  0.00  0.00    +0.000 A 
ENDROOT
BRANCH   8  13
ATOM     13  C   UNL     1       0.485  10.805  19.527  0.00  0.00    +0.000 A 
ATOM     14  C   UNL     1       1.223  11.986  19.371  0.00  0.00    +0.000 A 
ATOM     15  C   UNL     1       0.602  13.207  19.097  0.00  0.00    +0.000 A 
ATOM     16  C   UNL     1      -0.784  13.281  19.017  0.00  0.00    +0.000 A 
ATOM     17  C   UNL     1      -1.552  12.136  19.254  0.00  0.00    +0.000 A 
ATOM     18  C   UNL     1      -0.915  10.910  19.502  0.00  0.00    +0.000 A 
BRANCH  17  19
ATOM     19  N   UNL     1      -2.969  12.223  19.254  0.00  0.00    +0.000 N 
ATOM     20  C   UNL     1      -3.842  11.663  18.352  0.00  0.00    +0.000 A 
ATOM     21  C   UNL     1      -5.127  11.924  18.785  0.00  0.00    +0.000 A 
ATOM     22  C   UNL     1      -4.927  12.687  19.951  0.00  0.00    +0.000 A 
ATOM     23  N   UNL     1      -3.638  12.880  20.238  0.00  0.00    +0.000 NA
BRANCH  21  24
ATOM     24  C   UNL     1      -6.324  11.462  18.121  0.00  0.00    +0.000 C 
ATOM     25  N   UNL     1      -6.724  12.175  17.030  0.00  0.00    +0.000 N 
ATOM     26  O   UNL     1      -6.970  10.490  18.495  0.00  0.00    +0.000 OA
ATOM     27  H   UNL     1      -6.249  12.989  16.678  0.00  0.00    +0.000 HD
ATOM     28  H   UNL     1      -7.571  11.867  16.570  0.00  0.00    +0.000 HD
ENDBRANCH  21  24
ENDBRANCH  17  19
ENDBRANCH   8  13
BRANCH   1  30
ATOM     29  C   UNL     1       2.932   2.844  20.768  0.00  0.00    +0.000 C 
ATOM     30  C   UNL     1       3.419   3.365  19.399  0.00  0.00    +0.000 C 
ATOM     31  C   UNL     1       4.956   3.226  19.322  0.00  0.00    +0.000 C 
ATOM     32  C   UNL     1       2.818   2.455  18.308  0.00  0.00    +0.000 C 
ENDBRANCH   1  30
TORSDOF 4
ENDMDL
MODEL 7
REMARK VINA RESULT:      -8.7      0.935      1.256
REMARK  Name = 
REMARK  7 active torsions:
REMARK  status: ('A' for Active; 'I' for Inactive)
REMARK    1  A    between atoms: C_1  and  C_2
REMARK    2  A    between atoms: C_2  and  C_3
REMARK    3  A    between atoms: C_2  and  C_4
REMARK    4  A    between atoms: C_2  and  C_5
REMARK    5  A    between atoms: N_12  and  C_13
REMARK    6  A    between atoms: C_17  and  N_18
REMARK    7  A    between atoms: C_20  and  C_21
REMARK                            x       y       z     vdW  Elec       q    Type
REMARK                         _______ _______ _______ _____ _____    ______ ____
ROOT
ATOM      1  C   UNL     1      -0.664  11.895  20.511  0.00  0.00    +0.000 A 
ATOM      2  C   UNL     1      -0.579  11.167  21.712  0.00  0.00    +0.000 A 
ATOM      3  C   UNL     1       0.122   9.969  21.789  0.00  0.00    +0.000 A 
ATOM      4  F   UNL     1       0.145   9.342  22.972  0.00  0.00    +0.000 F 
ATOM      5  C   UNL     1       0.758   9.451  20.669  0.00  0.00    +0.000 A 
ATOM      6  C   UNL     1       1.437   8.152  20.705  0.00  0.00    +0.000 A 
ATOM      7  O   UNL     1       1.397   7.530  21.762  0.00  0.00    +0.000 OA
ATOM      8  N   UNL     1       2.016   7.713  19.502  0.00  0.00    +0.000 N 
ATOM      9  N   UNL     1       1.975   8.451  18.329  0.00  0.00    +0.000 NA
ATOM     10  C   UNL     1       1.369   9.593  18.326  0.00  0.00    +0.000 A 
ATOM     11  C   UNL     1       0.700  10.161  19.485  0.00  0.00    +0.000 A 
ATOM     12  C   UNL     1       0.003  11.373  19.389  0.00  0.00    +0.000 A 
ENDROOT
BRANCH   8  13
ATOM     13  C   UNL     1       2.592   6.403  19.357  0.00  0.00    +0.000 A 
ATOM     14  C   UNL     1       2.098   5.279  20.035  0.00  0.00    +0.000 A 
ATOM     15  C   UNL     1       2.578   3.995  19.769  0.00  0.00    +0.000 A 
ATOM     16  C   UNL     1       3.599   3.810  18.844  0.00  0.00    +0.000 A 
ATOM     17  C   UNL     1       4.171   4.921  18.214  0.00  0.00    +0.000 A 
ATOM     18  C   UNL     1       3.663   6.204  18.471  0.00  0.00    +0.000 A 
BRANCH  17  19
ATOM     19  N   UNL     1       5.268   4.746  17.332  0.00  0.00    +0.000 N 
ATOM     20  C   UNL     1       5.244   4.744  15.957  0.00  0.00    +0.000 A 
ATOM     21  C   UNL     1       6.545   4.632  15.509  0.00  0.00    +0.000 A 
ATOM     22  C   UNL     1       7.291   4.535  16.699  0.00  0.00    +0.000 A 
ATOM     23  N   UNL     1       6.536   4.594  17.798  0.00  0.00    +0.000 NA
BRANCH  21  24
ATOM     24  C   UNL     1       6.934   4.636  14.117  0.00  0.00    +0.000 C 
ATOM     25  N   UNL     1       7.829   5.593  13.742  0.00  0.00    +0.000 N 
ATOM     26  O   UNL     1       6.498   3.839  13.293  0.00  0.00    +0.000 OA
ATOM     27  H   UNL     1       8.215   6.284  14.363  0.00  0.00    +0.000 HD
ATOM     28  H   UNL     1       8.092   5.612  12.765  0.00  0.00    +0.000 HD
ENDBRANCH  21  24
ENDBRANCH  17  19
ENDBRANCH   8  13
BRANCH   1  30
ATOM     29  C   UNL     1      -2.933  12.885  20.087  0.00  0.00    +0.000 C 
ATOM     30  C   UNL     1      -1.473  13.200  20.479  0.00  0.00    +0.000 C 
ATOM     31  C   UNL     1      -0.865  14.163  19.435  0.00  0.00    +0.000 C 
ATOM     32  C   UNL     1      -1.498  13.941  21.831  0.00  0.00    +0.000 C 
ENDBRANCH   1  30
TORSDOF 4
ENDMDL
MODEL 8
REMARK VINA RESULT:      -8.6      3.305      4.433
REMARK  Name = 
REMARK  7 active torsions:
REMARK  status: ('A' for Active; 'I' for Inactive)
REMARK    1  A    between atoms: C_1  and  C_2
REMARK    2  A    between atoms: C_2  and  C_3
REMARK    3  A    between atoms: C_2  and  C_4
REMARK    4  A    between atoms: C_2  and  C_5
REMARK    5  A    between atoms: N_12  and  C_13
REMARK    6  A    between atoms: C_17  and  N_18
REMARK    7  A    between atoms: C_20  and  C_21
REMARK                            x       y       z     vdW  Elec       q    Type
REMARK                         _______ _______ _______ _____ _____    ______ ____
ROOT
ATOM      1  C   UNL     1      -2.490  12.202  22.524  0.00  0.00    +0.000 A 
ATOM      2  C   UNL     1      -1.804  11.320  23.379  0.00  0.00    +0.000 A 
ATOM      3  C   UNL     1      -0.792  10.490  22.909  0.00  0.00    +0.000 A 
ATOM      4  F   UNL     1      -0.198   9.679  23.793  0.00  0.00    +0.000 F 
ATOM      5  C   UNL     1      -0.433  10.506  21.568  0.00  0.00    +0.000 A 
ATOM      6  C   UNL     1       0.575   9.585  21.033  0.00  0.00    +0.000 A 
ATOM      7  O   UNL     1       1.070   8.782  21.818  0.00  0.00    +0.000 OA
ATOM      8  N   UNL     1       0.832   9.668  19.655  0.00  0.00    +0.000 N 
ATOM      9  N   UNL     1       0.192  10.570  18.819  0.00  0.00    +0.000 NA
ATOM     10  C   UNL     1      -0.693  11.369  19.317  0.00  0.00    +0.000 A 
ATOM     11  C   UNL     1      -1.084  11.378  20.717  0.00  0.00    +0.000 A 
ATOM     12  C   UNL     1      -2.101  12.226  21.173  0.00  0.00    +0.000 A 
ENDROOT
BRANCH   8  13
ATOM     13  C   UNL     1       1.692   8.737  18.974  0.00  0.00    +0.000 A 
ATOM     14  C   UNL     1       2.440   9.087  17.841  0.00  0.00    +0.000 A 
ATOM     15  C   UNL     1       3.377   8.214  17.285  0.00  0.00    +0.000 A 
ATOM     16  C   UNL     1       3.557   6.946  17.827  0.00  0.00    +0.000 A 
ATOM     17  C   UNL     1       2.765   6.537  18.905  0.00  0.00    +0.000 A 
ATOM     18  C   UNL     1       1.844   7.433  19.472  0.00  0.00    +0.000 A 
BRANCH  17  19
ATOM     19  N   UNL     1       2.886   5.216  19.410  0.00  0.00    +0.000 N 
ATOM     20  C   UNL     1       3.594   4.172  18.864  0.00  0.00    +0.000 A 
ATOM     21  C   UNL     1       3.511   3.101  19.730  0.00  0.00    +0.000 A 
ATOM     22  C   UNL     1       2.691   3.586  20.767  0.00  0.00    +0.000 A 
ATOM     23  N   UNL     1       2.304   4.850  20.583  0.00  0.00    +0.000 NA
BRANCH  21  24
ATOM     24  C   UNL     1       4.163   1.829  19.523  0.00  0.00    +0.000 C 
ATOM     25  N   UNL     1       5.210   1.544  20.348  0.00  0.00    +0.000 N 
ATOM     26  O   UNL     1       3.822   1.029  18.659  0.00  0.00    +0.000 OA
ATOM     27  H   UNL     1       5.549   2.160  21.068  0.00  0.00    +0.000 HD
ATOM     28  H   UNL     1       5.682   0.662  20.198  0.00  0.00    +0.000 HD
ENDBRANCH  21  24
ENDBRANCH  17  19
ENDBRANCH   8  13
BRANCH   1  30
ATOM     29  C   UNL     1      -4.065  12.508  24.456  0.00  0.00    +0.000 C 
ATOM     30  C   UNL     1      -3.615  13.078  23.093  0.00  0.00    +0.000 C 
ATOM     31  C   UNL     1      -4.816  13.077  22.122  0.00  0.00    +0.000 C 
ATOM     32  C   UNL     1      -3.199  14.547  23.312  0.00  0.00    +0.000 C 
ENDBRANCH   1  30
TORSDOF 4
ENDMDL
MODEL 9
REMARK VINA RESULT:      -8.6      4.215      8.747
REMARK  Name = 
REMARK  7 active torsions:
REMARK  status: ('A' for Active; 'I' for Inactive)
REMARK    1  A    between atoms: C_1  and  C_2
REMARK    2  A    between atoms: C_2  and  C_3
REMARK    3  A    between atoms: C_2  and  C_4
REMARK    4  A    between atoms: C_2  and  C_5
REMARK    5  A    between atoms: N_12  and  C_13
REMARK    6  A    between atoms: C_17  and  N_18
REMARK    7  A    between atoms: C_20  and  C_21
REMARK                            x       y       z     vdW  Elec       q    Type
REMARK                         _______ _______ _______ _____ _____    ______ ____
ROOT
ATOM      1  C   UNL     1       2.557   4.594  19.809  0.00  0.00    +0.000 A 
ATOM      2  C   UNL     1       3.065   5.029  18.571  0.00  0.00    +0.000 A 
ATOM      3  C   UNL     1       2.907   6.341  18.141  0.00  0.00    +0.000 A 
ATOM      4  F   UNL     1       3.418   6.665  16.946  0.00  0.00    +0.000 F 
ATOM      5  C   UNL     1       2.231   7.265  18.926  0.00  0.00    +0.000 A 
ATOM      6  C   UNL     1       1.983   8.633  18.460  0.00  0.00    +0.000 A 
ATOM      7  O   UNL     1       2.377   8.919  17.333  0.00  0.00    +0.000 OA
ATOM      8  N   UNL     1       1.259   9.469  19.325  0.00  0.00    +0.000 N 
ATOM      9  N   UNL     1       0.799   9.057  20.567  0.00  0.00    +0.000 NA
ATOM     10  C   UNL     1       1.031   7.845  20.953  0.00  0.00    +0.000 A 
ATOM     11  C   UNL     1       1.741   6.860  20.153  0.00  0.00    +0.000 A 
ATOM     12  C   UNL     1       1.895   5.544  20.607  0.00  0.00    +0.000 A 
ENDROOT
BRANCH   8  13
ATOM     13  C   UNL     1       0.826  10.786  18.942  0.00  0.00    +0.000 A 
ATOM     14  C   UNL     1      -0.502  11.078  18.602  0.00  0.00    +0.000 A 
ATOM     15  C   UNL     1      -0.928  12.389  18.375  0.00  0.00    +0.000 A 
ATOM     16  C   UNL     1      -0.020  13.439  18.440  0.00  0.00    +0.000 A 
ATOM     17  C   UNL     1       1.330  13.170  18.693  0.00  0.00    +0.000 A 
ATOM     18  C   UNL     1       1.742  11.851  18.945  0.00  0.00    +0.000 A 
BRANCH  17  19
ATOM     19  N   UNL     1       2.276  14.227  18.680  0.00  0.00    +0.000 N 
ATOM     20  C   UNL     1       3.641  14.128  18.547  0.00  0.00    +0.000 A 
ATOM     21  C   UNL     1       4.158  15.407  18.497  0.00  0.00    +0.000 A 
ATOM     22  C   UNL     1       3.020  16.223  18.645  0.00  0.00    +0.000 A 
ATOM     23  N   UNL     1       1.887  15.527  18.764  0.00  0.00    +0.000 NA
BRANCH  21  24
ATOM     24  C   UNL     1       5.558  15.718  18.319  0.00  0.00    +0.000 C 
ATOM     25  N   UNL     1       5.975  16.926  18.793  0.00  0.00    +0.000 N 
ATOM     26  O   UNL     1       6.352  14.961  17.771  0.00  0.00    +0.000 OA
ATOM     27  H   UNL     1       5.374  17.598  19.239  0.00  0.00    +0.000 HD
ATOM     28  H   UNL     1       6.950  17.156  18.657  0.00  0.00    +0.000 HD
ENDBRANCH  21  24
ENDBRANCH  17  19
ENDBRANCH   8  13
BRANCH   1  30
ATOM     29  C   UNL     1       2.340   2.960  21.704  0.00  0.00    +0.000 C 
ATOM     30  C   UNL     1       2.740   3.127  20.223  0.00  0.00    +0.000 C 
ATOM     31  C   UNL     1       4.220   2.719  20.048  0.00  0.00    +0.000 C 
ATOM     32  C   UNL     1       1.890   2.143  19.392  0.00  0.00    +0.000 C 
ENDBRANCH   1  30
TORSDOF 4
ENDMDL
