MODEL 1
REMARK VINA RESULT:      -7.0      0.000      0.000
REMARK  Name = 
REMARK  5 active torsions:
REMARK  status: ('A' for Active; 'I' for Inactive)
REMARK    1  A    between atoms: C_1  and  C_2
REMARK    2  A    between atoms: C_2  and  C_3
REMARK    3  A    between atoms: C_2  and  C_4
REMARK    4  A    between atoms: C_7  and  C_8
REMARK    5  A    between atoms: N_15  and  C_16
REMARK                            x       y       z     vdW  Elec       q    Type
REMARK                         _______ _______ _______ _____ _____    ______ ____
ROOT
ATOM      1  C   UNL     1       4.507   4.227  16.162  0.00  0.00    +0.000 C 
ATOM      2  C   UNL     1       5.662   3.258  15.890  0.00  0.00    +0.000 C 
ATOM      3  C   UNL     1       6.727   4.139  15.262  0.00  0.00    +0.000 C 
ATOM      4  C   UNL     1       6.527   5.491  15.937  0.00  0.00    +0.000 C 
ATOM      5  N   UNL     1       5.208   5.454  16.561  0.00  0.00    +0.000 N 
ATOM      6  C   UNL     1       4.779   6.607  17.192  0.00  0.00    +0.000 C 
ATOM      7  O   UNL     1       5.513   7.592  17.271  0.00  0.00    +0.000 OA
ATOM      8  N   UNL     1       3.551   6.567  17.775  0.00  0.00    +0.000 N 
ATOM      9  H   UNL     1       2.909   5.841  17.496  0.00  0.00    +0.000 HD
ENDROOT
BRANCH   1  13
ATOM     10  C   UNL     1       2.410   3.033  18.777  0.00  0.00    +0.000 A 
ATOM     11  N   UNL     1       1.478   3.171  17.829  0.00  0.00    +0.000 NA
ATOM     12  O   UNL     1       2.209   3.592  16.721  0.00  0.00    +0.000 OA
ATOM     13  C   UNL     1       3.514   3.667  17.116  0.00  0.00    +0.000 A 
ATOM     14  N   UNL     1       3.690   3.327  18.378  0.00  0.00    +0.000 NA
BRANCH  10  16
ATOM     15  C   UNL     1       3.326   2.489  21.033  0.00  0.00    +0.000 C 
ATOM     16  C   UNL     1       2.071   2.658  20.179  0.00  0.00    +0.000 C 
ATOM     17  C   UNL     1       1.125   3.686  20.803  0.00  0.00    +0.000 C 
ENDBRANCH  10  16
ENDBRANCH   1  13
BRANCH   8  18
ATOM     18  C   UNL     1       2.959   7.636  18.567  0.00  0.00    +0.000 C 
ATOM     19  C   UNL     1       1.937   8.519  17.856  0.00  0.00    +0.000 C 
ATOM     20  C   UNL     1       1.266   9.270  19.001  0.00  0.00    +0.000 C 
ATOM     21  C   UNL     1       1.318   8.333  20.208  0.00  0.00    +0.000 C 
ATOM     22  C   UNL     1       2.237   7.174  19.827  0.00  0.00    +0.000 C 
ENDBRANCH   8  18
TORSDOF 3
ENDMDL
MODEL 2
REMARK VINA RESULT:      -6.6      1.021      1.195
REMARK  Name = 
REMARK  5 active torsions:
REMARK  status: ('A' for Active; 'I' for Inactive)
REMARK    1  A    between atoms: C_1  and  C_2
REMARK    2  A    between atoms: C_2  and  C_3
REMARK    3  A    between atoms: C_2  and  C_4
REMARK    4  A    between atoms: C_7  and  C_8
REMARK    5  A    between atoms: N_15  and  C_16
REMARK                            x       y       z     vdW  Elec       q    Type
REMARK                         _______ _______ _______ _____ _____    ______ ____
ROOT
ATOM      1  C   UNL     1       4.455   4.046  16.532  0.00  0.00    +0.000 C 
ATOM      2  C   UNL     1       5.675   3.229  16.093  0.00  0.00    +0.000 C 
ATOM      3  C   UNL     1       6.273   4.055  14.969  0.00  0.00    +0.000 C 
ATOM      4  C   UNL     1       5.966   5.494  15.370  0.00  0.00    +0.000 C 
ATOM      5  N   UNL     1       4.933   5.428  16.398  0.00  0.00    +0.000 N 
ATOM      6  C   UNL     1       4.447   6.630  16.878  0.00  0.00    +0.000 C 
ATOM      7  O   UNL     1       4.919   7.699  16.492  0.00  0.00    +0.000 OA
ATOM      8  N   UNL     1       3.487   6.564  17.839  0.00  0.00    +0.000 N 
ATOM      9  H   UNL     1       2.981   5.700  17.956  0.00  0.00    +0.000 HD
ENDROOT
BRANCH   1  13
ATOM     10  C   UNL     1       2.814   3.027  19.520  0.00  0.00    +0.000 A 
ATOM     11  N   UNL     1       4.036   2.564  19.802  0.00  0.00    +0.000 NA
ATOM     12  O   UNL     1       4.791   2.962  18.702  0.00  0.00    +0.000 OA
ATOM     13  C   UNL     1       3.943   3.626  17.861  0.00  0.00    +0.000 A 
ATOM     14  N   UNL     1       2.709   3.695  18.325  0.00  0.00    +0.000 NA
BRANCH  10  16
ATOM     15  C   UNL     1       2.072   2.527  21.849  0.00  0.00    +0.000 C 
ATOM     16  C   UNL     1       1.641   2.769  20.403  0.00  0.00    +0.000 C 
ATOM     17  C   UNL     1       0.635   3.918  20.321  0.00  0.00    +0.000 C 
ENDBRANCH  10  16
ENDBRANCH   1  13
BRANCH   8  18
ATOM     18  C   UNL     1       2.917   7.706  18.541  0.00  0.00    +0.000 C 
ATOM     19  C   UNL     1       1.907   8.544  17.761  0.00  0.00    +0.000 C 
ATOM     20  C   UNL     1       1.253   9.400  18.840  0.00  0.00    +0.000 C 
ATOM     21  C   UNL     1       1.294   8.568  20.122  0.00  0.00    +0.000 C 
ATOM     22  C   UNL     1       2.191   7.365  19.837  0.00  0.00    +0.000 C 
ENDBRANCH   8  18
TORSDOF 3
ENDMDL
MODEL 3
REMARK VINA RESULT:      -6.6      2.327      5.568
REMARK  Name = 
REMARK  5 active torsions:
REMARK  status: ('A' for Active; 'I' for Inactive)
REMARK    1  A    between atoms: C_1  and  C_2
REMARK    2  A    between atoms: C_2  and  C_3
REMARK    3  A    between atoms: C_2  and  C_4
REMARK    4  A    between atoms: C_7  and  C_8
REMARK    5  A    between atoms: N_15  and  C_16
REMARK                            x       y       z     vdW  Elec       q    Type
REMARK                         _______ _______ _______ _____ _____    ______ ____
ROOT
ATOM      1  C   UNL     1       1.988   4.510  19.430  0.00  0.00    +0.000 C 
ATOM      2  C   UNL     1       1.091   4.033  20.577  0.00  0.00    +0.000 C 
ATOM      3  C   UNL     1       1.546   2.605  20.817  0.00  0.00    +0.000 C 
ATOM      4  C   UNL     1       3.034   2.636  20.490  0.00  0.00    +0.000 C 
ATOM      5  N   UNL     1       3.270   3.866  19.740  0.00  0.00    +0.000 N 
ATOM      6  C   UNL     1       4.556   4.083  19.280  0.00  0.00    +0.000 C 
ATOM      7  O   UNL     1       5.464   3.298  19.552  0.00  0.00    +0.000 OA
ATOM      8  N   UNL     1       4.772   5.232  18.585  0.00  0.00    +0.000 N 
ATOM      9  H   UNL     1       3.978   5.718  18.198  0.00  0.00    +0.000 HD
ENDROOT
BRANCH   1  13
ATOM     10  C   UNL     1       1.773   7.982  18.682  0.00  0.00    +0.000 A 
ATOM     11  N   UNL     1       1.820   8.073  20.015  0.00  0.00    +0.000 NA
ATOM     12  O   UNL     1       1.962   6.749  20.421  0.00  0.00    +0.000 OA
ATOM     13  C   UNL     1       1.983   5.988  19.287  0.00  0.00    +0.000 A 
ATOM     14  N   UNL     1       1.873   6.706  18.184  0.00  0.00    +0.000 NA
BRANCH  10  16
ATOM     15  C   UNL     1       0.116   9.681  17.912  0.00  0.00    +0.000 C 
ATOM     16  C   UNL     1       1.552   9.170  17.809  0.00  0.00    +0.000 C 
ATOM     17  C   UNL     1       2.549  10.281  18.141  0.00  0.00    +0.000 C 
ENDBRANCH  10  16
ENDBRANCH   1  13
BRANCH   8  18
ATOM     18  C   UNL     1       6.066   5.693  18.101  0.00  0.00    +0.000 C 
ATOM     19  C   UNL     1       6.070   7.010  17.328  0.00  0.00    +0.000 C 
ATOM     20  C   UNL     1       7.547   7.384  17.280  0.00  0.00    +0.000 C 
ATOM     21  C   UNL     1       8.170   6.808  18.552  0.00  0.00    +0.000 C 
ATOM     22  C   UNL     1       7.120   5.896  19.183  0.00  0.00    +0.000 C 
ENDBRANCH   8  18
TORSDOF 3
ENDMDL
MODEL 4
REMARK VINA RESULT:      -6.6      2.161      5.342
REMARK  Name = 
REMARK  5 active torsions:
REMARK  status: ('A' for Active; 'I' for Inactive)
REMARK    1  A    between atoms: C_1  and  C_2
REMARK    2  A    between atoms: C_2  and  C_3
REMARK    3  A    between atoms: C_2  and  C_4
REMARK    4  A    between atoms: C_7  and  C_8
REMARK    5  A    between atoms: N_15  and  C_16
REMARK                            x       y       z     vdW  Elec       q    Type
REMARK                         _______ _______ _______ _____ _____    ______ ____
ROOT
ATOM      1  C   UNL     1       1.943   4.316  19.498  0.00  0.00    +0.000 C 
ATOM      2  C   UNL     1       1.084   3.776  20.647  0.00  0.00    +0.000 C 
ATOM      3  C   UNL     1       1.578   2.352  20.824  0.00  0.00    +0.000 C 
ATOM      4  C   UNL     1       3.058   2.432  20.466  0.00  0.00    +0.000 C 
ATOM      5  N   UNL     1       3.247   3.694  19.757  0.00  0.00    +0.000 N 
ATOM      6  C   UNL     1       4.516   3.960  19.277  0.00  0.00    +0.000 C 
ATOM      7  O   UNL     1       5.449   3.189  19.500  0.00  0.00    +0.000 OA
ATOM      8  N   UNL     1       4.689   5.139  18.620  0.00  0.00    +0.000 N 
ATOM      9  H   UNL     1       3.874   5.618  18.269  0.00  0.00    +0.000 HD
ENDROOT
BRANCH   1  13
ATOM     10  C   UNL     1       1.876   7.865  19.744  0.00  0.00    +0.000 A 
ATOM     11  N   UNL     1       2.323   7.766  18.487  0.00  0.00    +0.000 NA
ATOM     12  O   UNL     1       2.338   6.392  18.260  0.00  0.00    +0.000 OA
ATOM     13  C   UNL     1       1.898   5.798  19.410  0.00  0.00    +0.000 A 
ATOM     14  N   UNL     1       1.597   6.668  20.355  0.00  0.00    +0.000 NA
BRANCH  10  16
ATOM     15  C   UNL     1       0.870  10.147  19.679  0.00  0.00    +0.000 C 
ATOM     16  C   UNL     1       1.763   9.174  20.448  0.00  0.00    +0.000 C 
ATOM     17  C   UNL     1       1.252   8.981  21.876  0.00  0.00    +0.000 C 
ENDBRANCH  10  16
ENDBRANCH   1  13
BRANCH   8  18
ATOM     18  C   UNL     1       5.959   5.649  18.125  0.00  0.00    +0.000 C 
ATOM     19  C   UNL     1       5.916   7.002  17.418  0.00  0.00    +0.000 C 
ATOM     20  C   UNL     1       7.384   7.409  17.350  0.00  0.00    +0.000 C 
ATOM     21  C   UNL     1       8.053   6.784  18.575  0.00  0.00    +0.000 C 
ATOM     22  C   UNL     1       7.038   5.822  19.188  0.00  0.00    +0.000 C 
ENDBRANCH   8  18
TORSDOF 3
ENDMDL
MODEL 5
REMARK VINA RESULT:      -6.4      1.785      5.590
REMARK  Name = 
REMARK  5 active torsions:
REMARK  status: ('A' for Active; 'I' for Inactive)
REMARK    1  A    between atoms: C_1  and  C_2
REMARK    2  A    between atoms: C_2  and  C_3
REMARK    3  A    between atoms: C_2  and  C_4
REMARK    4  A    between atoms: C_7  and  C_8
REMARK    5  A    between atoms: N_15  and  C_16
REMARK                            x       y       z     vdW  Elec       q    Type
REMARK                         _______ _______ _______ _____ _____    ______ ____
ROOT
ATOM      1  C   UNL     1       1.884   3.926  19.768  0.00  0.00    +0.000 C 
ATOM      2  C   UNL     1       1.116   3.827  21.091  0.00  0.00    +0.000 C 
ATOM      3  C   UNL     1       1.558   2.492  21.662  0.00  0.00    +0.000 C 
ATOM      4  C   UNL     1       2.998   2.350  21.183  0.00  0.00    +0.000 C 
ATOM      5  N   UNL     1       3.176   3.317  20.104  0.00  0.00    +0.000 N 
ATOM      6  C   UNL     1       4.404   3.329  19.468  0.00  0.00    +0.000 C 
ATOM      7  O   UNL     1       5.317   2.595  19.846  0.00  0.00    +0.000 OA
ATOM      8  N   UNL     1       4.566   4.235  18.466  0.00  0.00    +0.000 N 
ATOM      9  H   UNL     1       3.745   4.644  18.049  0.00  0.00    +0.000 HD
ENDROOT
BRANCH   1  13
ATOM     10  C   UNL     1       2.023   7.374  18.902  0.00  0.00    +0.000 A 
ATOM     11  N   UNL     1       2.295   6.861  17.698  0.00  0.00    +0.000 NA
ATOM     12  O   UNL     1       2.213   5.487  17.910  0.00  0.00    +0.000 OA
ATOM     13  C   UNL     1       1.900   5.310  19.228  0.00  0.00    +0.000 A 
ATOM     14  N   UNL     1       1.768   6.448  19.883  0.00  0.00    +0.000 NA
BRANCH  10  16
ATOM     15  C   UNL     1       1.939   9.650  17.882  0.00  0.00    +0.000 C 
ATOM     16  C   UNL     1       2.066   8.840  19.171  0.00  0.00    +0.000 C 
ATOM     17  C   UNL     1       0.983   9.241  20.173  0.00  0.00    +0.000 C 
ENDBRANCH  10  16
ENDBRANCH   1  13
BRANCH   8  18
ATOM     18  C   UNL     1       5.805   4.474  17.740  0.00  0.00    +0.000 C 
ATOM     19  C   UNL     1       5.777   4.187  16.241  0.00  0.00    +0.000 C 
ATOM     20  C   UNL     1       7.050   4.854  15.732  0.00  0.00    +0.000 C 
ATOM     21  C   UNL     1       7.304   6.043  16.659  0.00  0.00    +0.000 C 
ATOM     22  C   UNL     1       6.338   5.899  17.833  0.00  0.00    +0.000 C 
ENDBRANCH   8  18
TORSDOF 3
ENDMDL
MODEL 6
REMARK VINA RESULT:      -6.3      2.081      5.666
REMARK  Name = 
REMARK  5 active torsions:
REMARK  status: ('A' for Active; 'I' for Inactive)
REMARK    1  A    between atoms: C_1  and  C_2
REMARK    2  A    between atoms: C_2  and  C_3
REMARK    3  A    between atoms: C_2  and  C_4
REMARK    4  A    between atoms: C_7  and  C_8
REMARK    5  A    between atoms: N_15  and  C_16
REMARK                            x       y       z     vdW  Elec       q    Type
REMARK                         _______ _______ _______ _____ _____    ______ ____
ROOT
ATOM      1  C   UNL     1       2.361   8.080  17.892  0.00  0.00    +0.000 C 
ATOM      2  C   UNL     1       2.581   9.579  17.658  0.00  0.00    +0.000 C 
ATOM      3  C   UNL     1       1.432  10.230  18.406  0.00  0.00    +0.000 C 
ATOM      4  C   UNL     1       1.192   9.298  19.589  0.00  0.00    +0.000 C 
ATOM      5  N   UNL     1       1.868   8.043  19.274  0.00  0.00    +0.000 N 
ATOM      6  C   UNL     1       1.738   7.014  20.188  0.00  0.00    +0.000 C 
ATOM      7  O   UNL     1       1.129   7.182  21.244  0.00  0.00    +0.000 OA
ATOM      8  N   UNL     1       2.372   5.847  19.892  0.00  0.00    +0.000 N 
ATOM      9  H   UNL     1       2.656   5.682  18.939  0.00  0.00    +0.000 HD
ENDROOT
BRANCH   1  13
ATOM     10  C   UNL     1       5.490   6.464  17.383  0.00  0.00    +0.000 A 
ATOM     11  N   UNL     1       4.693   5.406  17.203  0.00  0.00    +0.000 NA
ATOM     12  O   UNL     1       3.414   5.942  17.330  0.00  0.00    +0.000 OA
ATOM     13  C   UNL     1       3.570   7.277  17.576  0.00  0.00    +0.000 A 
ATOM     14  N   UNL     1       4.836   7.649  17.615  0.00  0.00    +0.000 NA
BRANCH  10  16
ATOM     15  C   UNL     1       7.642   7.720  17.508  0.00  0.00    +0.000 C 
ATOM     16  C   UNL     1       6.976   6.349  17.403  0.00  0.00    +0.000 C 
ATOM     17  C   UNL     1       7.435   5.433  18.539  0.00  0.00    +0.000 C 
ENDBRANCH  10  16
ENDBRANCH   1  13
BRANCH   8  18
ATOM     18  C   UNL     1       2.440   4.681  20.762  0.00  0.00    +0.000 C 
ATOM     19  C   UNL     1       1.170   3.840  20.866  0.00  0.00    +0.000 C 
ATOM     20  C   UNL     1       1.655   2.554  21.527  0.00  0.00    +0.000 C 
ATOM     21  C   UNL     1       3.107   2.374  21.086  0.00  0.00    +0.000 C 
ATOM     22  C   UNL     1       3.523   3.673  20.397  0.00  0.00    +0.000 C 
ENDBRANCH   8  18
TORSDOF 3
ENDMDL
MODEL 7
REMARK VINA RESULT:      -6.3      2.146      5.182
REMARK  Name = 
REMARK  5 active torsions:
REMARK  status: ('A' for Active; 'I' for Inactive)
REMARK    1  A    between atoms: C_1  and  C_2
REMARK    2  A    between atoms: C_2  and  C_3
REMARK    3  A    between atoms: C_2  and  C_4
REMARK    4  A    between atoms: C_7  and  C_8
REMARK    5  A    between atoms: N_15  and  C_16
REMARK                            x       y       z     vdW  Elec       q    Type
REMARK                         _______ _______ _______ _____ _____    ______ ____
ROOT
ATOM      1  C   UNL     1       1.857   4.221  18.644  0.00  0.00    +0.000 C 
ATOM      2  C   UNL     1       0.940   3.327  19.486  0.00  0.00    +0.000 C 
ATOM      3  C   UNL     1       1.298   1.923  19.034  0.00  0.00    +0.000 C 
ATOM      4  C   UNL     1       2.783   2.015  18.698  0.00  0.00    +0.000 C 
ATOM      5  N   UNL     1       3.095   3.435  18.578  0.00  0.00    +0.000 N 
ATOM      6  C   UNL     1       4.389   3.765  18.216  0.00  0.00    +0.000 C 
ATOM      7  O   UNL     1       5.243   2.892  18.067  0.00  0.00    +0.000 OA
ATOM      8  N   UNL     1       4.677   5.090  18.110  0.00  0.00    +0.000 N 
ATOM      9  H   UNL     1       3.914   5.742  18.017  0.00  0.00    +0.000 HD
ENDROOT
BRANCH   1  13
ATOM     10  C   UNL     1       1.968   7.667  19.525  0.00  0.00    +0.000 A 
ATOM     11  N   UNL     1       1.739   7.163  20.742  0.00  0.00    +0.000 NA
ATOM     12  O   UNL     1       1.730   5.788  20.522  0.00  0.00    +0.000 OA
ATOM     13  C   UNL     1       1.952   5.601  19.187  0.00  0.00    +0.000 A 
ATOM     14  N   UNL     1       2.109   6.733  18.528  0.00  0.00    +0.000 NA
BRANCH  10  16
ATOM     15  C   UNL     1       1.891   9.436  17.767  0.00  0.00    +0.000 C 
ATOM     16  C   UNL     1       1.991   9.134  19.262  0.00  0.00    +0.000 C 
ATOM     17  C   UNL     1       0.878   9.843  20.035  0.00  0.00    +0.000 C 
ENDBRANCH  10  16
ENDBRANCH   1  13
BRANCH   8  18
ATOM     18  C   UNL     1       5.994   5.646  17.837  0.00  0.00    +0.000 C 
ATOM     19  C   UNL     1       6.027   7.069  17.284  0.00  0.00    +0.000 C 
ATOM     20  C   UNL     1       7.488   7.474  17.445  0.00  0.00    +0.000 C 
ATOM     21  C   UNL     1       8.005   6.715  18.667  0.00  0.00    +0.000 C 
ATOM     22  C   UNL     1       6.931   5.695  19.038  0.00  0.00    +0.000 C 
ENDBRANCH   8  18
TORSDOF 3
ENDMDL
MODEL 8
REMARK VINA RESULT:      -6.3      0.597      1.061
REMARK  Name = 
REMARK  5 active torsions:
REMARK  status: ('A' for Active; 'I' for Inactive)
REMARK    1  A    between atoms: C_1  and  C_2
REMARK    2  A    between atoms: C_2  and  C_3
REMARK    3  A    between atoms: C_2  and  C_4
REMARK    4  A    between atoms: C_7  and  C_8
REMARK    5  A    between atoms: N_15  and  C_16
REMARK                            x       y       z     vdW  Elec       q    Type
REMARK                         _______ _______ _______ _____ _____    ______ ____
ROOT
ATOM      1  C   UNL     1       4.587   4.329  16.477  0.00  0.00    +0.000 C 
ATOM      2  C   UNL     1       5.966   3.663  16.421  0.00  0.00    +0.000 C 
ATOM      3  C   UNL     1       6.870   4.758  15.885  0.00  0.00    +0.000 C 
ATOM      4  C   UNL     1       6.260   6.040  16.442  0.00  0.00    +0.000 C 
ATOM      5  N   UNL     1       4.912   5.700  16.886  0.00  0.00    +0.000 N 
ATOM      6  C   UNL     1       4.136   6.732  17.381  0.00  0.00    +0.000 C 
ATOM      7  O   UNL     1       4.596   7.868  17.494  0.00  0.00    +0.000 OA
ATOM      8  N   UNL     1       2.881   6.411  17.798  0.00  0.00    +0.000 N 
ATOM      9  H   UNL     1       2.477   5.543  17.483  0.00  0.00    +0.000 HD
ENDROOT
BRANCH   1  13
ATOM     10  C   UNL     1       2.437   2.780  18.852  0.00  0.00    +0.000 A 
ATOM     11  N   UNL     1       1.736   2.504  17.747  0.00  0.00    +0.000 NA
ATOM     12  O   UNL     1       2.527   3.028  16.727  0.00  0.00    +0.000 OA
ATOM     13  C   UNL     1       3.629   3.572  17.324  0.00  0.00    +0.000 A 
ATOM     14  N   UNL     1       3.621   3.440  18.637  0.00  0.00    +0.000 NA
BRANCH  10  16
ATOM     15  C   UNL     1       3.053   2.498  21.253  0.00  0.00    +0.000 C 
ATOM     16  C   UNL     1       1.931   2.459  20.217  0.00  0.00    +0.000 C 
ATOM     17  C   UNL     1       0.795   3.404  20.612  0.00  0.00    +0.000 C 
ENDBRANCH  10  16
ENDBRANCH   1  13
BRANCH   8  18
ATOM     18  C   UNL     1       1.945   7.326  18.436  0.00  0.00    +0.000 C 
ATOM     19  C   UNL     1       2.137   7.555  19.933  0.00  0.00    +0.000 C 
ATOM     20  C   UNL     1       1.277   8.782  20.213  0.00  0.00    +0.000 C 
ATOM     21  C   UNL     1       1.284   9.605  18.925  0.00  0.00    +0.000 C 
ATOM     22  C   UNL     1       1.922   8.731  17.847  0.00  0.00    +0.000 C 
ENDBRANCH   8  18
TORSDOF 3
ENDMDL
MODEL 9
REMARK VINA RESULT:      -6.2      1.901      4.709
REMARK  Name = 
REMARK  5 active torsions:
REMARK  status: ('A' for Active; 'I' for Inactive)
REMARK    1  A    between atoms: C_1  and  C_2
REMARK    2  A    between atoms: C_2  and  C_3
REMARK    3  A    between atoms: C_2  and  C_4
REMARK    4  A    between atoms: C_7  and  C_8
REMARK    5  A    between atoms: N_15  and  C_16
REMARK                            x       y       z     vdW  Elec       q    Type
REMARK                         _______ _______ _______ _____ _____    ______ ____
ROOT
ATOM      1  C   UNL     1       3.724   3.627  20.404  0.00  0.00    +0.000 C 
ATOM      2  C   UNL     1       3.335   2.145  20.455  0.00  0.00    +0.000 C 
ATOM      3  C   UNL     1       2.239   2.100  21.504  0.00  0.00    +0.000 C 
ATOM      4  C   UNL     1       1.536   3.445  21.357  0.00  0.00    +0.000 C 
ATOM      5  N   UNL     1       2.434   4.302  20.589  0.00  0.00    +0.000 N 
ATOM      6  C   UNL     1       2.028   5.607  20.377  0.00  0.00    +0.000 C 
ATOM      7  O   UNL     1       0.928   5.996  20.771  0.00  0.00    +0.000 OA
ATOM      8  N   UNL     1       2.865   6.401  19.657  0.00  0.00    +0.000 N 
ATOM      9  H   UNL     1       3.828   6.118  19.556  0.00  0.00    +0.000 HD
ENDROOT
BRANCH   1  13
ATOM     10  C   UNL     1       5.191   4.575  17.304  0.00  0.00    +0.000 A 
ATOM     11  N   UNL     1       6.280   4.678  18.073  0.00  0.00    +0.000 NA
ATOM     12  O   UNL     1       5.827   4.271  19.325  0.00  0.00    +0.000 OA
ATOM     13  C   UNL     1       4.503   3.964  19.184  0.00  0.00    +0.000 A 
ATOM     14  N   UNL     1       4.064   4.133  17.951  0.00  0.00    +0.000 NA
BRANCH  10  16
ATOM     15  C   UNL     1       5.180   6.503  15.720  0.00  0.00    +0.000 C 
ATOM     16  C   UNL     1       5.188   4.983  15.870  0.00  0.00    +0.000 C 
ATOM     17  C   UNL     1       6.376   4.370  15.127  0.00  0.00    +0.000 C 
ENDBRANCH  10  16
ENDBRANCH   1  13
BRANCH   8  18
ATOM     18  C   UNL     1       2.582   7.768  19.244  0.00  0.00    +0.000 C 
ATOM     19  C   UNL     1       2.089   7.953  17.811  0.00  0.00    +0.000 C 
ATOM     20  C   UNL     1       1.558   9.382  17.805  0.00  0.00    +0.000 C 
ATOM     21  C   UNL     1       1.059   9.653  19.225  0.00  0.00    +0.000 C 
ATOM     22  C   UNL     1       1.540   8.489  20.090  0.00  0.00    +0.000 C 
ENDBRANCH   8  18
TORSDOF 3
ENDMDL
