MODEL 1
REMARK VINA RESULT:      -6.9      0.000      0.000
REMARK  Name = 
REMARK  5 active torsions:
REMARK  status: ('A' for Active; 'I' for Inactive)
REMARK    1  A    between atoms: C_1  and  C_2
REMARK    2  A    between atoms: C_5  and  S_6
REMARK    3  A    between atoms: S_6  and  N_9
REMARK    4  A    between atoms: C_13  and  C_14
REMARK    5  A    between atoms: C_26  and  C_27
REMARK                            x       y       z     vdW  Elec       q    Type
REMARK                         _______ _______ _______ _____ _____    ______ ____
ROOT
ATOM      1  N   UNL     1      -0.796  10.736  18.934  0.00  0.00    +0.000 NA
ATOM      2  C   UNL     1      -1.625   9.702  18.330  0.00  0.00    +0.000 C 
ATOM      3  C   UNL     1      -2.054  10.382  17.040  0.00  0.00    +0.000 C 
ATOM      4  C   UNL     1      -2.212  11.859  17.409  0.00  0.00    +0.000 C 
ATOM      5  C   UNL     1      -1.442  12.048  18.733  0.00  0.00    +0.000 C 
ENDROOT
BRANCH   5   6
ATOM      6  C   UNL     1      -2.462  12.470  19.805  0.00  0.00    +0.000 C 
ATOM      7  O   UNL     1      -3.553  11.893  19.880  0.00  0.00    +0.000 OA
ATOM      8  N   UNL     1      -2.160  13.637  20.546  0.00  0.00    +0.000 N 
ATOM      9  C   UNL     1      -3.167  14.103  21.451  0.00  0.00    +0.000 A 
ATOM     10  C   UNL     1      -3.850  15.293  21.207  0.00  0.00    +0.000 A 
ATOM     11  C   UNL     1      -4.582  15.881  22.244  0.00  0.00    +0.000 A 
ATOM     12  C   UNL     1      -4.676  15.244  23.482  0.00  0.00    +0.000 A 
ATOM     13  F   UNL     1      -5.349  15.836  24.478  0.00  0.00    +0.000 F 
ATOM     14  C   UNL     1      -4.000  14.059  23.736  0.00  0.00    +0.000 A 
ATOM     15  C   UNL     1      -3.176  13.539  22.739  0.00  0.00    +0.000 A 
ATOM     16  C   UNL     1      -2.045  12.599  23.051  0.00  0.00    +0.000 C 
ATOM     17  C   UNL     1      -0.793  13.388  22.653  0.00  0.00    +0.000 C 
ATOM     18  C   UNL     1      -0.808  13.782  21.149  0.00  0.00    +0.000 C 
ATOM     19  C   UNL     1      -0.310  15.207  20.898  0.00  0.00    +0.000 C 
ENDBRANCH   5   6
BRANCH   1  20
ATOM     20  S   UNL     1       0.334  10.438  20.114  0.00  0.00    +0.000 S 
ATOM     21  O   UNL     1      -0.406   9.994  21.279  0.00  0.00    +0.000 OA
ATOM     22  O   UNL     1       1.222  11.580  20.188  0.00  0.00    +0.000 OA
BRANCH  20  27
ATOM     23  C   UNL     1       3.711   5.778  18.187  0.00  0.00    +0.000 C 
ATOM     24  C   UNL     1       2.856   6.911  18.666  0.00  0.00    +0.000 A 
ATOM     25  C   UNL     1       2.279   6.896  19.944  0.00  0.00    +0.000 A 
ATOM     26  C   UNL     1       1.498   7.966  20.392  0.00  0.00    +0.000 A 
ATOM     27  C   UNL     1       1.312   9.072  19.565  0.00  0.00    +0.000 A 
ATOM     28  C   UNL     1       1.843   9.078  18.270  0.00  0.00    +0.000 A 
ATOM     29  C   UNL     1       2.614   8.000  17.826  0.00  0.00    +0.000 A 
ENDBRANCH  20  27
ENDBRANCH   1  20
TORSDOF 3
ENDMDL
MODEL 2
REMARK VINA RESULT:      -6.8      0.553      1.054
REMARK  Name = 
REMARK  5 active torsions:
REMARK  status: ('A' for Active; 'I' for Inactive)
REMARK    1  A    between atoms: C_1  and  C_2
REMARK    2  A    between atoms: C_5  and  S_6
REMARK    3  A    between atoms: S_6  and  N_9
REMARK    4  A    between atoms: C_13  and  C_14
REMARK    5  A    between atoms: C_26  and  C_27
REMARK                            x       y       z     vdW  Elec       q    Type
REMARK                         _______ _______ _______ _____ _____    ______ ____
ROOT
ATOM      1  N   UNL     1      -1.016  10.741  18.600  0.00  0.00    +0.000 NA
ATOM      2  C   UNL     1      -1.733   9.630  17.991  0.00  0.00    +0.000 C 
ATOM      3  C   UNL     1      -2.241  10.271  16.710  0.00  0.00    +0.000 C 
ATOM      4  C   UNL     1      -2.553  11.720  17.094  0.00  0.00    +0.000 C 
ATOM      5  C   UNL     1      -1.799  11.978  18.416  0.00  0.00    +0.000 C 
ENDROOT
BRANCH   5   6
ATOM      6  C   UNL     1      -2.852  12.279  19.498  0.00  0.00    +0.000 C 
ATOM      7  O   UNL     1      -3.881  11.598  19.564  0.00  0.00    +0.000 OA
ATOM      8  N   UNL     1      -2.661  13.455  20.261  0.00  0.00    +0.000 N 
ATOM      9  C   UNL     1      -3.704  13.804  21.177  0.00  0.00    +0.000 A 
ATOM     10  C   UNL     1      -4.499  14.927  20.958  0.00  0.00    +0.000 A 
ATOM     11  C   UNL     1      -5.281  15.422  22.008  0.00  0.00    +0.000 A 
ATOM     12  C   UNL     1      -5.309  14.754  23.233  0.00  0.00    +0.000 A 
ATOM     13  F   UNL     1      -6.031  15.259  24.242  0.00  0.00    +0.000 F 
ATOM     14  C   UNL     1      -4.520  13.635  23.463  0.00  0.00    +0.000 A 
ATOM     15  C   UNL     1      -3.654  13.217  22.454  0.00  0.00    +0.000 A 
ATOM     16  C   UNL     1      -2.437  12.383  22.745  0.00  0.00    +0.000 C 
ATOM     17  C   UNL     1      -1.267  13.298  22.361  0.00  0.00    +0.000 C 
ATOM     18  C   UNL     1      -1.326  13.718  20.865  0.00  0.00    +0.000 C 
ATOM     19  C   UNL     1      -0.969  15.188  20.641  0.00  0.00    +0.000 C 
ENDBRANCH   5   6
BRANCH   1  20
ATOM     20  S   UNL     1       0.148  10.556  19.771  0.00  0.00    +0.000 S 
ATOM     21  O   UNL     1      -0.546  10.113  20.964  0.00  0.00    +0.000 OA
ATOM     22  O   UNL     1       0.968  11.750  19.787  0.00  0.00    +0.000 OA
BRANCH  20  27
ATOM     23  C   UNL     1       3.730   5.970  18.045  0.00  0.00    +0.000 C 
ATOM     24  C   UNL     1       2.867   7.120  18.467  0.00  0.00    +0.000 A 
ATOM     25  C   UNL     1       2.623   8.199  17.607  0.00  0.00    +0.000 A 
ATOM     26  C   UNL     1       1.801   9.260  18.000  0.00  0.00    +0.000 A 
ATOM     27  C   UNL     1       1.197   9.229  19.256  0.00  0.00    +0.000 A 
ATOM     28  C   UNL     1       1.470   8.180  20.142  0.00  0.00    +0.000 A 
ATOM     29  C   UNL     1       2.301   7.129  19.744  0.00  0.00    +0.000 A 
ENDBRANCH  20  27
ENDBRANCH   1  20
TORSDOF 3
ENDMDL
MODEL 3
REMARK VINA RESULT:      -6.7      2.672      4.568
REMARK  Name = 
REMARK  5 active torsions:
REMARK  status: ('A' for Active; 'I' for Inactive)
REMARK    1  A    between atoms: C_1  and  C_2
REMARK    2  A    between atoms: C_5  and  S_6
REMARK    3  A    between atoms: S_6  and  N_9
REMARK    4  A    between atoms: C_13  and  C_14
REMARK    5  A    between atoms: C_26  and  C_27
REMARK                            x       y       z     vdW  Elec       q    Type
REMARK                         _______ _______ _______ _____ _____    ______ ____
ROOT
ATOM      1  N   UNL     1       0.285  10.269  21.080  0.00  0.00    +0.000 NA
ATOM      2  C   UNL     1       1.232   9.764  22.064  0.00  0.00    +0.000 C 
ATOM      3  C   UNL     1       0.293   9.253  23.145  0.00  0.00    +0.000 C 
ATOM      4  C   UNL     1      -0.885  10.230  23.134  0.00  0.00    +0.000 C 
ATOM      5  C   UNL     1      -0.809  10.969  21.781  0.00  0.00    +0.000 C 
ENDROOT
BRANCH   5   6
ATOM      6  C   UNL     1      -0.576  12.460  22.081  0.00  0.00    +0.000 C 
ATOM      7  O   UNL     1       0.546  12.954  21.921  0.00  0.00    +0.000 OA
ATOM      8  N   UNL     1      -1.638  13.157  22.704  0.00  0.00    +0.000 N 
ATOM      9  C   UNL     1      -1.376  14.508  23.100  0.00  0.00    +0.000 A 
ATOM     10  C   UNL     1      -1.301  14.855  24.448  0.00  0.00    +0.000 A 
ATOM     11  C   UNL     1      -1.366  16.205  24.807  0.00  0.00    +0.000 A 
ATOM     12  C   UNL     1      -1.436  17.188  23.818  0.00  0.00    +0.000 A 
ATOM     13  F   UNL     1      -1.536  18.476  24.177  0.00  0.00    +0.000 F 
ATOM     14  C   UNL     1      -1.512  16.855  22.473  0.00  0.00    +0.000 A 
ATOM     15  C   UNL     1      -1.568  15.506  22.128  0.00  0.00    +0.000 A 
ATOM     16  C   UNL     1      -2.145  15.043  20.819  0.00  0.00    +0.000 C 
ATOM     17  C   UNL     1      -3.382  14.234  21.230  0.00  0.00    +0.000 C 
ATOM     18  C   UNL     1      -3.011  13.033  22.146  0.00  0.00    +0.000 C 
ATOM     19  C   UNL     1      -3.994  12.837  23.303  0.00  0.00    +0.000 C 
ENDBRANCH   5   6
BRANCH   1  20
ATOM     20  S   UNL     1       0.663  10.522  19.483  0.00  0.00    +0.000 S 
ATOM     21  O   UNL     1       1.263   9.290  19.010  0.00  0.00    +0.000 OA
ATOM     22  O   UNL     1       1.371  11.782  19.379  0.00  0.00    +0.000 OA
BRANCH  20  27
ATOM     23  C   UNL     1      -4.573  11.170  16.482  0.00  0.00    +0.000 C 
ATOM     24  C   UNL     1      -3.272  11.035  17.213  0.00  0.00    +0.000 A 
ATOM     25  C   UNL     1      -2.882  11.972  18.181  0.00  0.00    +0.000 A 
ATOM     26  C   UNL     1      -1.675  11.829  18.873  0.00  0.00    +0.000 A 
ATOM     27  C   UNL     1      -0.863  10.726  18.614  0.00  0.00    +0.000 A 
ATOM     28  C   UNL     1      -1.218   9.810  17.617  0.00  0.00    +0.000 A 
ATOM     29  C   UNL     1      -2.421   9.966  16.923  0.00  0.00    +0.000 A 
ENDBRANCH  20  27
ENDBRANCH   1  20
TORSDOF 3
ENDMDL
MODEL 4
REMARK VINA RESULT:      -6.6      1.128      1.568
REMARK  Name = 
REMARK  5 active torsions:
REMARK  status: ('A' for Active; 'I' for Inactive)
REMARK    1  A    between atoms: C_1  and  C_2
REMARK    2  A    between atoms: C_5  and  S_6
REMARK    3  A    between atoms: S_6  and  N_9
REMARK    4  A    between atoms: C_13  and  C_14
REMARK    5  A    between atoms: C_26  and  C_27
REMARK                            x       y       z     vdW  Elec       q    Type
REMARK                         _______ _______ _______ _____ _____    ______ ____
ROOT
ATOM      1  N   UNL     1      -0.470  10.761  19.801  0.00  0.00    +0.000 NA
ATOM      2  C   UNL     1      -1.521  10.315  18.898  0.00  0.00    +0.000 C 
ATOM      3  C   UNL     1      -1.531  11.440  17.876  0.00  0.00    +0.000 C 
ATOM      4  C   UNL     1      -1.219  12.704  18.681  0.00  0.00    +0.000 C 
ATOM      5  C   UNL     1      -0.599  12.217  20.008  0.00  0.00    +0.000 C 
ENDROOT
BRANCH   5   6
ATOM      6  C   UNL     1      -1.537  12.658  21.146  0.00  0.00    +0.000 C 
ATOM      7  O   UNL     1      -2.075  11.809  21.866  0.00  0.00    +0.000 OA
ATOM      8  N   UNL     1      -1.877  14.031  21.194  0.00  0.00    +0.000 N 
ATOM      9  C   UNL     1      -2.849  14.418  22.172  0.00  0.00    +0.000 A 
ATOM     10  C   UNL     1      -4.116  14.848  21.784  0.00  0.00    +0.000 A 
ATOM     11  C   UNL     1      -4.921  15.515  22.715  0.00  0.00    +0.000 A 
ATOM     12  C   UNL     1      -4.479  15.683  24.028  0.00  0.00    +0.000 A 
ATOM     13  F   UNL     1      -5.243  16.357  24.898  0.00  0.00    +0.000 F 
ATOM     14  C   UNL     1      -3.218  15.260  24.424  0.00  0.00    +0.000 A 
ATOM     15  C   UNL     1      -2.374  14.704  23.464  0.00  0.00    +0.000 A 
ATOM     16  C   UNL     1      -0.880  14.685  23.633  0.00  0.00    +0.000 C 
ATOM     17  C   UNL     1      -0.372  15.584  22.499  0.00  0.00    +0.000 C 
ATOM     18  C   UNL     1      -0.795  15.048  21.101  0.00  0.00    +0.000 C 
ATOM     19  C   UNL     1      -1.246  16.155  20.146  0.00  0.00    +0.000 C 
ENDBRANCH   5   6
BRANCH   1  20
ATOM     20  S   UNL     1       0.338   9.753  20.845  0.00  0.00    +0.000 S 
ATOM     21  O   UNL     1      -0.671   8.912  21.456  0.00  0.00    +0.000 OA
ATOM     22  O   UNL     1       1.225  10.560  21.658  0.00  0.00    +0.000 OA
BRANCH  20  27
ATOM     23  C   UNL     1       3.858   6.107  17.505  0.00  0.00    +0.000 C 
ATOM     24  C   UNL     1       3.009   7.027  18.329  0.00  0.00    +0.000 A 
ATOM     25  C   UNL     1       2.611   8.280  17.841  0.00  0.00    +0.000 A 
ATOM     26  C   UNL     1       1.802   9.125  18.608  0.00  0.00    +0.000 A 
ATOM     27  C   UNL     1       1.367   8.704  19.863  0.00  0.00    +0.000 A 
ATOM     28  C   UNL     1       1.796   7.476  20.380  0.00  0.00    +0.000 A 
ATOM     29  C   UNL     1       2.612   6.641  19.611  0.00  0.00    +0.000 A 
ENDBRANCH  20  27
ENDBRANCH   1  20
TORSDOF 3
ENDMDL
MODEL 5
REMARK VINA RESULT:      -6.6      3.308      7.502
REMARK  Name = 
REMARK  5 active torsions:
REMARK  status: ('A' for Active; 'I' for Inactive)
REMARK    1  A    between atoms: C_1  and  C_2
REMARK    2  A    between atoms: C_5  and  S_6
REMARK    3  A    between atoms: S_6  and  N_9
REMARK    4  A    between atoms: C_13  and  C_14
REMARK    5  A    between atoms: C_26  and  C_27
REMARK                            x       y       z     vdW  Elec       q    Type
REMARK                         _______ _______ _______ _____ _____    ______ ____
ROOT
ATOM      1  N   UNL     1      -0.251  14.137  21.135  0.00  0.00    +0.000 NA
ATOM      2  C   UNL     1       0.805  15.139  21.169  0.00  0.00    +0.000 C 
ATOM      3  C   UNL     1       0.767  15.659  19.741  0.00  0.00    +0.000 C 
ATOM      4  C   UNL     1       0.420  14.437  18.887  0.00  0.00    +0.000 C 
ATOM      5  C   UNL     1      -0.169  13.395  19.862  0.00  0.00    +0.000 C 
ENDROOT
BRANCH   5   6
ATOM      6  C   UNL     1       0.766  12.172  19.850  0.00  0.00    +0.000 C 
ATOM      7  O   UNL     1       1.918  12.272  20.287  0.00  0.00    +0.000 OA
ATOM      8  N   UNL     1       0.303  11.024  19.164  0.00  0.00    +0.000 N 
ATOM      9  C   UNL     1       1.222   9.933  19.043  0.00  0.00    +0.000 A 
ATOM     10  C   UNL     1       1.756   9.586  17.804  0.00  0.00    +0.000 A 
ATOM     11  C   UNL     1       2.385   8.344  17.659  0.00  0.00    +0.000 A 
ATOM     12  C   UNL     1       2.529   7.501  18.761  0.00  0.00    +0.000 A 
ATOM     13  F   UNL     1       3.099   6.298  18.601  0.00  0.00    +0.000 F 
ATOM     14  C   UNL     1       2.000   7.836  20.000  0.00  0.00    +0.000 A 
ATOM     15  C   UNL     1       1.272   9.019  20.111  0.00  0.00    +0.000 A 
ATOM     16  C   UNL     1       0.260   9.232  21.202  0.00  0.00    +0.000 C 
ATOM     17  C   UNL     1      -1.072   9.342  20.451  0.00  0.00    +0.000 C 
ATOM     18  C   UNL     1      -1.071  10.522  19.438  0.00  0.00    +0.000 C 
ATOM     19  C   UNL     1      -1.737  10.169  18.106  0.00  0.00    +0.000 C 
ENDBRANCH   5   6
BRANCH   1  20
ATOM     20  S   UNL     1      -1.012  13.554  22.491  0.00  0.00    +0.000 S 
ATOM     21  O   UNL     1      -1.003  14.635  23.455  0.00  0.00    +0.000 OA
ATOM     22  O   UNL     1      -0.436  12.264  22.814  0.00  0.00    +0.000 OA
BRANCH  20  27
ATOM     23  C   UNL     1      -6.789  12.525  20.938  0.00  0.00    +0.000 C 
ATOM     24  C   UNL     1      -5.370  12.803  21.334  0.00  0.00    +0.000 A 
ATOM     25  C   UNL     1      -5.009  12.958  22.679  0.00  0.00    +0.000 A 
ATOM     26  C   UNL     1      -3.679  13.197  23.043  0.00  0.00    +0.000 A 
ATOM     27  C   UNL     1      -2.699  13.259  22.054  0.00  0.00    +0.000 A 
ATOM     28  C   UNL     1      -3.055  13.154  20.704  0.00  0.00    +0.000 A 
ATOM     29  C   UNL     1      -4.387  12.924  20.349  0.00  0.00    +0.000 A 
ENDBRANCH  20  27
ENDBRANCH   1  20
TORSDOF 3
ENDMDL
MODEL 6
REMARK VINA RESULT:      -6.5      1.099      1.492
REMARK  Name = 
REMARK  5 active torsions:
REMARK  status: ('A' for Active; 'I' for Inactive)
REMARK    1  A    between atoms: C_1  and  C_2
REMARK    2  A    between atoms: C_5  and  S_6
REMARK    3  A    between atoms: S_6  and  N_9
REMARK    4  A    between atoms: C_13  and  C_14
REMARK    5  A    between atoms: C_26  and  C_27
REMARK                            x       y       z     vdW  Elec       q    Type
REMARK                         _______ _______ _______ _____ _____    ______ ____
ROOT
ATOM      1  N   UNL     1      -0.515  10.903  18.617  0.00  0.00    +0.000 NA
ATOM      2  C   UNL     1      -1.426   9.772  18.500  0.00  0.00    +0.000 C 
ATOM      3  C   UNL     1      -2.282  10.202  17.320  0.00  0.00    +0.000 C 
ATOM      4  C   UNL     1      -2.407  11.721  17.458  0.00  0.00    +0.000 C 
ATOM      5  C   UNL     1      -1.272  12.153  18.411  0.00  0.00    +0.000 C 
ENDROOT
BRANCH   5   6
ATOM      6  C   UNL     1      -1.926  12.762  19.664  0.00  0.00    +0.000 C 
ATOM      7  O   UNL     1      -2.847  12.165  20.231  0.00  0.00    +0.000 OA
ATOM      8  N   UNL     1      -1.547  14.083  20.001  0.00  0.00    +0.000 N 
ATOM      9  C   UNL     1      -2.248  14.696  21.088  0.00  0.00    +0.000 A 
ATOM     10  C   UNL     1      -3.118  15.762  20.864  0.00  0.00    +0.000 A 
ATOM     11  C   UNL     1      -3.535  16.538  21.951  0.00  0.00    +0.000 A 
ATOM     12  C   UNL     1      -3.134  16.202  23.245  0.00  0.00    +0.000 A 
ATOM     13  F   UNL     1      -3.508  16.976  24.273  0.00  0.00    +0.000 F 
ATOM     14  C   UNL     1      -2.266  15.144  23.479  0.00  0.00    +0.000 A 
ATOM     15  C   UNL     1      -1.760  14.448  22.383  0.00  0.00    +0.000 A 
ATOM     16  C   UNL     1      -0.480  13.663  22.461  0.00  0.00    +0.000 C 
ATOM     17  C   UNL     1       0.461  14.399  21.500  0.00  0.00    +0.000 C 
ATOM     18  C   UNL     1      -0.101  14.431  20.049  0.00  0.00    +0.000 C 
ATOM     19  C   UNL     1       0.101  15.781  19.358  0.00  0.00    +0.000 C 
ENDBRANCH   5   6
BRANCH   1  20
ATOM     20  S   UNL     1       0.946  10.831  19.403  0.00  0.00    +0.000 S 
ATOM     21  O   UNL     1       0.645  10.879  20.820  0.00  0.00    +0.000 OA
ATOM     22  O   UNL     1       1.833  11.804  18.798  0.00  0.00    +0.000 OA
BRANCH  20  27
ATOM     23  C   UNL     1       3.297   5.345  18.302  0.00  0.00    +0.000 C 
ATOM     24  C   UNL     1       2.742   6.711  18.570  0.00  0.00    +0.000 A 
ATOM     25  C   UNL     1       2.780   7.715  17.591  0.00  0.00    +0.000 A 
ATOM     26  C   UNL     1       2.242   8.981  17.840  0.00  0.00    +0.000 A 
ATOM     27  C   UNL     1       1.639   9.239  19.070  0.00  0.00    +0.000 A 
ATOM     28  C   UNL     1       1.637   8.262  20.071  0.00  0.00    +0.000 A 
ATOM     29  C   UNL     1       2.185   7.001  19.817  0.00  0.00    +0.000 A 
ENDBRANCH  20  27
ENDBRANCH   1  20
TORSDOF 3
ENDMDL
MODEL 7
REMARK VINA RESULT:      -6.5      0.977      1.033
REMARK  Name = 
REMARK  5 active torsions:
REMARK  status: ('A' for Active; 'I' for Inactive)
REMARK    1  A    between atoms: C_1  and  C_2
REMARK    2  A    between atoms: C_5  and  S_6
REMARK    3  A    between atoms: S_6  and  N_9
REMARK    4  A    between atoms: C_13  and  C_14
REMARK    5  A    between atoms: C_26  and  C_27
REMARK                            x       y       z     vdW  Elec       q    Type
REMARK                         _______ _______ _______ _____ _____    ______ ____
ROOT
ATOM      1  N   UNL     1      -0.690  10.668  19.150  0.00  0.00    +0.000 NA
ATOM      2  C   UNL     1      -1.777   9.862  18.611  0.00  0.00    +0.000 C 
ATOM      3  C   UNL     1      -2.063  10.585  17.305  0.00  0.00    +0.000 C 
ATOM      4  C   UNL     1      -1.823  12.065  17.615  0.00  0.00    +0.000 C 
ATOM      5  C   UNL     1      -0.984  12.094  18.910  0.00  0.00    +0.000 C 
ENDROOT
BRANCH   5   6
ATOM      6  C   UNL     1      -1.824  12.802  19.989  0.00  0.00    +0.000 C 
ATOM      7  O   UNL     1      -2.858  12.273  20.412  0.00  0.00    +0.000 OA
ATOM      8  N   UNL     1      -1.452  14.128  20.316  0.00  0.00    +0.000 N 
ATOM      9  C   UNL     1      -2.309  14.830  21.223  0.00  0.00    +0.000 A 
ATOM     10  C   UNL     1      -3.076  15.909  20.787  0.00  0.00    +0.000 A 
ATOM     11  C   UNL     1      -3.645  16.765  21.737  0.00  0.00    +0.000 A 
ATOM     12  C   UNL     1      -3.497  16.496  23.098  0.00  0.00    +0.000 A 
ATOM     13  F   UNL     1      -4.014  17.345  23.997  0.00  0.00    +0.000 F 
ATOM     14  C   UNL     1      -2.733  15.426  23.543  0.00  0.00    +0.000 A 
ATOM     15  C   UNL     1      -2.071  14.646  22.597  0.00  0.00    +0.000 A 
ATOM     16  C   UNL     1      -0.862  13.824  22.948  0.00  0.00    +0.000 C 
ATOM     17  C   UNL     1       0.267  14.468  22.134  0.00  0.00    +0.000 C 
ATOM     18  C   UNL     1      -0.024  14.428  20.606  0.00  0.00    +0.000 C 
ATOM     19  C   UNL     1       0.358  15.725  19.890  0.00  0.00    +0.000 C 
ENDBRANCH   5   6
BRANCH   1  20
ATOM     20  S   UNL     1       0.367  10.130  20.312  0.00  0.00    +0.000 S 
ATOM     21  O   UNL     1      -0.439   9.462  21.314  0.00  0.00    +0.000 OA
ATOM     22  O   UNL     1       1.241  11.228  20.672  0.00  0.00    +0.000 OA
BRANCH  20  27
ATOM     23  C   UNL     1       3.883   5.939  17.683  0.00  0.00    +0.000 C 
ATOM     24  C   UNL     1       2.995   6.955  18.335  0.00  0.00    +0.000 A 
ATOM     25  C   UNL     1       2.516   6.770  19.640  0.00  0.00    +0.000 A 
ATOM     26  C   UNL     1       1.703   7.731  20.249  0.00  0.00    +0.000 A 
ATOM     27  C   UNL     1       1.387   8.899  19.558  0.00  0.00    +0.000 A 
ATOM     28  C   UNL     1       1.820   9.074  18.238  0.00  0.00    +0.000 A 
ATOM     29  C   UNL     1       2.624   8.104  17.633  0.00  0.00    +0.000 A 
ENDBRANCH  20  27
ENDBRANCH   1  20
TORSDOF 3
ENDMDL
MODEL 8
REMARK VINA RESULT:      -6.5      2.898      4.771
REMARK  Name = 
REMARK  5 active torsions:
REMARK  status: ('A' for Active; 'I' for Inactive)
REMARK    1  A    between atoms: C_1  and  C_2
REMARK    2  A    between atoms: C_5  and  S_6
REMARK    3  A    between atoms: S_6  and  N_9
REMARK    4  A    between atoms: C_13  and  C_14
REMARK    5  A    between atoms: C_26  and  C_27
REMARK                            x       y       z     vdW  Elec       q    Type
REMARK                         _______ _______ _______ _____ _____    ______ ____
ROOT
ATOM      1  N   UNL     1      -0.483  10.920  20.800  0.00  0.00    +0.000 NA
ATOM      2  C   UNL     1       0.792  10.385  21.256  0.00  0.00    +0.000 C 
ATOM      3  C   UNL     1       0.359   9.585  22.474  0.00  0.00    +0.000 C 
ATOM      4  C   UNL     1      -0.791  10.391  23.084  0.00  0.00    +0.000 C 
ATOM      5  C   UNL     1      -1.273  11.347  21.972  0.00  0.00    +0.000 C 
ENDROOT
BRANCH   5   6
ATOM      6  C   UNL     1      -1.031  12.785  22.462  0.00  0.00    +0.000 C 
ATOM      7  O   UNL     1       0.104  13.272  22.412  0.00  0.00    +0.000 OA
ATOM      8  N   UNL     1      -2.110  13.422  23.121  0.00  0.00    +0.000 N 
ATOM      9  C   UNL     1      -1.846  14.709  23.691  0.00  0.00    +0.000 A 
ATOM     10  C   UNL     1      -1.827  14.886  25.073  0.00  0.00    +0.000 A 
ATOM     11  C   UNL     1      -1.888  16.184  25.592  0.00  0.00    +0.000 A 
ATOM     12  C   UNL     1      -1.899  17.282  24.730  0.00  0.00    +0.000 A 
ATOM     13  F   UNL     1      -1.996  18.518  25.240  0.00  0.00    +0.000 F 
ATOM     14  C   UNL     1      -1.920  17.117  23.352  0.00  0.00    +0.000 A 
ATOM     15  C   UNL     1      -1.980  15.822  22.841  0.00  0.00    +0.000 A 
ATOM     16  C   UNL     1      -2.504  15.534  21.462  0.00  0.00    +0.000 C 
ATOM     17  C   UNL     1      -3.770  14.706  21.717  0.00  0.00    +0.000 C 
ATOM     18  C   UNL     1      -3.459  13.395  22.493  0.00  0.00    +0.000 C 
ATOM     19  C   UNL     1      -4.495  13.078  23.574  0.00  0.00    +0.000 C 
ENDBRANCH   5   6
BRANCH   1  20
ATOM     20  S   UNL     1      -0.749  11.481  19.259  0.00  0.00    +0.000 S 
ATOM     21  O   UNL     1      -2.073  12.070  19.267  0.00  0.00    +0.000 OA
ATOM     22  O   UNL     1      -0.411  10.423  18.329  0.00  0.00    +0.000 OA
BRANCH  20  27
ATOM     23  C   UNL     1       3.174  16.014  18.315  0.00  0.00    +0.000 C 
ATOM     24  C   UNL     1       2.208  14.887  18.521  0.00  0.00    +0.000 A 
ATOM     25  C   UNL     1       2.601  13.553  18.342  0.00  0.00    +0.000 A 
ATOM     26  C   UNL     1       1.700  12.505  18.555  0.00  0.00    +0.000 A 
ATOM     27  C   UNL     1       0.403  12.791  18.976  0.00  0.00    +0.000 A 
ATOM     28  C   UNL     1      -0.015  14.120  19.113  0.00  0.00    +0.000 A 
ATOM     29  C   UNL     1       0.889  15.162  18.888  0.00  0.00    +0.000 A 
ENDBRANCH  20  27
ENDBRANCH   1  20
TORSDOF 3
ENDMDL
MODEL 9
REMARK VINA RESULT:      -6.4      2.792      5.186
REMARK  Name = 
REMARK  5 active torsions:
REMARK  status: ('A' for Active; 'I' for Inactive)
REMARK    1  A    between atoms: C_1  and  C_2
REMARK    2  A    between atoms: C_5  and  S_6
REMARK    3  A    between atoms: S_6  and  N_9
REMARK    4  A    between atoms: C_13  and  C_14
REMARK    5  A    between atoms: C_26  and  C_27
REMARK                            x       y       z     vdW  Elec       q    Type
REMARK                         _______ _______ _______ _____ _____    ______ ____
ROOT
ATOM      1  N   UNL     1      -0.528  11.112  20.828  0.00  0.00    +0.000 NA
ATOM      2  C   UNL     1       0.751  10.623  21.324  0.00  0.00    +0.000 C 
ATOM      3  C   UNL     1       0.311   9.816  22.535  0.00  0.00    +0.000 C 
ATOM      4  C   UNL     1      -0.883  10.586  23.105  0.00  0.00    +0.000 C 
ATOM      5  C   UNL     1      -1.365  11.518  21.974  0.00  0.00    +0.000 C 
ENDROOT
BRANCH   5   6
ATOM      6  C   UNL     1      -1.187  12.967  22.461  0.00  0.00    +0.000 C 
ATOM      7  O   UNL     1      -0.170  13.600  22.156  0.00  0.00    +0.000 OA
ATOM      8  N   UNL     1      -2.134  13.444  23.398  0.00  0.00    +0.000 N 
ATOM      9  C   UNL     1      -1.896  14.744  23.949  0.00  0.00    +0.000 A 
ATOM     10  C   UNL     1      -1.550  14.897  25.290  0.00  0.00    +0.000 A 
ATOM     11  C   UNL     1      -1.638  16.166  25.873  0.00  0.00    +0.000 A 
ATOM     12  C   UNL     1      -2.002  17.268  25.098  0.00  0.00    +0.000 A 
ATOM     13  F   UNL     1      -2.119  18.471  25.677  0.00  0.00    +0.000 F 
ATOM     14  C   UNL     1      -2.349  17.127  23.762  0.00  0.00    +0.000 A 
ATOM     15  C   UNL     1      -2.376  15.844  23.217  0.00  0.00    +0.000 A 
ATOM     16  C   UNL     1      -3.192  15.514  21.998  0.00  0.00    +0.000 C 
ATOM     17  C   UNL     1      -4.240  14.522  22.517  0.00  0.00    +0.000 C 
ATOM     18  C   UNL     1      -3.584  13.250  23.124  0.00  0.00    +0.000 C 
ATOM     19  C   UNL     1      -4.266  12.780  24.411  0.00  0.00    +0.000 C 
ENDBRANCH   5   6
BRANCH   1  20
ATOM     20  S   UNL     1      -0.768  11.654  19.276  0.00  0.00    +0.000 S 
ATOM     21  O   UNL     1      -0.116  10.695  18.408  0.00  0.00    +0.000 OA
ATOM     22  O   UNL     1      -0.418  13.059  19.229  0.00  0.00    +0.000 OA
BRANCH  20  27
ATOM     23  C   UNL     1      -6.718  11.261  18.144  0.00  0.00    +0.000 C 
ATOM     24  C   UNL     1      -5.250  11.384  18.416  0.00  0.00    +0.000 A 
ATOM     25  C   UNL     1      -4.758  12.320  19.337  0.00  0.00    +0.000 A 
ATOM     26  C   UNL     1      -3.388  12.416  19.600  0.00  0.00    +0.000 A 
ATOM     27  C   UNL     1      -2.504  11.554  18.954  0.00  0.00    +0.000 A 
ATOM     28  C   UNL     1      -2.977  10.649  17.997  0.00  0.00    +0.000 A 
ATOM     29  C   UNL     1      -4.348  10.566  17.733  0.00  0.00    +0.000 A 
ENDBRANCH  20  27
ENDBRANCH   1  20
TORSDOF 3
ENDMDL
