MODEL 1
REMARK VINA RESULT:      -9.7      0.000      0.000
REMARK  Name = 
REMARK  5 active torsions:
REMARK  status: ('A' for Active; 'I' for Inactive)
REMARK    1  A    between atoms: C_1  and  C_2
REMARK    2  A    between atoms: C_4  and  N_5
REMARK    3  A    between atoms: N_5  and  S_6
REMARK    4  A    between atoms: S_6  and  C_9
REMARK    5  A    between atoms: C_22  and  C_24
REMARK                            x       y       z     vdW  Elec       q    Type
REMARK                         _______ _______ _______ _____ _____    ______ ____
ROOT
ATOM      1  C   UNL     1       5.275   6.931  15.043  0.00  0.00    +0.000 C 
ATOM      2  C   UNL     1       5.508   5.924  16.134  0.00  0.00    +0.000 A 
ATOM      3  C   UNL     1       4.837   4.689  16.148  0.00  0.00    +0.000 A 
ATOM      4  C   UNL     1       5.060   3.767  17.170  0.00  0.00    +0.000 A 
ATOM      5  C   UNL     1       5.950   4.037  18.215  0.00  0.00    +0.000 A 
ATOM      6  C   UNL     1       6.634   5.261  18.190  0.00  0.00    +0.000 A 
ATOM      7  S   UNL     1       7.827   5.886  19.280  0.00  0.00    +0.000 S 
ATOM      8  C   UNL     1       7.857   7.338  18.390  0.00  0.00    +0.000 A 
ATOM      9  N   UNL     1       8.671   8.327  18.877  0.00  0.00    +0.000 N 
ATOM     10  C   UNL     1       8.606   9.598  18.339  0.00  0.00    +0.000 C 
ATOM     11  O   UNL     1       7.783   9.993  17.518  0.00  0.00    +0.000 OA
ATOM     12  N   UNL     1       7.115   7.377  17.321  0.00  0.00    +0.000 NA
ATOM     13  C   UNL     1       6.411   6.203  17.184  0.00  0.00    +0.000 A 
ATOM     14  H   UNL     1       9.309   8.076  19.612  0.00  0.00    +0.000 HD
ENDROOT
BRANCH  10  15
ATOM     15  C   UNL     1       9.625  10.582  18.803  0.00  0.00    +0.000 A 
ATOM     16  C   UNL     1      10.464  11.138  17.824  0.00  0.00    +0.000 A 
ATOM     17  C   UNL     1      11.448  12.063  18.173  0.00  0.00    +0.000 A 
ATOM     18  C   UNL     1      11.596  12.443  19.503  0.00  0.00    +0.000 A 
ATOM     19  C   UNL     1      10.754  11.910  20.482  0.00  0.00    +0.000 A 
ATOM     20  C   UNL     1       9.766  10.983  20.135  0.00  0.00    +0.000 A 
ENDBRANCH  10  15
BRANCH   4  21
ATOM     21  N   UNL     1       4.333   2.556  17.206  0.00  0.00    +0.000 N 
ATOM     22  H   UNL     1       4.723   1.703  16.810  0.00  0.00    +0.000 HD
BRANCH  21  23
ATOM     23  S   UNL     1       2.940   2.404  18.118  0.00  0.00    +0.000 S 
ATOM     24  O   UNL     1       1.862   2.177  17.178  0.00  0.00    +0.000 OA
ATOM     25  O   UNL     1       3.173   1.506  19.226  0.00  0.00    +0.000 OA
BRANCH  23  26
ATOM     26  C   UNL     1       2.731   4.046  18.772  0.00  0.00    +0.000 A 
ATOM     27  C   UNL     1       2.855   4.259  20.152  0.00  0.00    +0.000 A 
ATOM     28  C   UNL     1       2.672   5.539  20.672  0.00  0.00    +0.000 A 
ATOM     29  C   UNL     1       2.355   6.590  19.812  0.00  0.00    +0.000 A 
ATOM     30  F   UNL     1       2.183   7.820  20.317  0.00  0.00    +0.000 F 
ATOM     31  C   UNL     1       2.215   6.366  18.448  0.00  0.00    +0.000 A 
ATOM     32  F   UNL     1       1.905   7.386  17.628  0.00  0.00    +0.000 F 
ATOM     33  C   UNL     1       2.396   5.098  17.912  0.00  0.00    +0.000 A 
ENDBRANCH  23  26
ENDBRANCH  21  23
ENDBRANCH   4  21
TORSDOF 4
ENDMDL
MODEL 2
REMARK VINA RESULT:      -9.5      0.888      1.419
REMARK  Name = 
REMARK  5 active torsions:
REMARK  status: ('A' for Active; 'I' for Inactive)
REMARK    1  A    between atoms: C_1  and  C_2
REMARK    2  A    between atoms: C_4  and  N_5
REMARK    3  A    between atoms: N_5  and  S_6
REMARK    4  A    between atoms: S_6  and  C_9
REMARK    5  A    between atoms: C_22  and  C_24
REMARK                            x       y       z     vdW  Elec       q    Type
REMARK                         _______ _______ _______ _____ _____    ______ ____
ROOT
ATOM      1  C   UNL     1       5.279   6.961  15.202  0.00  0.00    +0.000 C 
ATOM      2  C   UNL     1       5.547   5.978  16.306  0.00  0.00    +0.000 A 
ATOM      3  C   UNL     1       4.882   4.740  16.366  0.00  0.00    +0.000 A 
ATOM      4  C   UNL     1       5.139   3.841  17.398  0.00  0.00    +0.000 A 
ATOM      5  C   UNL     1       6.059   4.135  18.411  0.00  0.00    +0.000 A 
ATOM      6  C   UNL     1       6.737   5.360  18.340  0.00  0.00    +0.000 A 
ATOM      7  S   UNL     1       7.960   6.011  19.382  0.00  0.00    +0.000 S 
ATOM      8  C   UNL     1       7.958   7.445  18.462  0.00  0.00    +0.000 A 
ATOM      9  N   UNL     1       8.782   8.446  18.904  0.00  0.00    +0.000 N 
ATOM     10  C   UNL     1       8.696   9.706  18.342  0.00  0.00    +0.000 C 
ATOM     11  O   UNL     1       7.847  10.081  17.538  0.00  0.00    +0.000 OA
ATOM     12  N   UNL     1       7.184   7.459  17.415  0.00  0.00    +0.000 NA
ATOM     13  C   UNL     1       6.481   6.280  17.322  0.00  0.00    +0.000 A 
ATOM     14  H   UNL     1       9.443   8.212  19.624  0.00  0.00    +0.000 HD
ENDROOT
BRANCH  10  15
ATOM     15  C   UNL     1       9.724  10.702  18.755  0.00  0.00    +0.000 A 
ATOM     16  C   UNL     1      10.433  11.348  17.729  0.00  0.00    +0.000 A 
ATOM     17  C   UNL     1      11.416  12.290  18.028  0.00  0.00    +0.000 A 
ATOM     18  C   UNL     1      11.694  12.599  19.356  0.00  0.00    +0.000 A 
ATOM     19  C   UNL     1      10.982  11.977  20.384  0.00  0.00    +0.000 A 
ATOM     20  C   UNL     1       9.995  11.031  20.088  0.00  0.00    +0.000 A 
ENDBRANCH  10  15
BRANCH   4  21
ATOM     21  N   UNL     1       4.418   2.628  17.482  0.00  0.00    +0.000 N 
ATOM     22  H   UNL     1       4.901   1.745  17.637  0.00  0.00    +0.000 HD
BRANCH  21  23
ATOM     23  S   UNL     1       2.750   2.613  17.594  0.00  0.00    +0.000 S 
ATOM     24  O   UNL     1       2.252   3.035  16.302  0.00  0.00    +0.000 OA
ATOM     25  O   UNL     1       2.310   1.377  18.202  0.00  0.00    +0.000 OA
BRANCH  23  26
ATOM     26  C   UNL     1       2.432   3.937  18.740  0.00  0.00    +0.000 A 
ATOM     27  C   UNL     1       2.162   5.222  18.251  0.00  0.00    +0.000 A 
ATOM     28  C   UNL     1       1.931   6.266  19.145  0.00  0.00    +0.000 A 
ATOM     29  C   UNL     1       1.987   6.020  20.516  0.00  0.00    +0.000 A 
ATOM     30  F   UNL     1       1.762   7.028  21.372  0.00  0.00    +0.000 F 
ATOM     31  C   UNL     1       2.274   4.747  20.993  0.00  0.00    +0.000 A 
ATOM     32  F   UNL     1       2.329   4.521  22.317  0.00  0.00    +0.000 F 
ATOM     33  C   UNL     1       2.503   3.694  20.116  0.00  0.00    +0.000 A 
ENDBRANCH  23  26
ENDBRANCH  21  23
ENDBRANCH   4  21
TORSDOF 4
ENDMDL
MODEL 3
REMARK VINA RESULT:      -9.5      5.198      8.135
REMARK  Name = 
REMARK  5 active torsions:
REMARK  status: ('A' for Active; 'I' for Inactive)
REMARK    1  A    between atoms: C_1  and  C_2
REMARK    2  A    between atoms: C_4  and  N_5
REMARK    3  A    between atoms: N_5  and  S_6
REMARK    4  A    between atoms: S_6  and  C_9
REMARK    5  A    between atoms: C_22  and  C_24
REMARK                            x       y       z     vdW  Elec       q    Type
REMARK                         _______ _______ _______ _____ _____    ______ ____
ROOT
ATOM      1  C   UNL     1       2.520   4.713  21.070  0.00  0.00    +0.000 C 
ATOM      2  C   UNL     1       3.000   5.315  19.780  0.00  0.00    +0.000 A 
ATOM      3  C   UNL     1       3.881   4.623  18.929  0.00  0.00    +0.000 A 
ATOM      4  C   UNL     1       4.320   5.197  17.738  0.00  0.00    +0.000 A 
ATOM      5  C   UNL     1       3.909   6.476  17.349  0.00  0.00    +0.000 A 
ATOM      6  C   UNL     1       3.014   7.158  18.186  0.00  0.00    +0.000 A 
ATOM      7  S   UNL     1       2.273   8.711  17.986  0.00  0.00    +0.000 S 
ATOM      8  C   UNL     1       1.543   8.543  19.516  0.00  0.00    +0.000 A 
ATOM      9  N   UNL     1       0.801   9.609  19.951  0.00  0.00    +0.000 N 
ATOM     10  C   UNL     1       0.343   9.642  21.255  0.00  0.00    +0.000 C 
ATOM     11  O   UNL     1       0.636   8.846  22.143  0.00  0.00    +0.000 OA
ATOM     12  N   UNL     1       1.744   7.413  20.131  0.00  0.00    +0.000 NA
ATOM     13  C   UNL     1       2.577   6.605  19.391  0.00  0.00    +0.000 A 
ATOM     14  H   UNL     1       0.603  10.333  19.283  0.00  0.00    +0.000 HD
ENDROOT
BRANCH  10  15
ATOM     15  C   UNL     1      -0.587  10.748  21.616  0.00  0.00    +0.000 A 
ATOM     16  C   UNL     1      -0.998  11.600  20.578  0.00  0.00    +0.000 A 
ATOM     17  C   UNL     1      -1.864  12.663  20.830  0.00  0.00    +0.000 A 
ATOM     18  C   UNL     1      -2.332  12.879  22.122  0.00  0.00    +0.000 A 
ATOM     19  C   UNL     1      -1.946  12.027  23.159  0.00  0.00    +0.000 A 
ATOM     20  C   UNL     1      -1.077  10.959  22.909  0.00  0.00    +0.000 A 
ENDBRANCH  10  15
BRANCH   4  21
ATOM     21  N   UNL     1       5.254   4.518  16.923  0.00  0.00    +0.000 N 
ATOM     22  H   UNL     1       4.983   3.686  16.403  0.00  0.00    +0.000 HD
BRANCH  21  23
ATOM     23  S   UNL     1       6.747   5.182  16.571  0.00  0.00    +0.000 S 
ATOM     24  O   UNL     1       6.597   6.615  16.708  0.00  0.00    +0.000 OA
ATOM     25  O   UNL     1       7.784   4.464  17.277  0.00  0.00    +0.000 OA
BRANCH  23  26
ATOM     26  C   UNL     1       6.919   4.834  14.834  0.00  0.00    +0.000 A 
ATOM     27  C   UNL     1       7.859   5.548  14.077  0.00  0.00    +0.000 A 
ATOM     28  C   UNL     1       7.983   5.293  12.712  0.00  0.00    +0.000 A 
ATOM     29  C   UNL     1       7.161   4.338  12.115  0.00  0.00    +0.000 A 
ATOM     30  F   UNL     1       7.287   4.095  10.802  0.00  0.00    +0.000 F 
ATOM     31  C   UNL     1       6.219   3.648  12.869  0.00  0.00    +0.000 A 
ATOM     32  F   UNL     1       5.429   2.732  12.282  0.00  0.00    +0.000 F 
ATOM     33  C   UNL     1       6.084   3.887  14.230  0.00  0.00    +0.000 A 
ENDBRANCH  23  26
ENDBRANCH  21  23
ENDBRANCH   4  21
TORSDOF 4
ENDMDL
MODEL 4
REMARK VINA RESULT:      -9.4      4.635      7.345
REMARK  Name = 
REMARK  5 active torsions:
REMARK  status: ('A' for Active; 'I' for Inactive)
REMARK    1  A    between atoms: C_1  and  C_2
REMARK    2  A    between atoms: C_4  and  N_5
REMARK    3  A    between atoms: N_5  and  S_6
REMARK    4  A    between atoms: S_6  and  C_9
REMARK    5  A    between atoms: C_22  and  C_24
REMARK                            x       y       z     vdW  Elec       q    Type
REMARK                         _______ _______ _______ _____ _____    ______ ____
ROOT
ATOM      1  C   UNL     1       2.184   4.404  21.192  0.00  0.00    +0.000 C 
ATOM      2  C   UNL     1       2.658   4.941  19.872  0.00  0.00    +0.000 A 
ATOM      3  C   UNL     1       3.382   4.141  18.970  0.00  0.00    +0.000 A 
ATOM      4  C   UNL     1       3.818   4.656  17.751  0.00  0.00    +0.000 A 
ATOM      5  C   UNL     1       3.559   5.980  17.383  0.00  0.00    +0.000 A 
ATOM      6  C   UNL     1       2.819   6.772  18.272  0.00  0.00    +0.000 A 
ATOM      7  S   UNL     1       2.283   8.412  18.114  0.00  0.00    +0.000 S 
ATOM      8  C   UNL     1       1.635   8.337  19.687  0.00  0.00    +0.000 A 
ATOM      9  N   UNL     1       1.073   9.492  20.164  0.00  0.00    +0.000 N 
ATOM     10  C   UNL     1       0.707   9.580  21.494  0.00  0.00    +0.000 C 
ATOM     11  O   UNL     1       0.945   8.748  22.365  0.00  0.00    +0.000 OA
ATOM     12  N   UNL     1       1.720   7.188  20.293  0.00  0.00    +0.000 NA
ATOM     13  C   UNL     1       2.388   6.279  19.505  0.00  0.00    +0.000 A 
ATOM     14  H   UNL     1       0.931  10.239  19.506  0.00  0.00    +0.000 HD
ENDROOT
BRANCH  10  15
ATOM     15  C   UNL     1      -0.042  10.800  21.909  0.00  0.00    +0.000 A 
ATOM     16  C   UNL     1       0.253  11.991  21.225  0.00  0.00    +0.000 A 
ATOM     17  C   UNL     1      -0.399  13.179  21.554  0.00  0.00    +0.000 A 
ATOM     18  C   UNL     1      -1.355  13.185  22.565  0.00  0.00    +0.000 A 
ATOM     19  C   UNL     1      -1.669  12.003  23.238  0.00  0.00    +0.000 A 
ATOM     20  C   UNL     1      -1.018  10.808  22.910  0.00  0.00    +0.000 A 
ENDBRANCH  10  15
BRANCH   4  21
ATOM     21  N   UNL     1       4.599   3.860  16.881  0.00  0.00    +0.000 N 
ATOM     22  H   UNL     1       4.400   2.869  16.764  0.00  0.00    +0.000 HD
BRANCH  21  23
ATOM     23  S   UNL     1       5.696   4.547  15.824  0.00  0.00    +0.000 S 
ATOM     24  O   UNL     1       6.567   3.475  15.389  0.00  0.00    +0.000 OA
ATOM     25  O   UNL     1       5.003   5.385  14.872  0.00  0.00    +0.000 OA
BRANCH  23  26
ATOM     26  C   UNL     1       6.652   5.600  16.894  0.00  0.00    +0.000 A 
ATOM     27  C   UNL     1       6.841   6.945  16.548  0.00  0.00    +0.000 A 
ATOM     28  C   UNL     1       7.605   7.769  17.373  0.00  0.00    +0.000 A 
ATOM     29  C   UNL     1       8.182   7.239  18.526  0.00  0.00    +0.000 A 
ATOM     30  F   UNL     1       8.914   8.037  19.317  0.00  0.00    +0.000 F 
ATOM     31  C   UNL     1       8.006   5.900  18.852  0.00  0.00    +0.000 A 
ATOM     32  F   UNL     1       8.569   5.398  19.964  0.00  0.00    +0.000 F 
ATOM     33  C   UNL     1       7.245   5.065  18.043  0.00  0.00    +0.000 A 
ENDBRANCH  23  26
ENDBRANCH  21  23
ENDBRANCH   4  21
TORSDOF 4
ENDMDL
MODEL 5
REMARK VINA RESULT:      -9.3      4.606      7.331
REMARK  Name = 
REMARK  5 active torsions:
REMARK  status: ('A' for Active; 'I' for Inactive)
REMARK    1  A    between atoms: C_1  and  C_2
REMARK    2  A    between atoms: C_4  and  N_5
REMARK    3  A    between atoms: N_5  and  S_6
REMARK    4  A    between atoms: S_6  and  C_9
REMARK    5  A    between atoms: C_22  and  C_24
REMARK                            x       y       z     vdW  Elec       q    Type
REMARK                         _______ _______ _______ _____ _____    ______ ____
ROOT
ATOM      1  C   UNL     1       2.226   4.465  21.308  0.00  0.00    +0.000 C 
ATOM      2  C   UNL     1       2.657   4.967  19.960  0.00  0.00    +0.000 A 
ATOM      3  C   UNL     1       3.362   4.147  19.061  0.00  0.00    +0.000 A 
ATOM      4  C   UNL     1       3.759   4.629  17.815  0.00  0.00    +0.000 A 
ATOM      5  C   UNL     1       3.477   5.940  17.416  0.00  0.00    +0.000 A 
ATOM      6  C   UNL     1       2.756   6.752  18.303  0.00  0.00    +0.000 A 
ATOM      7  S   UNL     1       2.201   8.382  18.112  0.00  0.00    +0.000 S 
ATOM      8  C   UNL     1       1.599   8.347  19.706  0.00  0.00    +0.000 A 
ATOM      9  N   UNL     1       1.040   9.511  20.164  0.00  0.00    +0.000 N 
ATOM     10  C   UNL     1       0.711   9.636  21.501  0.00  0.00    +0.000 C 
ATOM     11  O   UNL     1       0.982   8.832  22.389  0.00  0.00    +0.000 OA
ATOM     12  N   UNL     1       1.711   7.217  20.342  0.00  0.00    +0.000 NA
ATOM     13  C   UNL     1       2.365   6.291  19.562  0.00  0.00    +0.000 A 
ATOM     14  H   UNL     1       0.873  10.237  19.490  0.00  0.00    +0.000 HD
ENDROOT
BRANCH  10  15
ATOM     15  C   UNL     1      -0.036  10.861  21.902  0.00  0.00    +0.000 A 
ATOM     16  C   UNL     1      -1.011  10.714  22.902  0.00  0.00    +0.000 A 
ATOM     17  C   UNL     1      -1.759  11.809  23.333  0.00  0.00    +0.000 A 
ATOM     18  C   UNL     1      -1.534  13.062  22.770  0.00  0.00    +0.000 A 
ATOM     19  C   UNL     1      -0.554  13.223  21.789  0.00  0.00    +0.000 A 
ATOM     20  C   UNL     1       0.199  12.127  21.355  0.00  0.00    +0.000 A 
ENDBRANCH  10  15
BRANCH   4  21
ATOM     21  N   UNL     1       4.521   3.815  16.947  0.00  0.00    +0.000 N 
ATOM     22  H   UNL     1       4.308   2.825  16.841  0.00  0.00    +0.000 HD
BRANCH  21  23
ATOM     23  S   UNL     1       5.618   4.476  15.873  0.00  0.00    +0.000 S 
ATOM     24  O   UNL     1       6.444   3.380  15.410  0.00  0.00    +0.000 OA
ATOM     25  O   UNL     1       4.933   5.346  14.945  0.00  0.00    +0.000 OA
BRANCH  23  26
ATOM     26  C   UNL     1       6.630   5.486  16.933  0.00  0.00    +0.000 A 
ATOM     27  C   UNL     1       7.221   4.917  18.070  0.00  0.00    +0.000 A 
ATOM     28  C   UNL     1       7.997   5.708  18.914  0.00  0.00    +0.000 A 
ATOM     29  C   UNL     1       8.165   7.062  18.623  0.00  0.00    +0.000 A 
ATOM     30  F   UNL     1       8.915   7.818  19.437  0.00  0.00    +0.000 F 
ATOM     31  C   UNL     1       7.560   7.623  17.505  0.00  0.00    +0.000 A 
ATOM     32  F   UNL     1       7.725   8.929  17.235  0.00  0.00    +0.000 F 
ATOM     33  C   UNL     1       6.785   6.848  16.651  0.00  0.00    +0.000 A 
ENDBRANCH  23  26
ENDBRANCH  21  23
ENDBRANCH   4  21
TORSDOF 4
ENDMDL
MODEL 6
REMARK VINA RESULT:      -9.1      5.226      8.142
REMARK  Name = 
REMARK  5 active torsions:
REMARK  status: ('A' for Active; 'I' for Inactive)
REMARK    1  A    between atoms: C_1  and  C_2
REMARK    2  A    between atoms: C_4  and  N_5
REMARK    3  A    between atoms: N_5  and  S_6
REMARK    4  A    between atoms: S_6  and  C_9
REMARK    5  A    between atoms: C_22  and  C_24
REMARK                            x       y       z     vdW  Elec       q    Type
REMARK                         _______ _______ _______ _____ _____    ______ ____
ROOT
ATOM      1  C   UNL     1       2.325   4.676  21.260  0.00  0.00    +0.000 C 
ATOM      2  C   UNL     1       2.858   5.260  19.982  0.00  0.00    +0.000 A 
ATOM      3  C   UNL     1       3.751   4.545  19.164  0.00  0.00    +0.000 A 
ATOM      4  C   UNL     1       4.240   5.102  17.984  0.00  0.00    +0.000 A 
ATOM      5  C   UNL     1       3.867   6.387  17.575  0.00  0.00    +0.000 A 
ATOM      6  C   UNL     1       2.961   7.092  18.379  0.00  0.00    +0.000 A 
ATOM      7  S   UNL     1       2.258   8.659  18.147  0.00  0.00    +0.000 S 
ATOM      8  C   UNL     1       1.476   8.515  19.653  0.00  0.00    +0.000 A 
ATOM      9  N   UNL     1       0.743   9.599  20.058  0.00  0.00    +0.000 N 
ATOM     10  C   UNL     1       0.244   9.650  21.346  0.00  0.00    +0.000 C 
ATOM     11  O   UNL     1       0.492   8.853  22.248  0.00  0.00    +0.000 OA
ATOM     12  N   UNL     1       1.634   7.385  20.281  0.00  0.00    +0.000 NA
ATOM     13  C   UNL     1       2.473   6.556  19.573  0.00  0.00    +0.000 A 
ATOM     14  H   UNL     1       0.580  10.322  19.380  0.00  0.00    +0.000 HD
ENDROOT
BRANCH  10  15
ATOM     15  C   UNL     1      -0.675  10.777  21.671  0.00  0.00    +0.000 A 
ATOM     16  C   UNL     1      -1.077  11.598  20.605  0.00  0.00    +0.000 A 
ATOM     17  C   UNL     1      -1.932  12.678  20.823  0.00  0.00    +0.000 A 
ATOM     18  C   UNL     1      -2.397  12.941  22.107  0.00  0.00    +0.000 A 
ATOM     19  C   UNL     1      -2.019  12.119  23.171  0.00  0.00    +0.000 A 
ATOM     20  C   UNL     1      -1.162  11.035  22.957  0.00  0.00    +0.000 A 
ENDBRANCH  10  15
BRANCH   4  21
ATOM     21  N   UNL     1       5.185   4.399  17.204  0.00  0.00    +0.000 N 
ATOM     22  H   UNL     1       4.918   3.559  16.694  0.00  0.00    +0.000 HD
BRANCH  21  23
ATOM     23  S   UNL     1       6.691   5.044  16.871  0.00  0.00    +0.000 S 
ATOM     24  O   UNL     1       6.583   6.469  17.100  0.00  0.00    +0.000 OA
ATOM     25  O   UNL     1       7.717   4.254  17.514  0.00  0.00    +0.000 OA
BRANCH  23  26
ATOM     26  C   UNL     1       6.830   4.802  15.113  0.00  0.00    +0.000 A 
ATOM     27  C   UNL     1       6.054   3.815  14.489  0.00  0.00    +0.000 A 
ATOM     28  C   UNL     1       6.173   3.608  13.116  0.00  0.00    +0.000 A 
ATOM     29  C   UNL     1       7.075   4.379  12.382  0.00  0.00    +0.000 A 
ATOM     30  F   UNL     1       7.184   4.177  11.061  0.00  0.00    +0.000 F 
ATOM     31  C   UNL     1       7.854   5.341  13.012  0.00  0.00    +0.000 A 
ATOM     32  F   UNL     1       8.723   6.076  12.296  0.00  0.00    +0.000 F 
ATOM     33  C   UNL     1       7.746   5.563  14.378  0.00  0.00    +0.000 A 
ENDBRANCH  23  26
ENDBRANCH  21  23
ENDBRANCH   4  21
TORSDOF 4
ENDMDL
MODEL 7
REMARK VINA RESULT:      -9.0      5.630      8.243
REMARK  Name = 
REMARK  5 active torsions:
REMARK  status: ('A' for Active; 'I' for Inactive)
REMARK    1  A    between atoms: C_1  and  C_2
REMARK    2  A    between atoms: C_4  and  N_5
REMARK    3  A    between atoms: N_5  and  S_6
REMARK    4  A    between atoms: S_6  and  C_9
REMARK    5  A    between atoms: C_22  and  C_24
REMARK                            x       y       z     vdW  Elec       q    Type
REMARK                         _______ _______ _______ _____ _____    ______ ____
ROOT
ATOM      1  C   UNL     1       2.202   9.689  17.520  0.00  0.00    +0.000 C 
ATOM      2  C   UNL     1       2.165   8.505  18.443  0.00  0.00    +0.000 A 
ATOM      3  C   UNL     1       2.753   7.277  18.090  0.00  0.00    +0.000 A 
ATOM      4  C   UNL     1       2.706   6.187  18.956  0.00  0.00    +0.000 A 
ATOM      5  C   UNL     1       2.071   6.270  20.200  0.00  0.00    +0.000 A 
ATOM      6  C   UNL     1       1.503   7.499  20.562  0.00  0.00    +0.000 A 
ATOM      7  S   UNL     1       0.698   7.960  22.026  0.00  0.00    +0.000 S 
ATOM      8  C   UNL     1       0.386   9.494  21.353  0.00  0.00    +0.000 A 
ATOM      9  N   UNL     1      -0.348  10.354  22.128  0.00  0.00    +0.000 N 
ATOM     10  C   UNL     1      -0.818  11.536  21.586  0.00  0.00    +0.000 C 
ATOM     11  O   UNL     1      -0.750  11.866  20.405  0.00  0.00    +0.000 OA
ATOM     12  N   UNL     1       0.882   9.719  20.171  0.00  0.00    +0.000 NA
ATOM     13  C   UNL     1       1.526   8.597  19.700  0.00  0.00    +0.000 A 
ATOM     14  H   UNL     1      -0.504  10.090  23.085  0.00  0.00    +0.000 HD
ENDROOT
BRANCH  10  15
ATOM     15  C   UNL     1      -1.470  12.495  22.522  0.00  0.00    +0.000 A 
ATOM     16  C   UNL     1      -2.746  12.152  22.998  0.00  0.00    +0.000 A 
ATOM     17  C   UNL     1      -3.429  12.996  23.873  0.00  0.00    +0.000 A 
ATOM     18  C   UNL     1      -2.838  14.186  24.284  0.00  0.00    +0.000 A 
ATOM     19  C   UNL     1      -1.562  14.528  23.833  0.00  0.00    +0.000 A 
ATOM     20  C   UNL     1      -0.873  13.684  22.955  0.00  0.00    +0.000 A 
ENDBRANCH  10  15
BRANCH   4  21
ATOM     21  N   UNL     1       3.245   4.941  18.562  0.00  0.00    +0.000 N 
ATOM     22  H   UNL     1       2.737   4.333  17.923  0.00  0.00    +0.000 HD
BRANCH  21  23
ATOM     23  S   UNL     1       4.829   4.531  18.905  0.00  0.00    +0.000 S 
ATOM     24  O   UNL     1       5.366   5.614  19.701  0.00  0.00    +0.000 OA
ATOM     25  O   UNL     1       4.893   3.160  19.359  0.00  0.00    +0.000 OA
BRANCH  23  26
ATOM     26  C   UNL     1       5.602   4.619  17.304  0.00  0.00    +0.000 A 
ATOM     27  C   UNL     1       6.928   5.060  17.202  0.00  0.00    +0.000 A 
ATOM     28  C   UNL     1       7.532   5.149  15.949  0.00  0.00    +0.000 A 
ATOM     29  C   UNL     1       6.801   4.811  14.810  0.00  0.00    +0.000 A 
ATOM     30  F   UNL     1       7.388   4.897  13.608  0.00  0.00    +0.000 F 
ATOM     31  C   UNL     1       5.481   4.393  14.919  0.00  0.00    +0.000 A 
ATOM     32  F   UNL     1       4.785   4.072  13.814  0.00  0.00    +0.000 F 
ATOM     33  C   UNL     1       4.865   4.295  16.159  0.00  0.00    +0.000 A 
ENDBRANCH  23  26
ENDBRANCH  21  23
ENDBRANCH   4  21
TORSDOF 4
ENDMDL
MODEL 8
REMARK VINA RESULT:      -8.9      0.480      1.472
REMARK  Name = 
REMARK  5 active torsions:
REMARK  status: ('A' for Active; 'I' for Inactive)
REMARK    1  A    between atoms: C_1  and  C_2
REMARK    2  A    between atoms: C_4  and  N_5
REMARK    3  A    between atoms: N_5  and  S_6
REMARK    4  A    between atoms: S_6  and  C_9
REMARK    5  A    between atoms: C_22  and  C_24
REMARK                            x       y       z     vdW  Elec       q    Type
REMARK                         _______ _______ _______ _____ _____    ______ ____
ROOT
ATOM      1  C   UNL     1       5.267   6.939  15.053  0.00  0.00    +0.000 C 
ATOM      2  C   UNL     1       5.521   5.932  16.138  0.00  0.00    +0.000 A 
ATOM      3  C   UNL     1       4.865   4.689  16.155  0.00  0.00    +0.000 A 
ATOM      4  C   UNL     1       5.108   3.767  17.171  0.00  0.00    +0.000 A 
ATOM      5  C   UNL     1       6.005   4.043  18.208  0.00  0.00    +0.000 A 
ATOM      6  C   UNL     1       6.676   5.274  18.181  0.00  0.00    +0.000 A 
ATOM      7  S   UNL     1       7.872   5.909  19.261  0.00  0.00    +0.000 S 
ATOM      8  C   UNL     1       7.877   7.364  18.376  0.00  0.00    +0.000 A 
ATOM      9  N   UNL     1       8.685   8.360  18.858  0.00  0.00    +0.000 N 
ATOM     10  C   UNL     1       8.600   9.633  18.325  0.00  0.00    +0.000 C 
ATOM     11  O   UNL     1       7.765  10.021  17.512  0.00  0.00    +0.000 OA
ATOM     12  N   UNL     1       7.125   7.398  17.314  0.00  0.00    +0.000 NA
ATOM     13  C   UNL     1       6.432   6.217  17.180  0.00  0.00    +0.000 A 
ATOM     14  H   UNL     1       9.333   8.114  19.586  0.00  0.00    +0.000 HD
ENDROOT
BRANCH  10  15
ATOM     15  C   UNL     1       9.613  10.626  18.782  0.00  0.00    +0.000 A 
ATOM     16  C   UNL     1       9.666  10.894  20.159  0.00  0.00    +0.000 A 
ATOM     17  C   UNL     1      10.581  11.813  20.671  0.00  0.00    +0.000 A 
ATOM     18  C   UNL     1      11.455  12.467  19.809  0.00  0.00    +0.000 A 
ATOM     19  C   UNL     1      11.424  12.195  18.440  0.00  0.00    +0.000 A 
ATOM     20  C   UNL     1      10.508  11.272  17.923  0.00  0.00    +0.000 A 
ENDBRANCH  10  15
BRANCH   4  21
ATOM     21  N   UNL     1       4.394   2.547  17.211  0.00  0.00    +0.000 N 
ATOM     22  H   UNL     1       4.739   1.726  16.718  0.00  0.00    +0.000 HD
BRANCH  21  23
ATOM     23  S   UNL     1       3.116   2.321  18.264  0.00  0.00    +0.000 S 
ATOM     24  O   UNL     1       2.021   1.805  17.469  0.00  0.00    +0.000 OA
ATOM     25  O   UNL     1       3.572   1.633  19.451  0.00  0.00    +0.000 OA
BRANCH  23  26
ATOM     26  C   UNL     1       2.696   3.989  18.720  0.00  0.00    +0.000 A 
ATOM     27  C   UNL     1       2.391   4.921  17.718  0.00  0.00    +0.000 A 
ATOM     28  C   UNL     1       2.081   6.234  18.069  0.00  0.00    +0.000 A 
ATOM     29  C   UNL     1       2.091   6.606  19.413  0.00  0.00    +0.000 A 
ATOM     30  F   UNL     1       1.789   7.870  19.745  0.00  0.00    +0.000 F 
ATOM     31  C   UNL     1       2.413   5.680  20.398  0.00  0.00    +0.000 A 
ATOM     32  F   UNL     1       2.423   6.050  21.690  0.00  0.00    +0.000 F 
ATOM     33  C   UNL     1       2.721   4.367  20.067  0.00  0.00    +0.000 A 
ENDBRANCH  23  26
ENDBRANCH  21  23
ENDBRANCH   4  21
TORSDOF 4
ENDMDL
MODEL 9
REMARK VINA RESULT:      -8.9      8.847     11.026
REMARK  Name = 
REMARK  5 active torsions:
REMARK  status: ('A' for Active; 'I' for Inactive)
REMARK    1  A    between atoms: C_1  and  C_2
REMARK    2  A    between atoms: C_4  and  N_5
REMARK    3  A    between atoms: N_5  and  S_6
REMARK    4  A    between atoms: S_6  and  C_9
REMARK    5  A    between atoms: C_22  and  C_24
REMARK                            x       y       z     vdW  Elec       q    Type
REMARK                         _______ _______ _______ _____ _____    ______ ____
ROOT
ATOM      1  C   UNL     1      -0.619  12.493  18.600  0.00  0.00    +0.000 C 
ATOM      2  C   UNL     1      -0.741  11.967  20.002  0.00  0.00    +0.000 A 
ATOM      3  C   UNL     1      -1.451  12.670  20.991  0.00  0.00    +0.000 A 
ATOM      4  C   UNL     1      -1.551  12.170  22.288  0.00  0.00    +0.000 A 
ATOM      5  C   UNL     1      -0.949  10.962  22.654  0.00  0.00    +0.000 A 
ATOM      6  C   UNL     1      -0.258  10.250  21.663  0.00  0.00    +0.000 A 
ATOM      7  S   UNL     1       0.549   8.720  21.755  0.00  0.00    +0.000 S 
ATOM      8  C   UNL     1       1.049   8.903  20.137  0.00  0.00    +0.000 A 
ATOM      9  N   UNL     1       1.850   7.910  19.638  0.00  0.00    +0.000 N 
ATOM     10  C   UNL     1       2.465   8.074  18.410  0.00  0.00    +0.000 C 
ATOM     11  O   UNL     1       2.469   9.102  17.737  0.00  0.00    +0.000 OA
ATOM     12  N   UNL     1       0.617   9.961  19.514  0.00  0.00    +0.000 NA
ATOM     13  C   UNL     1      -0.133  10.743  20.362  0.00  0.00    +0.000 A 
ATOM     14  H   UNL     1       1.948   7.077  20.191  0.00  0.00    +0.000 HD
ENDROOT
BRANCH  10  15
ATOM     15  C   UNL     1       3.191   6.898  17.856  0.00  0.00    +0.000 A 
ATOM     16  C   UNL     1       2.636   5.632  18.103  0.00  0.00    +0.000 A 
ATOM     17  C   UNL     1       3.254   4.478  17.623  0.00  0.00    +0.000 A 
ATOM     18  C   UNL     1       4.430   4.581  16.887  0.00  0.00    +0.000 A 
ATOM     19  C   UNL     1       4.981   5.835  16.619  0.00  0.00    +0.000 A 
ATOM     20  C   UNL     1       4.363   6.996  17.098  0.00  0.00    +0.000 A 
ENDBRANCH  10  15
BRANCH   4  21
ATOM     21  N   UNL     1      -2.214  12.917  23.289  0.00  0.00    +0.000 N 
ATOM     22  H   UNL     1      -1.753  13.705  23.741  0.00  0.00    +0.000 HD
BRANCH  21  23
ATOM     23  S   UNL     1      -3.846  12.717  23.588  0.00  0.00    +0.000 S 
ATOM     24  O   UNL     1      -4.457  12.405  22.313  0.00  0.00    +0.000 OA
ATOM     25  O   UNL     1      -4.033  11.864  24.740  0.00  0.00    +0.000 OA
BRANCH  23  26
ATOM     26  C   UNL     1      -4.358  14.363  24.030  0.00  0.00    +0.000 A 
ATOM     27  C   UNL     1      -5.626  14.818  23.641  0.00  0.00    +0.000 A 
ATOM     28  C   UNL     1      -6.024  16.113  23.968  0.00  0.00    +0.000 A 
ATOM     29  C   UNL     1      -5.149  16.944  24.667  0.00  0.00    +0.000 A 
ATOM     30  F   UNL     1      -5.538  18.188  24.981  0.00  0.00    +0.000 F 
ATOM     31  C   UNL     1      -3.887  16.491  25.032  0.00  0.00    +0.000 A 
ATOM     32  F   UNL     1      -3.050  17.301  25.703  0.00  0.00    +0.000 F 
ATOM     33  C   UNL     1      -3.475  15.203  24.718  0.00  0.00    +0.000 A 
ENDBRANCH  23  26
ENDBRANCH  21  23
ENDBRANCH   4  21
TORSDOF 4
ENDMDL
