MODEL 1
REMARK VINA RESULT:      -7.4      0.000      0.000
REMARK  Name = 
REMARK  7 active torsions:
REMARK  status: ('A' for Active; 'I' for Inactive)
REMARK    1  A    between atoms: C_1  and  C_2
REMARK    2  A    between atoms: C_2  and  C_3
REMARK    3  A    between atoms: C_2  and  C_4
REMARK    4  A    between atoms: C_7  and  C_8
REMARK    5  A    between atoms: C_8  and  N_9
REMARK    6  A    between atoms: C_10  and  C_12
REMARK    7  A    between atoms: N_18  and  C_19
REMARK                            x       y       z     vdW  Elec       q    Type
REMARK                         _______ _______ _______ _____ _____    ______ ____
ROOT
ATOM      1  C   UNL     1       5.860   5.779  18.147  0.00  0.00    +0.000 C 
ENDROOT
BRANCH   1   5
ATOM      2  C   UNL     1       3.076   3.846  19.527  0.00  0.00    +0.000 A 
ATOM      3  N   UNL     1       4.093   3.037  19.733  0.00  0.00    +0.000 NA
ATOM      4  N   UNL     1       5.229   3.641  19.272  0.00  0.00    +0.000 NA
ATOM      5  C   UNL     1       4.903   4.820  18.771  0.00  0.00    +0.000 A 
ATOM      6  N   UNL     1       3.547   4.990  18.919  0.00  0.00    +0.000 N 
ATOM      7  C   UNL     1       2.744   6.121  18.526  0.00  0.00    +0.000 C 
BRANCH   2   9
ATOM      8  C   UNL     1       0.997   2.638  18.861  0.00  0.00    +0.000 C 
ATOM      9  C   UNL     1       1.641   3.577  19.881  0.00  0.00    +0.000 C 
ATOM     10  C   UNL     1       1.523   2.981  21.287  0.00  0.00    +0.000 C 
ENDBRANCH   2   9
ENDBRANCH   1   5
BRANCH   1  11
ATOM     11  N   UNL     1       5.856   5.571  16.714  0.00  0.00    +0.000 N 
ATOM     12  C   UNL     1       6.871   4.915  16.070  0.00  0.00    +0.000 C 
ATOM     13  O   UNL     1       7.891   4.545  16.639  0.00  0.00    +0.000 OA
ATOM     14  H   UNL     1       5.126   6.043  16.196  0.00  0.00    +0.000 HD
BRANCH  12  15
ATOM     15  C   UNL     1       6.668   4.650  14.609  0.00  0.00    +0.000 C 
ATOM     16  C   UNL     1       5.604   3.972  14.149  0.00  0.00    +0.000 C 
ATOM     17  O   UNL     1       5.418   3.561  12.851  0.00  0.00    +0.000 OA
ATOM     18  C   UNL     1       6.620   3.552  12.071  0.00  0.00    +0.000 C 
ATOM     19  C   UNL     1       7.387   4.858  12.209  0.00  0.00    +0.000 C 
ATOM     20  C   UNL     1       7.763   5.090  13.675  0.00  0.00    +0.000 C 
ENDBRANCH  12  15
ENDBRANCH   1  11
TORSDOF 4
ENDMDL
MODEL 2
REMARK VINA RESULT:      -6.9      1.119      1.443
REMARK  Name = 
REMARK  7 active torsions:
REMARK  status: ('A' for Active; 'I' for Inactive)
REMARK    1  A    between atoms: C_1  and  C_2
REMARK    2  A    between atoms: C_2  and  C_3
REMARK    3  A    between atoms: C_2  and  C_4
REMARK    4  A    between atoms: C_7  and  C_8
REMARK    5  A    between atoms: C_8  and  N_9
REMARK    6  A    between atoms: C_10  and  C_12
REMARK    7  A    between atoms: N_18  and  C_19
REMARK                            x       y       z     vdW  Elec       q    Type
REMARK                         _______ _______ _______ _____ _____    ______ ____
ROOT
ATOM      1  C   UNL     1       6.191   4.912  18.343  0.00  0.00    +0.000 C 
ENDROOT
BRANCH   1   5
ATOM      2  C   UNL     1       3.046   3.472  19.539  0.00  0.00    +0.000 A 
ATOM      3  N   UNL     1       3.925   2.588  19.962  0.00  0.00    +0.000 NA
ATOM      4  N   UNL     1       5.173   3.006  19.595  0.00  0.00    +0.000 NA
ATOM      5  C   UNL     1       5.056   4.144  18.932  0.00  0.00    +0.000 A 
ATOM      6  N   UNL     1       3.723   4.476  18.880  0.00  0.00    +0.000 N 
ATOM      7  C   UNL     1       3.117   5.632  18.267  0.00  0.00    +0.000 C 
BRANCH   2   9
ATOM      8  C   UNL     1       0.927   2.443  18.718  0.00  0.00    +0.000 C 
ATOM      9  C   UNL     1       1.558   3.404  19.726  0.00  0.00    +0.000 C 
ATOM     10  C   UNL     1       1.201   2.973  21.152  0.00  0.00    +0.000 C 
ENDBRANCH   2   9
ENDBRANCH   1   5
BRANCH   1  11
ATOM     11  N   UNL     1       6.367   4.494  16.967  0.00  0.00    +0.000 N 
ATOM     12  C   UNL     1       6.198   5.357  15.917  0.00  0.00    +0.000 C 
ATOM     13  O   UNL     1       5.797   6.506  16.057  0.00  0.00    +0.000 OA
ATOM     14  H   UNL     1       6.498   3.503  16.815  0.00  0.00    +0.000 HD
BRANCH  12  15
ATOM     15  C   UNL     1       6.547   4.825  14.559  0.00  0.00    +0.000 C 
ATOM     16  C   UNL     1       7.636   5.238  13.891  0.00  0.00    +0.000 C 
ATOM     17  O   UNL     1       7.947   4.914  12.593  0.00  0.00    +0.000 OA
ATOM     18  C   UNL     1       6.834   4.419  11.839  0.00  0.00    +0.000 C 
ATOM     19  C   UNL     1       6.088   3.328  12.592  0.00  0.00    +0.000 C 
ATOM     20  C   UNL     1       5.567   3.878  13.923  0.00  0.00    +0.000 C 
ENDBRANCH  12  15
ENDBRANCH   1  11
TORSDOF 4
ENDMDL
MODEL 3
REMARK VINA RESULT:      -6.8      1.075      1.889
REMARK  Name = 
REMARK  7 active torsions:
REMARK  status: ('A' for Active; 'I' for Inactive)
REMARK    1  A    between atoms: C_1  and  C_2
REMARK    2  A    between atoms: C_2  and  C_3
REMARK    3  A    between atoms: C_2  and  C_4
REMARK    4  A    between atoms: C_7  and  C_8
REMARK    5  A    between atoms: C_8  and  N_9
REMARK    6  A    between atoms: C_10  and  C_12
REMARK    7  A    between atoms: N_18  and  C_19
REMARK                            x       y       z     vdW  Elec       q    Type
REMARK                         _______ _______ _______ _____ _____    ______ ____
ROOT
ATOM      1  C   UNL     1       5.885   6.691  17.335  0.00  0.00    +0.000 C 
ENDROOT
BRANCH   1   5
ATOM      2  C   UNL     1       2.912   5.148  18.811  0.00  0.00    +0.000 A 
ATOM      3  N   UNL     1       2.458   6.336  18.471  0.00  0.00    +0.000 NA
ATOM      4  N   UNL     1       3.473   7.037  17.882  0.00  0.00    +0.000 NA
ATOM      5  C   UNL     1       4.556   6.279  17.874  0.00  0.00    +0.000 A 
ATOM      6  N   UNL     1       4.240   5.071  18.449  0.00  0.00    +0.000 N 
ATOM      7  C   UNL     1       5.098   3.931  18.652  0.00  0.00    +0.000 C 
BRANCH   2   9
ATOM      8  C   UNL     1       1.189   4.641  20.542  0.00  0.00    +0.000 C 
ATOM      9  C   UNL     1       2.130   4.059  19.487  0.00  0.00    +0.000 C 
ATOM     10  C   UNL     1       1.331   3.242  18.469  0.00  0.00    +0.000 C 
ENDBRANCH   2   9
ENDBRANCH   1   5
BRANCH   1  11
ATOM     11  N   UNL     1       5.991   6.231  15.966  0.00  0.00    +0.000 N 
ATOM     12  C   UNL     1       6.818   5.200  15.606  0.00  0.00    +0.000 C 
ATOM     13  O   UNL     1       7.590   4.661  16.390  0.00  0.00    +0.000 OA
ATOM     14  H   UNL     1       5.518   6.790  15.269  0.00  0.00    +0.000 HD
BRANCH  12  15
ATOM     15  C   UNL     1       6.723   4.740  14.183  0.00  0.00    +0.000 C 
ATOM     16  C   UNL     1       5.786   3.869  13.777  0.00  0.00    +0.000 C 
ATOM     17  O   UNL     1       5.720   3.287  12.534  0.00  0.00    +0.000 OA
ATOM     18  C   UNL     1       6.948   3.355  11.800  0.00  0.00    +0.000 C 
ATOM     19  C   UNL     1       7.522   4.764  11.800  0.00  0.00    +0.000 C 
ATOM     20  C   UNL     1       7.792   5.216  13.237  0.00  0.00    +0.000 C 
ENDBRANCH  12  15
ENDBRANCH   1  11
TORSDOF 4
ENDMDL
MODEL 4
REMARK VINA RESULT:      -6.8      1.071      1.723
REMARK  Name = 
REMARK  7 active torsions:
REMARK  status: ('A' for Active; 'I' for Inactive)
REMARK    1  A    between atoms: C_1  and  C_2
REMARK    2  A    between atoms: C_2  and  C_3
REMARK    3  A    between atoms: C_2  and  C_4
REMARK    4  A    between atoms: C_7  and  C_8
REMARK    5  A    between atoms: C_8  and  N_9
REMARK    6  A    between atoms: C_10  and  C_12
REMARK    7  A    between atoms: N_18  and  C_19
REMARK                            x       y       z     vdW  Elec       q    Type
REMARK                         _______ _______ _______ _____ _____    ______ ____
ROOT
ATOM      1  C   UNL     1       6.547   4.362  18.236  0.00  0.00    +0.000 C 
ENDROOT
BRANCH   1   5
ATOM      2  C   UNL     1       3.245   4.149  19.799  0.00  0.00    +0.000 A 
ATOM      3  N   UNL     1       3.430   5.450  19.740  0.00  0.00    +0.000 NA
ATOM      4  N   UNL     1       4.642   5.690  19.154  0.00  0.00    +0.000 NA
ATOM      5  C   UNL     1       5.205   4.529  18.866  0.00  0.00    +0.000 A 
ATOM      6  N   UNL     1       4.348   3.527  19.254  0.00  0.00    +0.000 N 
ATOM      7  C   UNL     1       4.532   2.102  19.134  0.00  0.00    +0.000 C 
BRANCH   2   9
ATOM      8  C   UNL     1       2.275   3.083  21.836  0.00  0.00    +0.000 C 
ATOM      9  C   UNL     1       2.045   3.448  20.369  0.00  0.00    +0.000 C 
ATOM     10  C   UNL     1       0.788   4.314  20.238  0.00  0.00    +0.000 C 
ENDBRANCH   2   9
ENDBRANCH   1   5
BRANCH   1  11
ATOM     11  N   UNL     1       6.370   4.212  16.806  0.00  0.00    +0.000 N 
ATOM     12  C   UNL     1       6.844   5.136  15.912  0.00  0.00    +0.000 C 
ATOM     13  O   UNL     1       7.362   6.191  16.258  0.00  0.00    +0.000 OA
ATOM     14  H   UNL     1       5.771   3.454  16.507  0.00  0.00    +0.000 HD
BRANCH  12  15
ATOM     15  C   UNL     1       6.712   4.783  14.462  0.00  0.00    +0.000 C 
ATOM     16  C   UNL     1       5.726   3.993  14.008  0.00  0.00    +0.000 C 
ATOM     17  O   UNL     1       5.618   3.504  12.728  0.00  0.00    +0.000 OA
ATOM     18  C   UNL     1       6.842   3.560  11.985  0.00  0.00    +0.000 C 
ATOM     19  C   UNL     1       7.490   4.933  12.076  0.00  0.00    +0.000 C 
ATOM     20  C   UNL     1       7.796   5.268  13.538  0.00  0.00    +0.000 C 
ENDBRANCH  12  15
ENDBRANCH   1  11
TORSDOF 4
ENDMDL
MODEL 5
REMARK VINA RESULT:      -6.7      2.578      6.637
REMARK  Name = 
REMARK  7 active torsions:
REMARK  status: ('A' for Active; 'I' for Inactive)
REMARK    1  A    between atoms: C_1  and  C_2
REMARK    2  A    between atoms: C_2  and  C_3
REMARK    3  A    between atoms: C_2  and  C_4
REMARK    4  A    between atoms: C_7  and  C_8
REMARK    5  A    between atoms: C_8  and  N_9
REMARK    6  A    between atoms: C_10  and  C_12
REMARK    7  A    between atoms: N_18  and  C_19
REMARK                            x       y       z     vdW  Elec       q    Type
REMARK                         _______ _______ _______ _____ _____    ______ ____
ROOT
ATOM      1  C   UNL     1       6.094   6.033  18.730  0.00  0.00    +0.000 C 
ENDROOT
BRANCH   1   5
ATOM      2  C   UNL     1       6.845   4.984  15.305  0.00  0.00    +0.000 A 
ATOM      3  N   UNL     1       7.744   4.314  15.994  0.00  0.00    +0.000 NA
ATOM      4  N   UNL     1       7.575   4.599  17.320  0.00  0.00    +0.000 NA
ATOM      5  C   UNL     1       6.577   5.457  17.441  0.00  0.00    +0.000 A 
ATOM      6  N   UNL     1       6.083   5.722  16.186  0.00  0.00    +0.000 N 
ATOM      7  C   UNL     1       4.992   6.592  15.824  0.00  0.00    +0.000 C 
BRANCH   2   9
ATOM      8  C   UNL     1       7.990   5.301  13.111  0.00  0.00    +0.000 C 
ATOM      9  C   UNL     1       6.674   4.964  13.813  0.00  0.00    +0.000 C 
ATOM     10  C   UNL     1       6.162   3.602  13.336  0.00  0.00    +0.000 C 
ENDBRANCH   2   9
ENDBRANCH   1   5
BRANCH   1  11
ATOM     11  N   UNL     1       5.005   5.215  19.222  0.00  0.00    +0.000 N 
ATOM     12  C   UNL     1       3.706   5.652  19.217  0.00  0.00    +0.000 C 
ATOM     13  O   UNL     1       3.388   6.789  18.890  0.00  0.00    +0.000 OA
ATOM     14  H   UNL     1       5.265   4.354  19.684  0.00  0.00    +0.000 HD
BRANCH  12  15
ATOM     15  C   UNL     1       2.668   4.651  19.625  0.00  0.00    +0.000 C 
ATOM     16  C   UNL     1       2.310   4.479  20.908  0.00  0.00    +0.000 C 
ATOM     17  O   UNL     1       1.482   3.490  21.380  0.00  0.00    +0.000 OA
ATOM     18  C   UNL     1       1.323   2.389  20.476  0.00  0.00    +0.000 C 
ATOM     19  C   UNL     1       0.989   2.864  19.070  0.00  0.00    +0.000 C 
ATOM     20  C   UNL     1       2.110   3.765  18.545  0.00  0.00    +0.000 C 
ENDBRANCH  12  15
ENDBRANCH   1  11
TORSDOF 4
ENDMDL
MODEL 6
REMARK VINA RESULT:      -6.7      2.367      6.636
REMARK  Name = 
REMARK  7 active torsions:
REMARK  status: ('A' for Active; 'I' for Inactive)
REMARK    1  A    between atoms: C_1  and  C_2
REMARK    2  A    between atoms: C_2  and  C_3
REMARK    3  A    between atoms: C_2  and  C_4
REMARK    4  A    between atoms: C_7  and  C_8
REMARK    5  A    between atoms: C_8  and  N_9
REMARK    6  A    between atoms: C_10  and  C_12
REMARK    7  A    between atoms: N_18  and  C_19
REMARK                            x       y       z     vdW  Elec       q    Type
REMARK                         _______ _______ _______ _____ _____    ______ ____
ROOT
ATOM      1  C   UNL     1       6.470   5.489  18.955  0.00  0.00    +0.000 C 
ENDROOT
BRANCH   1   5
ATOM      2  C   UNL     1       6.959   4.869  15.382  0.00  0.00    +0.000 A 
ATOM      3  N   UNL     1       7.935   4.164  15.913  0.00  0.00    +0.000 NA
ATOM      4  N   UNL     1       7.871   4.289  17.272  0.00  0.00    +0.000 NA
ATOM      5  C   UNL     1       6.859   5.085  17.573  0.00  0.00    +0.000 A 
ATOM      6  N   UNL     1       6.251   5.469  16.402  0.00  0.00    +0.000 N 
ATOM      7  C   UNL     1       5.106   6.329  16.233  0.00  0.00    +0.000 C 
BRANCH   2   9
ATOM      8  C   UNL     1       7.942   5.293  13.128  0.00  0.00    +0.000 C 
ATOM      9  C   UNL     1       6.662   5.012  13.916  0.00  0.00    +0.000 C 
ATOM     10  C   UNL     1       5.977   3.757  13.369  0.00  0.00    +0.000 C 
ENDBRANCH   2   9
ENDBRANCH   1   5
BRANCH   1  11
ATOM     11  N   UNL     1       5.423   4.601  19.418  0.00  0.00    +0.000 N 
ATOM     12  C   UNL     1       4.124   5.014  19.553  0.00  0.00    +0.000 C 
ATOM     13  O   UNL     1       3.774   6.175  19.385  0.00  0.00    +0.000 OA
ATOM     14  H   UNL     1       5.723   3.696  19.757  0.00  0.00    +0.000 HD
BRANCH  12  15
ATOM     15  C   UNL     1       3.125   3.954  19.908  0.00  0.00    +0.000 C 
ATOM     16  C   UNL     1       2.999   2.826  19.192  0.00  0.00    +0.000 C 
ATOM     17  O   UNL     1       2.018   1.878  19.359  0.00  0.00    +0.000 OA
ATOM     18  C   UNL     1       0.881   2.349  20.092  0.00  0.00    +0.000 C 
ATOM     19  C   UNL     1       1.295   3.052  21.376  0.00  0.00    +0.000 C 
ATOM     20  C   UNL     1       2.190   4.251  21.049  0.00  0.00    +0.000 C 
ENDBRANCH  12  15
ENDBRANCH   1  11
TORSDOF 4
ENDMDL
MODEL 7
REMARK VINA RESULT:      -6.6      0.992      1.348
REMARK  Name = 
REMARK  7 active torsions:
REMARK  status: ('A' for Active; 'I' for Inactive)
REMARK    1  A    between atoms: C_1  and  C_2
REMARK    2  A    between atoms: C_2  and  C_3
REMARK    3  A    between atoms: C_2  and  C_4
REMARK    4  A    between atoms: C_7  and  C_8
REMARK    5  A    between atoms: C_8  and  N_9
REMARK    6  A    between atoms: C_10  and  C_12
REMARK    7  A    between atoms: N_18  and  C_19
REMARK                            x       y       z     vdW  Elec       q    Type
REMARK                         _______ _______ _______ _____ _____    ______ ____
ROOT
ATOM      1  C   UNL     1       5.975   5.386  18.844  0.00  0.00    +0.000 C 
ENDROOT
BRANCH   1   5
ATOM      2  C   UNL     1       2.974   3.592  19.924  0.00  0.00    +0.000 A 
ATOM      3  N   UNL     1       3.870   2.628  19.901  0.00  0.00    +0.000 NA
ATOM      4  N   UNL     1       5.071   3.160  19.522  0.00  0.00    +0.000 NA
ATOM      5  C   UNL     1       4.905   4.452  19.298  0.00  0.00    +0.000 A 
ATOM      6  N   UNL     1       3.590   4.766  19.548  0.00  0.00    +0.000 N 
ATOM      7  C   UNL     1       2.947   6.053  19.445  0.00  0.00    +0.000 C 
BRANCH   2   9
ATOM      8  C   UNL     1       0.753   2.742  19.169  0.00  0.00    +0.000 C 
ATOM      9  C   UNL     1       1.524   3.447  20.286  0.00  0.00    +0.000 C 
ATOM     10  C   UNL     1       1.358   2.678  21.599  0.00  0.00    +0.000 C 
ENDBRANCH   2   9
ENDBRANCH   1   5
BRANCH   1  11
ATOM     11  N   UNL     1       6.082   5.300  17.402  0.00  0.00    +0.000 N 
ATOM     12  C   UNL     1       7.137   4.680  16.785  0.00  0.00    +0.000 C 
ATOM     13  O   UNL     1       8.102   4.242  17.399  0.00  0.00    +0.000 OA
ATOM     14  H   UNL     1       5.403   5.830  16.871  0.00  0.00    +0.000 HD
BRANCH  12  15
ATOM     15  C   UNL     1       7.047   4.545  15.295  0.00  0.00    +0.000 C 
ATOM     16  C   UNL     1       7.835   5.250  14.468  0.00  0.00    +0.000 C 
ATOM     17  O   UNL     1       7.718   5.296  13.099  0.00  0.00    +0.000 OA
ATOM     18  C   UNL     1       6.445   4.853  12.614  0.00  0.00    +0.000 C 
ATOM     19  C   UNL     1       6.043   3.522  13.230  0.00  0.00    +0.000 C 
ATOM     20  C   UNL     1       5.960   3.657  14.753  0.00  0.00    +0.000 C 
ENDBRANCH  12  15
ENDBRANCH   1  11
TORSDOF 4
ENDMDL
MODEL 8
REMARK VINA RESULT:      -6.6      0.869      1.487
REMARK  Name = 
REMARK  7 active torsions:
REMARK  status: ('A' for Active; 'I' for Inactive)
REMARK    1  A    between atoms: C_1  and  C_2
REMARK    2  A    between atoms: C_2  and  C_3
REMARK    3  A    between atoms: C_2  and  C_4
REMARK    4  A    between atoms: C_7  and  C_8
REMARK    5  A    between atoms: C_8  and  N_9
REMARK    6  A    between atoms: C_10  and  C_12
REMARK    7  A    between atoms: N_18  and  C_19
REMARK                            x       y       z     vdW  Elec       q    Type
REMARK                         _______ _______ _______ _____ _____    ______ ____
ROOT
ATOM      1  C   UNL     1       5.641   5.305  18.180  0.00  0.00    +0.000 C 
ENDROOT
BRANCH   1   5
ATOM      2  C   UNL     1       2.363   4.548  19.619  0.00  0.00    +0.000 A 
ATOM      3  N   UNL     1       2.263   5.840  19.387  0.00  0.00    +0.000 NA
ATOM      4  N   UNL     1       3.432   6.272  18.825  0.00  0.00    +0.000 NA
ATOM      5  C   UNL     1       4.254   5.242  18.724  0.00  0.00    +0.000 A 
ATOM      6  N   UNL     1       3.611   4.129  19.211  0.00  0.00    +0.000 N 
ATOM      7  C   UNL     1       4.111   2.779  19.299  0.00  0.00    +0.000 C 
BRANCH   2   9
ATOM      8  C   UNL     1       0.858   2.594  19.243  0.00  0.00    +0.000 C 
ATOM      9  C   UNL     1       1.308   3.672  20.230  0.00  0.00    +0.000 C 
ATOM     10  C   UNL     1       1.813   3.020  21.520  0.00  0.00    +0.000 C 
ENDBRANCH   2   9
ENDBRANCH   1   5
BRANCH   1  11
ATOM     11  N   UNL     1       5.594   5.018  16.761  0.00  0.00    +0.000 N 
ATOM     12  C   UNL     1       6.606   5.379  15.911  0.00  0.00    +0.000 C 
ATOM     13  O   UNL     1       7.569   6.046  16.268  0.00  0.00    +0.000 OA
ATOM     14  H   UNL     1       4.721   4.650  16.408  0.00  0.00    +0.000 HD
BRANCH  12  15
ATOM     15  C   UNL     1       6.487   4.897  14.497  0.00  0.00    +0.000 C 
ATOM     16  C   UNL     1       5.442   4.165  14.079  0.00  0.00    +0.000 C 
ATOM     17  O   UNL     1       5.327   3.563  12.849  0.00  0.00    +0.000 OA
ATOM     18  C   UNL     1       6.575   3.424  12.157  0.00  0.00    +0.000 C 
ATOM     19  C   UNL     1       7.355   4.729  12.143  0.00  0.00    +0.000 C 
ATOM     20  C   UNL     1       7.645   5.178  13.578  0.00  0.00    +0.000 C 
ENDBRANCH  12  15
ENDBRANCH   1  11
TORSDOF 4
ENDMDL
MODEL 9
REMARK VINA RESULT:      -6.6      2.331      6.547
REMARK  Name = 
REMARK  7 active torsions:
REMARK  status: ('A' for Active; 'I' for Inactive)
REMARK    1  A    between atoms: C_1  and  C_2
REMARK    2  A    between atoms: C_2  and  C_3
REMARK    3  A    between atoms: C_2  and  C_4
REMARK    4  A    between atoms: C_7  and  C_8
REMARK    5  A    between atoms: C_8  and  N_9
REMARK    6  A    between atoms: C_10  and  C_12
REMARK    7  A    between atoms: N_18  and  C_19
REMARK                            x       y       z     vdW  Elec       q    Type
REMARK                         _______ _______ _______ _____ _____    ______ ____
ROOT
ATOM      1  C   UNL     1       6.176   6.051  18.629  0.00  0.00    +0.000 C 
ENDROOT
BRANCH   1   5
ATOM      2  C   UNL     1       6.883   5.023  15.189  0.00  0.00    +0.000 A 
ATOM      3  N   UNL     1       7.806   4.368  15.860  0.00  0.00    +0.000 NA
ATOM      4  N   UNL     1       7.657   4.647  17.189  0.00  0.00    +0.000 NA
ATOM      5  C   UNL     1       6.645   5.487  17.330  0.00  0.00    +0.000 A 
ATOM      6  N   UNL     1       6.124   5.745  16.085  0.00  0.00    +0.000 N 
ATOM      7  C   UNL     1       5.011   6.596  15.745  0.00  0.00    +0.000 C 
BRANCH   2   9
ATOM      8  C   UNL     1       7.998   5.295  12.974  0.00  0.00    +0.000 C 
ATOM      9  C   UNL     1       6.685   5.003  13.700  0.00  0.00    +0.000 C 
ATOM     10  C   UNL     1       6.122   3.657  13.237  0.00  0.00    +0.000 C 
ENDBRANCH   2   9
ENDBRANCH   1   5
BRANCH   1  11
ATOM     11  N   UNL     1       4.866   5.506  18.923  0.00  0.00    +0.000 N 
ATOM     12  C   UNL     1       4.695   4.228  19.386  0.00  0.00    +0.000 C 
ATOM     13  O   UNL     1       5.619   3.431  19.494  0.00  0.00    +0.000 OA
ATOM     14  H   UNL     1       4.075   6.074  18.650  0.00  0.00    +0.000 HD
BRANCH  12  15
ATOM     15  C   UNL     1       3.300   3.846  19.778  0.00  0.00    +0.000 C 
ATOM     16  C   UNL     1       2.911   2.564  19.868  0.00  0.00    +0.000 C 
ATOM     17  O   UNL     1       1.623   2.132  20.075  0.00  0.00    +0.000 OA
ATOM     18  C   UNL     1       0.630   3.127  19.797  0.00  0.00    +0.000 C 
ATOM     19  C   UNL     1       0.960   4.451  20.469  0.00  0.00    +0.000 C 
ATOM     20  C   UNL     1       2.313   4.965  19.970  0.00  0.00    +0.000 C 
ENDBRANCH  12  15
ENDBRANCH   1  11
TORSDOF 4
ENDMDL
