MODEL 1
REMARK VINA RESULT:      -7.7      0.000      0.000
REMARK  Name = 
REMARK  8 active torsions:
REMARK  status: ('A' for Active; 'I' for Inactive)
REMARK    1  A    between atoms: N_1  and  N_2
REMARK    2  A    between atoms: C_3  and  C_4
REMARK    3  A    between atoms: C_4  and  C_5
REMARK    4  A    between atoms: C_17  and  S_18
REMARK    5  A    between atoms: S_18  and  C_19
REMARK    6  A    between atoms: C_19  and  C_20
REMARK    7  A    between atoms: C_20  and  O_21
REMARK    8  A    between atoms: O_21  and  C_22
REMARK                            x       y       z     vdW  Elec       q    Type
REMARK                         _______ _______ _______ _____ _____    ______ ____
ROOT
ATOM      1  N   UNL     1       2.081   5.375  19.870  0.00  0.00    +0.000 N 
ATOM      2  C   UNL     1       2.188   6.347  18.896  0.00  0.00    +0.000 A 
ATOM      3  N   UNL     1       1.883   5.810  17.729  0.00  0.00    +0.000 NA
ATOM      4  N   UNL     1       1.606   4.476  17.922  0.00  0.00    +0.000 NA
ATOM      5  C   UNL     1       1.736   4.224  19.201  0.00  0.00    +0.000 A 
ENDROOT
BRANCH   1   6
ATOM      6  N   UNL     1       2.317   5.520  21.280  0.00  0.00    +0.000 N 
ATOM      7  H   UNL     1       2.784   4.721  21.693  0.00  0.00    +0.000 HD
ATOM      8  H   UNL     1       1.446   5.656  21.789  0.00  0.00    +0.000 HD
ENDBRANCH   1   6
BRANCH   2   9
ATOM      9  C   UNL     1       2.591   7.775  19.110  0.00  0.00    +0.000 C 
BRANCH   9  10
ATOM     10  C   UNL     1       1.404   8.726  19.169  0.00  0.00    +0.000 A 
ATOM     11  C   UNL     1       0.858   9.149  17.937  0.00  0.00    +0.000 A 
ATOM     12  C   UNL     1      -0.145  10.109  17.884  0.00  0.00    +0.000 A 
ATOM     13  C   UNL     1      -0.637  10.654  19.063  0.00  0.00    +0.000 A 
ATOM     14  C   UNL     1      -0.180  10.202  20.309  0.00  0.00    +0.000 A 
ATOM     15  C   UNL     1      -0.746  10.732  21.481  0.00  0.00    +0.000 A 
ATOM     16  C   UNL     1      -0.355  10.275  22.736  0.00  0.00    +0.000 A 
ATOM     17  C   UNL     1       0.608   9.282  22.834  0.00  0.00    +0.000 A 
ATOM     18  C   UNL     1       1.198   8.760  21.676  0.00  0.00    +0.000 A 
ATOM     19  C   UNL     1       0.835   9.209  20.384  0.00  0.00    +0.000 A 
ENDBRANCH   9  10
ENDBRANCH   2   9
BRANCH   5  20
ATOM     20  S   UNL     1       1.553   2.678  19.962  0.00  0.00    +0.000 S 
BRANCH  20  21
ATOM     21  C   UNL     1       3.242   2.376  20.592  0.00  0.00    +0.000 C 
BRANCH  21  22
ATOM     22  C   UNL     1       4.257   2.288  19.456  0.00  0.00    +0.000 C 
BRANCH  22  23
ATOM     23  O   UNL     1       5.195   3.367  19.559  0.00  0.00    +0.000 OA
BRANCH  23  24
ATOM     24  C   UNL     1       5.235   4.224  18.487  0.00  0.00    +0.000 A 
ATOM     25  C   UNL     1       5.625   5.565  18.536  0.00  0.00    +0.000 A 
ATOM     26  C   UNL     1       5.634   6.343  17.375  0.00  0.00    +0.000 A 
ATOM     27  C   UNL     1       5.247   5.776  16.172  0.00  0.00    +0.000 A 
ATOM     28  F   UNL     1       5.258   6.522  15.061  0.00  0.00    +0.000 F 
ATOM     29  C   UNL     1       4.850   4.446  16.100  0.00  0.00    +0.000 A 
ATOM     30  C   UNL     1       4.844   3.670  17.262  0.00  0.00    +0.000 A 
ENDBRANCH  23  24
ENDBRANCH  22  23
ENDBRANCH  21  22
ENDBRANCH  20  21
ENDBRANCH   5  20
TORSDOF 8
ENDMDL
MODEL 2
REMARK VINA RESULT:      -7.3      1.836      2.505
REMARK  Name = 
REMARK  8 active torsions:
REMARK  status: ('A' for Active; 'I' for Inactive)
REMARK    1  A    between atoms: N_1  and  N_2
REMARK    2  A    between atoms: C_3  and  C_4
REMARK    3  A    between atoms: C_4  and  C_5
REMARK    4  A    between atoms: C_17  and  S_18
REMARK    5  A    between atoms: S_18  and  C_19
REMARK    6  A    between atoms: C_19  and  C_20
REMARK    7  A    between atoms: C_20  and  O_21
REMARK    8  A    between atoms: O_21  and  C_22
REMARK                            x       y       z     vdW  Elec       q    Type
REMARK                         _______ _______ _______ _____ _____    ______ ____
ROOT
ATOM      1  N   UNL     1       2.974   4.314  20.078  0.00  0.00    +0.000 N 
ATOM      2  C   UNL     1       1.924   5.112  20.484  0.00  0.00    +0.000 A 
ATOM      3  N   UNL     1       0.797   4.446  20.312  0.00  0.00    +0.000 NA
ATOM      4  N   UNL     1       1.095   3.219  19.763  0.00  0.00    +0.000 NA
ATOM      5  C   UNL     1       2.396   3.154  19.618  0.00  0.00    +0.000 A 
ENDROOT
BRANCH   1   6
ATOM      6  N   UNL     1       4.374   4.637  20.094  0.00  0.00    +0.000 N 
ATOM      7  H   UNL     1       4.653   5.177  20.905  0.00  0.00    +0.000 HD
ATOM      8  H   UNL     1       4.640   5.173  19.270  0.00  0.00    +0.000 HD
ENDBRANCH   1   6
BRANCH   2   9
ATOM      9  C   UNL     1       2.027   6.508  21.021  0.00  0.00    +0.000 C 
BRANCH   9  10
ATOM     10  C   UNL     1       1.829   7.573  19.953  0.00  0.00    +0.000 A 
ATOM     11  C   UNL     1       2.433   7.343  18.697  0.00  0.00    +0.000 A 
ATOM     12  C   UNL     1       2.413   8.310  17.699  0.00  0.00    +0.000 A 
ATOM     13  C   UNL     1       1.773   9.521  17.928  0.00  0.00    +0.000 A 
ATOM     14  C   UNL     1       1.091   9.757  19.130  0.00  0.00    +0.000 A 
ATOM     15  C   UNL     1       0.403  10.969  19.303  0.00  0.00    +0.000 A 
ATOM     16  C   UNL     1      -0.326  11.222  20.461  0.00  0.00    +0.000 A 
ATOM     17  C   UNL     1      -0.374  10.264  21.462  0.00  0.00    +0.000 A 
ATOM     18  C   UNL     1       0.325   9.061  21.316  0.00  0.00    +0.000 A 
ATOM     19  C   UNL     1       1.087   8.774  20.158  0.00  0.00    +0.000 A 
ENDBRANCH   9  10
ENDBRANCH   2   9
BRANCH   5  20
ATOM     20  S   UNL     1       3.282   1.841  18.916  0.00  0.00    +0.000 S 
BRANCH  20  21
ATOM     21  C   UNL     1       3.290   2.305  17.149  0.00  0.00    +0.000 C 
BRANCH  21  22
ATOM     22  C   UNL     1       3.487   3.807  16.964  0.00  0.00    +0.000 C 
BRANCH  22  23
ATOM     23  O   UNL     1       4.683   4.050  16.211  0.00  0.00    +0.000 OA
BRANCH  23  24
ATOM     24  C   UNL     1       5.561   4.950  16.764  0.00  0.00    +0.000 A 
ATOM     25  C   UNL     1       5.445   6.340  16.697  0.00  0.00    +0.000 A 
ATOM     26  C   UNL     1       6.397   7.162  17.307  0.00  0.00    +0.000 A 
ATOM     27  C   UNL     1       7.464   6.586  17.976  0.00  0.00    +0.000 A 
ATOM     28  F   UNL     1       8.375   7.373  18.561  0.00  0.00    +0.000 F 
ATOM     29  C   UNL     1       7.604   5.205  18.051  0.00  0.00    +0.000 A 
ATOM     30  C   UNL     1       6.649   4.386  17.442  0.00  0.00    +0.000 A 
ENDBRANCH  23  24
ENDBRANCH  22  23
ENDBRANCH  21  22
ENDBRANCH  20  21
ENDBRANCH   5  20
TORSDOF 8
ENDMDL
MODEL 3
REMARK VINA RESULT:      -7.3      0.736      1.111
REMARK  Name = 
REMARK  8 active torsions:
REMARK  status: ('A' for Active; 'I' for Inactive)
REMARK    1  A    between atoms: N_1  and  N_2
REMARK    2  A    between atoms: C_3  and  C_4
REMARK    3  A    between atoms: C_4  and  C_5
REMARK    4  A    between atoms: C_17  and  S_18
REMARK    5  A    between atoms: S_18  and  C_19
REMARK    6  A    between atoms: C_19  and  C_20
REMARK    7  A    between atoms: C_20  and  O_21
REMARK    8  A    between atoms: O_21  and  C_22
REMARK                            x       y       z     vdW  Elec       q    Type
REMARK                         _______ _______ _______ _____ _____    ______ ____
ROOT
ATOM      1  N   UNL     1       2.098   5.412  19.836  0.00  0.00    +0.000 N 
ATOM      2  C   UNL     1       2.215   6.385  18.864  0.00  0.00    +0.000 A 
ATOM      3  N   UNL     1       1.938   5.845  17.691  0.00  0.00    +0.000 NA
ATOM      4  N   UNL     1       1.669   4.508  17.880  0.00  0.00    +0.000 NA
ATOM      5  C   UNL     1       1.776   4.258  19.162  0.00  0.00    +0.000 A 
ENDROOT
BRANCH   1   6
ATOM      6  N   UNL     1       2.306   5.560  21.250  0.00  0.00    +0.000 N 
ATOM      7  H   UNL     1       3.271   5.748  21.497  0.00  0.00    +0.000 HD
ATOM      8  H   UNL     1       2.025   4.722  21.756  0.00  0.00    +0.000 HD
ENDBRANCH   1   6
BRANCH   2   9
ATOM      9  C   UNL     1       2.602   7.816  19.085  0.00  0.00    +0.000 C 
BRANCH   9  10
ATOM     10  C   UNL     1       1.404   8.752  19.154  0.00  0.00    +0.000 A 
ATOM     11  C   UNL     1       0.847   9.174  17.927  0.00  0.00    +0.000 A 
ATOM     12  C   UNL     1      -0.168  10.122  17.884  0.00  0.00    +0.000 A 
ATOM     13  C   UNL     1      -0.661  10.655  19.067  0.00  0.00    +0.000 A 
ATOM     14  C   UNL     1      -0.193  10.203  20.308  0.00  0.00    +0.000 A 
ATOM     15  C   UNL     1      -0.759  10.721  21.486  0.00  0.00    +0.000 A 
ATOM     16  C   UNL     1      -0.357  10.263  22.737  0.00  0.00    +0.000 A 
ATOM     17  C   UNL     1       0.619   9.281  22.825  0.00  0.00    +0.000 A 
ATOM     18  C   UNL     1       1.209   8.772  21.663  0.00  0.00    +0.000 A 
ATOM     19  C   UNL     1       0.835   9.223  20.374  0.00  0.00    +0.000 A 
ENDBRANCH   9  10
ENDBRANCH   2   9
BRANCH   5  20
ATOM     20  S   UNL     1       1.593   2.711  19.920  0.00  0.00    +0.000 S 
BRANCH  20  21
ATOM     21  C   UNL     1       3.269   2.428  20.590  0.00  0.00    +0.000 C 
BRANCH  21  22
ATOM     22  C   UNL     1       4.317   2.386  19.481  0.00  0.00    +0.000 C 
BRANCH  22  23
ATOM     23  O   UNL     1       5.022   3.634  19.432  0.00  0.00    +0.000 OA
BRANCH  23  24
ATOM     24  C   UNL     1       5.484   4.007  18.194  0.00  0.00    +0.000 A 
ATOM     25  C   UNL     1       4.851   3.737  16.978  0.00  0.00    +0.000 A 
ATOM     26  C   UNL     1       5.411   4.174  15.775  0.00  0.00    +0.000 A 
ATOM     27  C   UNL     1       6.605   4.874  15.794  0.00  0.00    +0.000 A 
ATOM     28  F   UNL     1       7.140   5.293  14.641  0.00  0.00    +0.000 F 
ATOM     29  C   UNL     1       7.257   5.150  16.991  0.00  0.00    +0.000 A 
ATOM     30  C   UNL     1       6.693   4.713  18.193  0.00  0.00    +0.000 A 
ENDBRANCH  23  24
ENDBRANCH  22  23
ENDBRANCH  21  22
ENDBRANCH  20  21
ENDBRANCH   5  20
TORSDOF 8
ENDMDL
MODEL 4
REMARK VINA RESULT:      -7.2      2.428      5.763
REMARK  Name = 
REMARK  8 active torsions:
REMARK  status: ('A' for Active; 'I' for Inactive)
REMARK    1  A    between atoms: N_1  and  N_2
REMARK    2  A    between atoms: C_3  and  C_4
REMARK    3  A    between atoms: C_4  and  C_5
REMARK    4  A    between atoms: C_17  and  S_18
REMARK    5  A    between atoms: S_18  and  C_19
REMARK    6  A    between atoms: C_19  and  C_20
REMARK    7  A    between atoms: C_20  and  O_21
REMARK    8  A    between atoms: O_21  and  C_22
REMARK                            x       y       z     vdW  Elec       q    Type
REMARK                         _______ _______ _______ _____ _____    ______ ____
ROOT
ATOM      1  N   UNL     1       3.747   2.641  18.879  0.00  0.00    +0.000 N 
ATOM      2  C   UNL     1       3.866   2.974  17.546  0.00  0.00    +0.000 A 
ATOM      3  N   UNL     1       2.655   3.080  17.028  0.00  0.00    +0.000 NA
ATOM      4  N   UNL     1       1.735   2.785  18.008  0.00  0.00    +0.000 NA
ATOM      5  C   UNL     1       2.397   2.515  19.107  0.00  0.00    +0.000 A 
ENDROOT
BRANCH   1   6
ATOM      6  N   UNL     1       4.808   2.430  19.825  0.00  0.00    +0.000 N 
ATOM      7  H   UNL     1       4.505   2.499  20.791  0.00  0.00    +0.000 HD
ATOM      8  H   UNL     1       5.559   3.105  19.697  0.00  0.00    +0.000 HD
ENDBRANCH   1   6
BRANCH   2   9
ATOM      9  C   UNL     1       5.147   3.176  16.793  0.00  0.00    +0.000 C 
BRANCH   9  10
ATOM     10  C   UNL     1       5.485   4.644  16.577  0.00  0.00    +0.000 A 
ATOM     11  C   UNL     1       4.859   5.295  15.492  0.00  0.00    +0.000 A 
ATOM     12  C   UNL     1       5.195   6.597  15.140  0.00  0.00    +0.000 A 
ATOM     13  C   UNL     1       6.151   7.282  15.878  0.00  0.00    +0.000 A 
ATOM     14  C   UNL     1       6.736   6.702  17.012  0.00  0.00    +0.000 A 
ATOM     15  C   UNL     1       7.653   7.449  17.769  0.00  0.00    +0.000 A 
ATOM     16  C   UNL     1       8.220   6.927  18.929  0.00  0.00    +0.000 A 
ATOM     17  C   UNL     1       7.874   5.650  19.344  0.00  0.00    +0.000 A 
ATOM     18  C   UNL     1       6.979   4.884  18.588  0.00  0.00    +0.000 A 
ATOM     19  C   UNL     1       6.394   5.377  17.397  0.00  0.00    +0.000 A 
ENDBRANCH   9  10
ENDBRANCH   2   9
BRANCH   5  20
ATOM     20  S   UNL     1       1.709   2.027  20.620  0.00  0.00    +0.000 S 
BRANCH  20  21
ATOM     21  C   UNL     1       1.827   3.568  21.594  0.00  0.00    +0.000 C 
BRANCH  21  22
ATOM     22  C   UNL     1       1.442   4.788  20.762  0.00  0.00    +0.000 C 
BRANCH  22  23
ATOM     23  O   UNL     1       2.614   5.553  20.449  0.00  0.00    +0.000 OA
BRANCH  23  24
ATOM     24  C   UNL     1       2.395   6.721  19.762  0.00  0.00    +0.000 A 
ATOM     25  C   UNL     1       1.684   7.823  20.244  0.00  0.00    +0.000 A 
ATOM     26  C   UNL     1       1.530   8.968  19.457  0.00  0.00    +0.000 A 
ATOM     27  C   UNL     1       2.084   9.001  18.189  0.00  0.00    +0.000 A 
ATOM     28  F   UNL     1       1.937  10.098  17.436  0.00  0.00    +0.000 F 
ATOM     29  C   UNL     1       2.790   7.915  17.685  0.00  0.00    +0.000 A 
ATOM     30  C   UNL     1       2.944   6.772  18.475  0.00  0.00    +0.000 A 
ENDBRANCH  23  24
ENDBRANCH  22  23
ENDBRANCH  21  22
ENDBRANCH  20  21
ENDBRANCH   5  20
TORSDOF 8
ENDMDL
MODEL 5
REMARK VINA RESULT:      -7.1      5.706      7.791
REMARK  Name = 
REMARK  8 active torsions:
REMARK  status: ('A' for Active; 'I' for Inactive)
REMARK    1  A    between atoms: N_1  and  N_2
REMARK    2  A    between atoms: C_3  and  C_4
REMARK    3  A    between atoms: C_4  and  C_5
REMARK    4  A    between atoms: C_17  and  S_18
REMARK    5  A    between atoms: S_18  and  C_19
REMARK    6  A    between atoms: C_19  and  C_20
REMARK    7  A    between atoms: C_20  and  O_21
REMARK    8  A    between atoms: O_21  and  C_22
REMARK                            x       y       z     vdW  Elec       q    Type
REMARK                         _______ _______ _______ _____ _____    ______ ____
ROOT
ATOM      1  N   UNL     1       7.898   6.812  18.614  0.00  0.00    +0.000 N 
ATOM      2  C   UNL     1       8.218   8.123  18.323  0.00  0.00    +0.000 A 
ATOM      3  N   UNL     1       7.682   8.438  17.157  0.00  0.00    +0.000 NA
ATOM      4  N   UNL     1       7.035   7.330  16.661  0.00  0.00    +0.000 NA
ATOM      5  C   UNL     1       7.178   6.362  17.533  0.00  0.00    +0.000 A 
ENDROOT
BRANCH   1   6
ATOM      6  N   UNL     1       8.270   6.061  19.781  0.00  0.00    +0.000 N 
ATOM      7  H   UNL     1       9.187   6.303  20.140  0.00  0.00    +0.000 HD
ATOM      8  H   UNL     1       8.276   5.061  19.591  0.00  0.00    +0.000 HD
ENDBRANCH   1   6
BRANCH   2   9
ATOM      9  C   UNL     1       9.043   9.044  19.170  0.00  0.00    +0.000 C 
BRANCH   9  10
ATOM     10  C   UNL     1       9.050  10.477  18.658  0.00  0.00    +0.000 A 
ATOM     11  C   UNL     1       7.922  10.902  17.924  0.00  0.00    +0.000 A 
ATOM     12  C   UNL     1       7.887  12.149  17.312  0.00  0.00    +0.000 A 
ATOM     13  C   UNL     1       8.973  13.006  17.437  0.00  0.00    +0.000 A 
ATOM     14  C   UNL     1      10.077  12.656  18.226  0.00  0.00    +0.000 A 
ATOM     15  C   UNL     1      11.130  13.573  18.380  0.00  0.00    +0.000 A 
ATOM     16  C   UNL     1      12.221  13.283  19.193  0.00  0.00    +0.000 A 
ATOM     17  C   UNL     1      12.273  12.070  19.862  0.00  0.00    +0.000 A 
ATOM     18  C   UNL     1      11.244  11.135  19.701  0.00  0.00    +0.000 A 
ATOM     19  C   UNL     1      10.125  11.390  18.872  0.00  0.00    +0.000 A 
ENDBRANCH   9  10
ENDBRANCH   2   9
BRANCH   5  20
ATOM     20  S   UNL     1       6.600   4.738  17.361  0.00  0.00    +0.000 S 
BRANCH  20  21
ATOM     21  C   UNL     1       4.837   5.014  16.964  0.00  0.00    +0.000 C 
BRANCH  21  22
ATOM     22  C   UNL     1       4.204   6.036  17.904  0.00  0.00    +0.000 C 
BRANCH  22  23
ATOM     23  O   UNL     1       2.779   5.880  17.901  0.00  0.00    +0.000 OA
BRANCH  23  24
ATOM     24  C   UNL     1       2.276   4.997  18.824  0.00  0.00    +0.000 A 
ATOM     25  C   UNL     1       1.436   3.918  18.539  0.00  0.00    +0.000 A 
ATOM     26  C   UNL     1       0.990   3.076  19.562  0.00  0.00    +0.000 A 
ATOM     27  C   UNL     1       1.384   3.323  20.866  0.00  0.00    +0.000 A 
ATOM     28  F   UNL     1       0.957   2.515  21.845  0.00  0.00    +0.000 F 
ATOM     29  C   UNL     1       2.214   4.393  21.176  0.00  0.00    +0.000 A 
ATOM     30  C   UNL     1       2.660   5.232  20.150  0.00  0.00    +0.000 A 
ENDBRANCH  23  24
ENDBRANCH  22  23
ENDBRANCH  21  22
ENDBRANCH  20  21
ENDBRANCH   5  20
TORSDOF 8
ENDMDL
MODEL 6
REMARK VINA RESULT:      -7.1      1.192      1.600
REMARK  Name = 
REMARK  8 active torsions:
REMARK  status: ('A' for Active; 'I' for Inactive)
REMARK    1  A    between atoms: N_1  and  N_2
REMARK    2  A    between atoms: C_3  and  C_4
REMARK    3  A    between atoms: C_4  and  C_5
REMARK    4  A    between atoms: C_17  and  S_18
REMARK    5  A    between atoms: S_18  and  C_19
REMARK    6  A    between atoms: C_19  and  C_20
REMARK    7  A    between atoms: C_20  and  O_21
REMARK    8  A    between atoms: O_21  and  C_22
REMARK                            x       y       z     vdW  Elec       q    Type
REMARK                         _______ _______ _______ _____ _____    ______ ____
ROOT
ATOM      1  N   UNL     1       2.119   4.851  19.873  0.00  0.00    +0.000 N 
ATOM      2  C   UNL     1       2.173   6.143  19.390  0.00  0.00    +0.000 A 
ATOM      3  N   UNL     1       1.976   6.114  18.084  0.00  0.00    +0.000 NA
ATOM      4  N   UNL     1       1.826   4.802  17.695  0.00  0.00    +0.000 NA
ATOM      5  C   UNL     1       1.922   4.056  18.768  0.00  0.00    +0.000 A 
ENDROOT
BRANCH   1   6
ATOM      6  N   UNL     1       2.276   4.419  21.234  0.00  0.00    +0.000 N 
ATOM      7  H   UNL     1       1.407   4.122  21.664  0.00  0.00    +0.000 HD
ATOM      8  H   UNL     1       2.660   5.160  21.816  0.00  0.00    +0.000 HD
ENDBRANCH   1   6
BRANCH   2   9
ATOM      9  C   UNL     1       2.421   7.381  20.198  0.00  0.00    +0.000 C 
BRANCH   9  10
ATOM     10  C   UNL     1       1.462   8.514  19.859  0.00  0.00    +0.000 A 
ATOM     11  C   UNL     1       1.349   8.876  18.499  0.00  0.00    +0.000 A 
ATOM     12  C   UNL     1       0.596   9.974  18.105  0.00  0.00    +0.000 A 
ATOM     13  C   UNL     1      -0.077  10.724  19.060  0.00  0.00    +0.000 A 
ATOM     14  C   UNL     1      -0.058  10.351  20.411  0.00  0.00    +0.000 A 
ATOM     15  C   UNL     1      -0.801  11.097  21.340  0.00  0.00    +0.000 A 
ATOM     16  C   UNL     1      -0.848  10.731  22.682  0.00  0.00    +0.000 A 
ATOM     17  C   UNL     1      -0.150   9.612  23.111  0.00  0.00    +0.000 A 
ATOM     18  C   UNL     1       0.614   8.871  22.201  0.00  0.00    +0.000 A 
ATOM     19  C   UNL     1       0.695   9.221  20.832  0.00  0.00    +0.000 A 
ENDBRANCH   9  10
ENDBRANCH   2   9
BRANCH   5  20
ATOM     20  S   UNL     1       1.861   2.325  18.818  0.00  0.00    +0.000 S 
BRANCH  20  21
ATOM     21  C   UNL     1       3.635   1.891  18.735  0.00  0.00    +0.000 C 
BRANCH  21  22
ATOM     22  C   UNL     1       4.443   2.970  18.019  0.00  0.00    +0.000 C 
BRANCH  22  23
ATOM     23  O   UNL     1       5.206   3.719  18.974  0.00  0.00    +0.000 OA
BRANCH  23  24
ATOM     24  C   UNL     1       5.843   4.832  18.483  0.00  0.00    +0.000 A 
ATOM     25  C   UNL     1       5.405   5.607  17.407  0.00  0.00    +0.000 A 
ATOM     26  C   UNL     1       6.132   6.728  16.998  0.00  0.00    +0.000 A 
ATOM     27  C   UNL     1       7.298   7.063  17.665  0.00  0.00    +0.000 A 
ATOM     28  F   UNL     1       7.994   8.138  17.273  0.00  0.00    +0.000 F 
ATOM     29  C   UNL     1       7.758   6.304  18.735  0.00  0.00    +0.000 A 
ATOM     30  C   UNL     1       7.027   5.185  19.143  0.00  0.00    +0.000 A 
ENDBRANCH  23  24
ENDBRANCH  22  23
ENDBRANCH  21  22
ENDBRANCH  20  21
ENDBRANCH   5  20
TORSDOF 8
ENDMDL
MODEL 7
REMARK VINA RESULT:      -7.0      6.819      9.379
REMARK  Name = 
REMARK  8 active torsions:
REMARK  status: ('A' for Active; 'I' for Inactive)
REMARK    1  A    between atoms: N_1  and  N_2
REMARK    2  A    between atoms: C_3  and  C_4
REMARK    3  A    between atoms: C_4  and  C_5
REMARK    4  A    between atoms: C_17  and  S_18
REMARK    5  A    between atoms: S_18  and  C_19
REMARK    6  A    between atoms: C_19  and  C_20
REMARK    7  A    between atoms: C_20  and  O_21
REMARK    8  A    between atoms: O_21  and  C_22
REMARK                            x       y       z     vdW  Elec       q    Type
REMARK                         _______ _______ _______ _____ _____    ______ ____
ROOT
ATOM      1  N   UNL     1      -3.939  13.232  21.299  0.00  0.00    +0.000 N 
ATOM      2  C   UNL     1      -3.174  12.744  22.339  0.00  0.00    +0.000 A 
ATOM      3  N   UNL     1      -3.980  12.237  23.254  0.00  0.00    +0.000 NA
ATOM      4  N   UNL     1      -5.279  12.416  22.838  0.00  0.00    +0.000 NA
ATOM      5  C   UNL     1      -5.245  13.020  21.675  0.00  0.00    +0.000 A 
ENDROOT
BRANCH   1   6
ATOM      6  N   UNL     1      -3.477  13.865  20.095  0.00  0.00    +0.000 N 
ATOM      7  H   UNL     1      -4.087  14.607  19.771  0.00  0.00    +0.000 HD
ATOM      8  H   UNL     1      -3.390  13.194  19.334  0.00  0.00    +0.000 HD
ENDBRANCH   1   6
BRANCH   2   9
ATOM      9  C   UNL     1      -1.678  12.785  22.433  0.00  0.00    +0.000 C 
BRANCH   9  10
ATOM     10  C   UNL     1      -1.027  11.440  22.146  0.00  0.00    +0.000 A 
ATOM     11  C   UNL     1      -0.954  10.520  23.215  0.00  0.00    +0.000 A 
ATOM     12  C   UNL     1      -0.271   9.317  23.086  0.00  0.00    +0.000 A 
ATOM     13  C   UNL     1       0.338   8.999  21.879  0.00  0.00    +0.000 A 
ATOM     14  C   UNL     1       0.220   9.847  20.769  0.00  0.00    +0.000 A 
ATOM     15  C   UNL     1       0.797   9.463  19.548  0.00  0.00    +0.000 A 
ATOM     16  C   UNL     1       0.661  10.253  18.410  0.00  0.00    +0.000 A 
ATOM     17  C   UNL     1      -0.056  11.438  18.481  0.00  0.00    +0.000 A 
ATOM     18  C   UNL     1      -0.617  11.846  19.697  0.00  0.00    +0.000 A 
ATOM     19  C   UNL     1      -0.488  11.075  20.877  0.00  0.00    +0.000 A 
ENDBRANCH   9  10
ENDBRANCH   2   9
BRANCH   5  20
ATOM     20  S   UNL     1      -6.617  13.528  20.747  0.00  0.00    +0.000 S 
BRANCH  20  21
ATOM     21  C   UNL     1      -7.522  11.955  20.535  0.00  0.00    +0.000 C 
BRANCH  21  22
ATOM     22  C   UNL     1      -6.765  10.991  19.626  0.00  0.00    +0.000 C 
BRANCH  22  23
ATOM     23  O   UNL     1      -6.254  11.697  18.487  0.00  0.00    +0.000 OA
BRANCH  23  24
ATOM     24  C   UNL     1      -5.134  11.155  17.906  0.00  0.00    +0.000 A 
ATOM     25  C   UNL     1      -4.345  10.143  18.457  0.00  0.00    +0.000 A 
ATOM     26  C   UNL     1      -3.227   9.661  17.770  0.00  0.00    +0.000 A 
ATOM     27  C   UNL     1      -2.903  10.200  16.536  0.00  0.00    +0.000 A 
ATOM     28  F   UNL     1      -1.833   9.737  15.877  0.00  0.00    +0.000 F 
ATOM     29  C   UNL     1      -3.669  11.212  15.970  0.00  0.00    +0.000 A 
ATOM     30  C   UNL     1      -4.788  11.690  16.659  0.00  0.00    +0.000 A 
ENDBRANCH  23  24
ENDBRANCH  22  23
ENDBRANCH  21  22
ENDBRANCH  20  21
ENDBRANCH   5  20
TORSDOF 8
ENDMDL
MODEL 8
REMARK VINA RESULT:      -6.9      3.987      7.996
REMARK  Name = 
REMARK  8 active torsions:
REMARK  status: ('A' for Active; 'I' for Inactive)
REMARK    1  A    between atoms: N_1  and  N_2
REMARK    2  A    between atoms: C_3  and  C_4
REMARK    3  A    between atoms: C_4  and  C_5
REMARK    4  A    between atoms: C_17  and  S_18
REMARK    5  A    between atoms: S_18  and  C_19
REMARK    6  A    between atoms: C_19  and  C_20
REMARK    7  A    between atoms: C_20  and  O_21
REMARK    8  A    between atoms: O_21  and  C_22
REMARK                            x       y       z     vdW  Elec       q    Type
REMARK                         _______ _______ _______ _____ _____    ______ ____
ROOT
ATOM      1  N   UNL     1       1.545   9.552  18.854  0.00  0.00    +0.000 N 
ATOM      2  C   UNL     1       1.868   8.213  18.763  0.00  0.00    +0.000 A 
ATOM      3  N   UNL     1       1.802   7.680  19.969  0.00  0.00    +0.000 NA
ATOM      4  N   UNL     1       1.467   8.669  20.866  0.00  0.00    +0.000 NA
ATOM      5  C   UNL     1       1.326   9.785  20.192  0.00  0.00    +0.000 A 
ENDROOT
BRANCH   1   6
ATOM      6  N   UNL     1       1.487  10.512  17.787  0.00  0.00    +0.000 N 
ATOM      7  H   UNL     1       2.401  10.804  17.459  0.00  0.00    +0.000 HD
ATOM      8  H   UNL     1       0.988  11.353  18.072  0.00  0.00    +0.000 HD
ENDBRANCH   1   6
BRANCH   2   9
ATOM      9  C   UNL     1       2.243   7.476  17.513  0.00  0.00    +0.000 C 
BRANCH   9  10
ATOM     10  C   UNL     1       3.275   6.383  17.754  0.00  0.00    +0.000 A 
ATOM     11  C   UNL     1       4.630   6.777  17.796  0.00  0.00    +0.000 A 
ATOM     12  C   UNL     1       5.651   5.839  17.888  0.00  0.00    +0.000 A 
ATOM     13  C   UNL     1       5.339   4.488  17.960  0.00  0.00    +0.000 A 
ATOM     14  C   UNL     1       4.005   4.061  18.004  0.00  0.00    +0.000 A 
ATOM     15  C   UNL     1       3.727   2.690  18.139  0.00  0.00    +0.000 A 
ATOM     16  C   UNL     1       2.418   2.229  18.235  0.00  0.00    +0.000 A 
ATOM     17  C   UNL     1       1.369   3.136  18.198  0.00  0.00    +0.000 A 
ATOM     18  C   UNL     1       1.628   4.502  18.040  0.00  0.00    +0.000 A 
ATOM     19  C   UNL     1       2.946   5.006  17.926  0.00  0.00    +0.000 A 
ENDBRANCH   9  10
ENDBRANCH   2   9
BRANCH   5  20
ATOM     20  S   UNL     1       0.963  11.342  20.859  0.00  0.00    +0.000 S 
BRANCH  20  21
ATOM     21  C   UNL     1      -0.864  11.327  20.858  0.00  0.00    +0.000 C 
BRANCH  21  22
ATOM     22  C   UNL     1      -1.428  11.702  19.491  0.00  0.00    +0.000 C 
BRANCH  22  23
ATOM     23  O   UNL     1      -2.529  10.842  19.167  0.00  0.00    +0.000 OA
BRANCH  23  24
ATOM     24  C   UNL     1      -2.769  10.665  17.827  0.00  0.00    +0.000 A 
ATOM     25  C   UNL     1      -2.057   9.810  16.982  0.00  0.00    +0.000 A 
ATOM     26  C   UNL     1      -2.396   9.703  15.631  0.00  0.00    +0.000 A 
ATOM     27  C   UNL     1      -3.444  10.457  15.131  0.00  0.00    +0.000 A 
ATOM     28  F   UNL     1      -3.770  10.354  13.836  0.00  0.00    +0.000 F 
ATOM     29  C   UNL     1      -4.164  11.319  15.950  0.00  0.00    +0.000 A 
ATOM     30  C   UNL     1      -3.824  11.422  17.302  0.00  0.00    +0.000 A 
ENDBRANCH  23  24
ENDBRANCH  22  23
ENDBRANCH  21  22
ENDBRANCH  20  21
ENDBRANCH   5  20
TORSDOF 8
ENDMDL
MODEL 9
REMARK VINA RESULT:      -6.8      1.957      2.645
REMARK  Name = 
REMARK  8 active torsions:
REMARK  status: ('A' for Active; 'I' for Inactive)
REMARK    1  A    between atoms: N_1  and  N_2
REMARK    2  A    between atoms: C_3  and  C_4
REMARK    3  A    between atoms: C_4  and  C_5
REMARK    4  A    between atoms: C_17  and  S_18
REMARK    5  A    between atoms: S_18  and  C_19
REMARK    6  A    between atoms: C_19  and  C_20
REMARK    7  A    between atoms: C_20  and  O_21
REMARK    8  A    between atoms: O_21  and  C_22
REMARK                            x       y       z     vdW  Elec       q    Type
REMARK                         _______ _______ _______ _____ _____    ______ ____
ROOT
ATOM      1  N   UNL     1       1.821   7.942  19.886  0.00  0.00    +0.000 N 
ATOM      2  C   UNL     1       1.832   8.781  18.791  0.00  0.00    +0.000 A 
ATOM      3  N   UNL     1       2.183   8.082  17.726  0.00  0.00    +0.000 NA
ATOM      4  N   UNL     1       2.436   6.787  18.119  0.00  0.00    +0.000 NA
ATOM      5  C   UNL     1       2.226   6.716  19.411  0.00  0.00    +0.000 A 
ENDROOT
BRANCH   1   6
ATOM      6  N   UNL     1       1.495   8.280  21.243  0.00  0.00    +0.000 N 
ATOM      7  H   UNL     1       2.049   9.045  21.612  0.00  0.00    +0.000 HD
ATOM      8  H   UNL     1       1.629   7.485  21.866  0.00  0.00    +0.000 HD
ENDBRANCH   1   6
BRANCH   2   9
ATOM      9  C   UNL     1       1.513  10.246  18.793  0.00  0.00    +0.000 C 
BRANCH   9  10
ATOM     10  C   UNL     1       0.018  10.529  18.745  0.00  0.00    +0.000 A 
ATOM     11  C   UNL     1      -0.717   9.923  17.703  0.00  0.00    +0.000 A 
ATOM     12  C   UNL     1      -2.060  10.217  17.502  0.00  0.00    +0.000 A 
ATOM     13  C   UNL     1      -2.702  11.109  18.351  0.00  0.00    +0.000 A 
ATOM     14  C   UNL     1      -2.031  11.668  19.447  0.00  0.00    +0.000 A 
ATOM     15  C   UNL     1      -2.730  12.517  20.320  0.00  0.00    +0.000 A 
ATOM     16  C   UNL     1      -2.113  13.054  21.447  0.00  0.00    +0.000 A 
ATOM     17  C   UNL     1      -0.788  12.747  21.713  0.00  0.00    +0.000 A 
ATOM     18  C   UNL     1      -0.070  11.921  20.840  0.00  0.00    +0.000 A 
ATOM     19  C   UNL     1      -0.660  11.368  19.678  0.00  0.00    +0.000 A 
ENDBRANCH   9  10
ENDBRANCH   2   9
BRANCH   5  20
ATOM     20  S   UNL     1       2.460   5.319  20.409  0.00  0.00    +0.000 S 
BRANCH  20  21
ATOM     21  C   UNL     1       3.014   4.080  19.184  0.00  0.00    +0.000 C 
BRANCH  21  22
ATOM     22  C   UNL     1       4.476   3.698  19.395  0.00  0.00    +0.000 C 
BRANCH  22  23
ATOM     23  O   UNL     1       5.198   3.841  18.165  0.00  0.00    +0.000 OA
BRANCH  23  24
ATOM     24  C   UNL     1       5.995   4.955  18.070  0.00  0.00    +0.000 A 
ATOM     25  C   UNL     1       7.097   5.234  18.881  0.00  0.00    +0.000 A 
ATOM     26  C   UNL     1       7.844   6.399  18.688  0.00  0.00    +0.000 A 
ATOM     27  C   UNL     1       7.479   7.283  17.686  0.00  0.00    +0.000 A 
ATOM     28  F   UNL     1       8.195   8.398  17.501  0.00  0.00    +0.000 F 
ATOM     29  C   UNL     1       6.383   7.030  16.870  0.00  0.00    +0.000 A 
ATOM     30  C   UNL     1       5.639   5.863  17.064  0.00  0.00    +0.000 A 
ENDBRANCH  23  24
ENDBRANCH  22  23
ENDBRANCH  21  22
ENDBRANCH  20  21
ENDBRANCH   5  20
TORSDOF 8
ENDMDL
