MODEL 1
REMARK VINA RESULT:      -8.8      0.000      0.000
REMARK  Name = 
REMARK  11 active torsions:
REMARK  status: ('A' for Active; 'I' for Inactive)
REMARK    1  A    between atoms: C_1  and  C_2
REMARK    2  A    between atoms: C_2  and  O_3
REMARK    3  A    between atoms: O_3  and  C_4
REMARK    4  A    between atoms: C_7  and  C_8
REMARK    5  A    between atoms: C_14  and  C_16
REMARK    6  A    between atoms: C_20  and  C_21
REMARK    7  A    between atoms: C_22  and  C_23
REMARK    8  A    between atoms: C_26  and  C_27
REMARK    9  A    between atoms: C_29  and  O_30
REMARK   10  A    between atoms: O_30  and  C_31
REMARK   11  A    between atoms: C_31  and  C_32
REMARK                            x       y       z     vdW  Elec       q    Type
REMARK                         _______ _______ _______ _____ _____    ______ ____
ROOT
ATOM      1  C   UNL     1      -1.496  11.850  20.416  0.00  0.00    +0.000 A 
ATOM      2  N   UNL     1      -1.792  12.884  21.212  0.00  0.00    +0.000 NA
ATOM      3  O   UNL     1      -1.039  12.706  22.355  0.00  0.00    +0.000 OA
ATOM      4  N   UNL     1      -0.266  11.569  22.267  0.00  0.00    +0.000 NA
ATOM      5  C   UNL     1      -0.540  11.018  21.085  0.00  0.00    +0.000 A 
ATOM      6  N   UNL     1       0.023   9.832  20.639  0.00  0.00    +0.000 N 
ATOM      7  C   UNL     1       1.043   9.157  21.294  0.00  0.00    +0.000 C 
ATOM      8  O   UNL     1       1.542   9.482  22.368  0.00  0.00    +0.000 OA
ATOM      9  H   UNL     1      -0.300   9.445  19.762  0.00  0.00    +0.000 HD
ENDROOT
BRANCH   7  10
ATOM     10  C   UNL     1       1.529   8.010  20.548  0.00  0.00    +0.000 A 
ATOM     11  O   UNL     1       1.432   6.777  21.133  0.00  0.00    +0.000 OA
ATOM     12  C   UNL     1       1.871   5.872  20.226  0.00  0.00    +0.000 A 
ATOM     13  C   UNL     1       1.818   4.498  20.409  0.00  0.00    +0.000 A 
ATOM     14  C   UNL     1       2.240   3.686  19.346  0.00  0.00    +0.000 A 
ATOM     15  C   UNL     1       2.015   2.202  19.478  0.00  0.00    +0.000 C 
ATOM     16  C   UNL     1       2.817   4.265  18.194  0.00  0.00    +0.000 A 
ATOM     17  C   UNL     1       3.433   3.415  17.110  0.00  0.00    +0.000 C 
ATOM     18  C   UNL     1       2.870   5.676  18.061  0.00  0.00    +0.000 A 
ATOM     19  C   UNL     1       2.331   6.495  19.077  0.00  0.00    +0.000 A 
ATOM     20  C   UNL     1       2.055   7.891  19.267  0.00  0.00    +0.000 A 
ATOM     21  C   UNL     1       2.196   9.000  18.284  0.00  0.00    +0.000 C 
ENDBRANCH   7  10
BRANCH   1  25
ATOM     22  C   UNL     1      -3.527  11.190  16.714  0.00  0.00    +0.000 A 
ATOM     23  C   UNL     1      -2.123  11.175  16.764  0.00  0.00    +0.000 A 
ATOM     24  C   UNL     1      -1.438  11.421  17.958  0.00  0.00    +0.000 A 
ATOM     25  C   UNL     1      -2.152  11.712  19.120  0.00  0.00    +0.000 A 
ATOM     26  C   UNL     1      -3.543  11.881  19.025  0.00  0.00    +0.000 A 
ATOM     27  C   UNL     1      -4.241  11.641  17.831  0.00  0.00    +0.000 A 
BRANCH  22  28
ATOM     28  O   UNL     1      -4.216  10.743  15.614  0.00  0.00    +0.000 OA
BRANCH  28  30
ATOM     29  C   UNL     1      -4.297   9.849  13.379  0.00  0.00    +0.000 C 
ATOM     30  C   UNL     1      -3.405  10.286  14.525  0.00  0.00    +0.000 C 
ENDBRANCH  28  30
ENDBRANCH  22  28
BRANCH  27  31
ATOM     31  O   UNL     1      -5.591  11.837  17.960  0.00  0.00    +0.000 OA
BRANCH  31  32
ATOM     32  C   UNL     1      -6.370  10.796  18.546  0.00  0.00    +0.000 C 
ATOM     33  C   UNL     1      -7.179  11.386  19.691  0.00  0.00    +0.000 C 
ENDBRANCH  31  32
ENDBRANCH  27  31
ENDBRANCH   1  25
TORSDOF 6
ENDMDL
MODEL 2
REMARK VINA RESULT:      -8.2      4.640      9.669
REMARK  Name = 
REMARK  11 active torsions:
REMARK  status: ('A' for Active; 'I' for Inactive)
REMARK    1  A    between atoms: C_1  and  C_2
REMARK    2  A    between atoms: C_2  and  O_3
REMARK    3  A    between atoms: O_3  and  C_4
REMARK    4  A    between atoms: C_7  and  C_8
REMARK    5  A    between atoms: C_14  and  C_16
REMARK    6  A    between atoms: C_20  and  C_21
REMARK    7  A    between atoms: C_22  and  C_23
REMARK    8  A    between atoms: C_26  and  C_27
REMARK    9  A    between atoms: C_29  and  O_30
REMARK   10  A    between atoms: O_30  and  C_31
REMARK   11  A    between atoms: C_31  and  C_32
REMARK                            x       y       z     vdW  Elec       q    Type
REMARK                         _______ _______ _______ _____ _____    ______ ____
ROOT
ATOM      1  C   UNL     1       4.259   3.506  18.937  0.00  0.00    +0.000 A 
ATOM      2  N   UNL     1       4.280   2.239  19.368  0.00  0.00    +0.000 NA
ATOM      3  O   UNL     1       3.360   2.177  20.396  0.00  0.00    +0.000 OA
ATOM      4  N   UNL     1       2.759   3.399  20.598  0.00  0.00    +0.000 NA
ATOM      5  C   UNL     1       3.305   4.237  19.718  0.00  0.00    +0.000 A 
ATOM      6  N   UNL     1       2.979   5.582  19.630  0.00  0.00    +0.000 N 
ATOM      7  C   UNL     1       1.947   6.184  20.336  0.00  0.00    +0.000 C 
ATOM      8  O   UNL     1       1.228   5.629  21.163  0.00  0.00    +0.000 OA
ATOM      9  H   UNL     1       3.499   6.164  18.985  0.00  0.00    +0.000 HD
ENDROOT
BRANCH   7  10
ATOM     10  C   UNL     1       1.745   7.572  19.965  0.00  0.00    +0.000 A 
ATOM     11  O   UNL     1       1.124   8.393  20.867  0.00  0.00    +0.000 OA
ATOM     12  C   UNL     1       1.121   9.638  20.334  0.00  0.00    +0.000 A 
ATOM     13  C   UNL     1       0.679  10.770  21.003  0.00  0.00    +0.000 A 
ATOM     14  C   UNL     1       0.811  12.004  20.347  0.00  0.00    +0.000 A 
ATOM     15  C   UNL     1       0.498  13.245  21.140  0.00  0.00    +0.000 C 
ATOM     16  C   UNL     1       1.257  12.053  19.007  0.00  0.00    +0.000 A 
ATOM     17  C   UNL     1       1.249  13.341  18.222  0.00  0.00    +0.000 C 
ATOM     18  C   UNL     1       1.678  10.865  18.356  0.00  0.00    +0.000 A 
ATOM     19  C   UNL     1       1.663   9.640  19.058  0.00  0.00    +0.000 A 
ATOM     20  C   UNL     1       2.122   8.297  18.840  0.00  0.00    +0.000 A 
ATOM     21  C   UNL     1       2.924   7.772  17.702  0.00  0.00    +0.000 C 
ENDBRANCH   7  10
BRANCH   1  25
ATOM     22  C   UNL     1       6.716   4.996  15.774  0.00  0.00    +0.000 A 
ATOM     23  C   UNL     1       5.858   3.906  15.551  0.00  0.00    +0.000 A 
ATOM     24  C   UNL     1       5.070   3.382  16.580  0.00  0.00    +0.000 A 
ATOM     25  C   UNL     1       5.148   3.928  17.861  0.00  0.00    +0.000 A 
ATOM     26  C   UNL     1       6.122   4.909  18.110  0.00  0.00    +0.000 A 
ATOM     27  C   UNL     1       6.922   5.440  17.087  0.00  0.00    +0.000 A 
BRANCH  22  28
ATOM     28  O   UNL     1       7.329   5.657  14.740  0.00  0.00    +0.000 OA
BRANCH  28  30
ATOM     29  C   UNL     1       8.250   5.710  12.515  0.00  0.00    +0.000 C 
ATOM     30  C   UNL     1       7.410   4.931  13.508  0.00  0.00    +0.000 C 
ENDBRANCH  28  30
ENDBRANCH  22  28
BRANCH  27  31
ATOM     31  O   UNL     1       7.786   6.403  17.537  0.00  0.00    +0.000 OA
BRANCH  31  32
ATOM     32  C   UNL     1       7.367   7.765  17.480  0.00  0.00    +0.000 C 
ATOM     33  C   UNL     1       8.389   8.614  18.222  0.00  0.00    +0.000 C 
ENDBRANCH  31  32
ENDBRANCH  27  31
ENDBRANCH   1  25
TORSDOF 6
ENDMDL
MODEL 3
REMARK VINA RESULT:      -8.0      1.496      2.272
REMARK  Name = 
REMARK  11 active torsions:
REMARK  status: ('A' for Active; 'I' for Inactive)
REMARK    1  A    between atoms: C_1  and  C_2
REMARK    2  A    between atoms: C_2  and  O_3
REMARK    3  A    between atoms: O_3  and  C_4
REMARK    4  A    between atoms: C_7  and  C_8
REMARK    5  A    between atoms: C_14  and  C_16
REMARK    6  A    between atoms: C_20  and  C_21
REMARK    7  A    between atoms: C_22  and  C_23
REMARK    8  A    between atoms: C_26  and  C_27
REMARK    9  A    between atoms: C_29  and  O_30
REMARK   10  A    between atoms: O_30  and  C_31
REMARK   11  A    between atoms: C_31  and  C_32
REMARK                            x       y       z     vdW  Elec       q    Type
REMARK                         _______ _______ _______ _____ _____    ______ ____
ROOT
ATOM      1  C   UNL     1      -1.604  11.081  19.664  0.00  0.00    +0.000 A 
ATOM      2  N   UNL     1      -2.082  12.005  20.506  0.00  0.00    +0.000 NA
ATOM      3  O   UNL     1      -1.356  11.860  21.672  0.00  0.00    +0.000 OA
ATOM      4  N   UNL     1      -0.420  10.857  21.552  0.00  0.00    +0.000 NA
ATOM      5  C   UNL     1      -0.562  10.354  20.327  0.00  0.00    +0.000 A 
ATOM      6  N   UNL     1       0.188   9.296  19.837  0.00  0.00    +0.000 N 
ATOM      7  C   UNL     1       1.271   8.734  20.498  0.00  0.00    +0.000 C 
ATOM      8  O   UNL     1       1.673   9.054  21.613  0.00  0.00    +0.000 OA
ATOM      9  H   UNL     1      -0.039   8.926  18.922  0.00  0.00    +0.000 HD
ENDROOT
BRANCH   7  10
ATOM     10  C   UNL     1       1.951   7.724  19.708  0.00  0.00    +0.000 A 
ATOM     11  O   UNL     1       2.644   8.134  18.602  0.00  0.00    +0.000 OA
ATOM     12  C   UNL     1       3.247   7.038  18.082  0.00  0.00    +0.000 A 
ATOM     13  C   UNL     1       4.137   7.070  17.017  0.00  0.00    +0.000 A 
ATOM     14  C   UNL     1       4.741   5.861  16.642  0.00  0.00    +0.000 A 
ATOM     15  C   UNL     1       5.834   5.927  15.608  0.00  0.00    +0.000 C 
ATOM     16  C   UNL     1       4.346   4.649  17.250  0.00  0.00    +0.000 A 
ATOM     17  C   UNL     1       4.851   3.316  16.753  0.00  0.00    +0.000 C 
ATOM     18  C   UNL     1       3.416   4.663  18.322  0.00  0.00    +0.000 A 
ATOM     19  C   UNL     1       2.901   5.894  18.784  0.00  0.00    +0.000 A 
ATOM     20  C   UNL     1       2.097   6.352  19.881  0.00  0.00    +0.000 A 
ATOM     21  C   UNL     1       1.587   5.568  21.039  0.00  0.00    +0.000 C 
ENDBRANCH   7  10
BRANCH   1  25
ATOM     22  C   UNL     1      -3.497  10.487  15.878  0.00  0.00    +0.000 A 
ATOM     23  C   UNL     1      -2.212   9.972  16.117  0.00  0.00    +0.000 A 
ATOM     24  C   UNL     1      -1.561  10.182  17.335  0.00  0.00    +0.000 A 
ATOM     25  C   UNL     1      -2.180  10.937  18.331  0.00  0.00    +0.000 A 
ATOM     26  C   UNL     1      -3.392  11.580  18.026  0.00  0.00    +0.000 A 
ATOM     27  C   UNL     1      -4.052  11.379  16.805  0.00  0.00    +0.000 A 
BRANCH  22  28
ATOM     28  O   UNL     1      -4.234  10.114  14.783  0.00  0.00    +0.000 OA
BRANCH  28  30
ATOM     29  C   UNL     1      -4.472   9.836  12.402  0.00  0.00    +0.000 C 
ATOM     30  C   UNL     1      -3.502  10.011  13.556  0.00  0.00    +0.000 C 
ENDBRANCH  28  30
ENDBRANCH  22  28
BRANCH  27  31
ATOM     31  O   UNL     1      -5.229  12.076  16.720  0.00  0.00    +0.000 OA
BRANCH  31  32
ATOM     32  C   UNL     1      -6.084  12.095  17.861  0.00  0.00    +0.000 C 
ATOM     33  C   UNL     1      -7.192  13.109  17.616  0.00  0.00    +0.000 C 
ENDBRANCH  31  32
ENDBRANCH  27  31
ENDBRANCH   1  25
TORSDOF 6
ENDMDL
MODEL 4
REMARK VINA RESULT:      -7.8      4.436      9.212
REMARK  Name = 
REMARK  11 active torsions:
REMARK  status: ('A' for Active; 'I' for Inactive)
REMARK    1  A    between atoms: C_1  and  C_2
REMARK    2  A    between atoms: C_2  and  O_3
REMARK    3  A    between atoms: O_3  and  C_4
REMARK    4  A    between atoms: C_7  and  C_8
REMARK    5  A    between atoms: C_14  and  C_16
REMARK    6  A    between atoms: C_20  and  C_21
REMARK    7  A    between atoms: C_22  and  C_23
REMARK    8  A    between atoms: C_26  and  C_27
REMARK    9  A    between atoms: C_29  and  O_30
REMARK   10  A    between atoms: O_30  and  C_31
REMARK   11  A    between atoms: C_31  and  C_32
REMARK                            x       y       z     vdW  Elec       q    Type
REMARK                         _______ _______ _______ _____ _____    ______ ____
ROOT
ATOM      1  C   UNL     1       3.136   4.518  19.334  0.00  0.00    +0.000 A 
ATOM      2  N   UNL     1       2.989   3.294  19.855  0.00  0.00    +0.000 NA
ATOM      3  O   UNL     1       2.132   3.444  20.927  0.00  0.00    +0.000 OA
ATOM      4  N   UNL     1       1.737   4.755  21.067  0.00  0.00    +0.000 NA
ATOM      5  C   UNL     1       2.353   5.438  20.103  0.00  0.00    +0.000 A 
ATOM      6  N   UNL     1       2.231   6.809  19.932  0.00  0.00    +0.000 N 
ATOM      7  C   UNL     1       1.345   7.609  20.640  0.00  0.00    +0.000 C 
ATOM      8  O   UNL     1       0.599   7.229  21.539  0.00  0.00    +0.000 OA
ATOM      9  H   UNL     1       2.795   7.259  19.222  0.00  0.00    +0.000 HD
ENDROOT
BRANCH   7  10
ATOM     10  C   UNL     1       1.337   8.985  20.179  0.00  0.00    +0.000 A 
ATOM     11  O   UNL     1       1.005   9.961  21.079  0.00  0.00    +0.000 OA
ATOM     12  C   UNL     1       1.142  11.150  20.443  0.00  0.00    +0.000 A 
ATOM     13  C   UNL     1       1.005  12.384  21.063  0.00  0.00    +0.000 A 
ATOM     14  C   UNL     1       1.253  13.528  20.289  0.00  0.00    +0.000 A 
ATOM     15  C   UNL     1       1.279  14.853  21.004  0.00  0.00    +0.000 C 
ATOM     16  C   UNL     1       1.501  13.410  18.903  0.00  0.00    +0.000 A 
ATOM     17  C   UNL     1       1.603  14.625  18.015  0.00  0.00    +0.000 C 
ATOM     18  C   UNL     1       1.610  12.126  18.309  0.00  0.00    +0.000 A 
ATOM     19  C   UNL     1       1.484  10.971  19.112  0.00  0.00    +0.000 A 
ATOM     20  C   UNL     1       1.666   9.556  18.954  0.00  0.00    +0.000 A 
ATOM     21  C   UNL     1       2.191   8.821  17.771  0.00  0.00    +0.000 C 
ENDBRANCH   7  10
BRANCH   1  25
ATOM     22  C   UNL     1       5.527   5.333  15.887  0.00  0.00    +0.000 A 
ATOM     23  C   UNL     1       4.867   4.099  16.016  0.00  0.00    +0.000 A 
ATOM     24  C   UNL     1       4.107   3.799  17.149  0.00  0.00    +0.000 A 
ATOM     25  C   UNL     1       4.016   4.725  18.188  0.00  0.00    +0.000 A 
ATOM     26  C   UNL     1       4.805   5.885  18.121  0.00  0.00    +0.000 A 
ATOM     27  C   UNL     1       5.575   6.195  16.989  0.00  0.00    +0.000 A 
BRANCH  22  28
ATOM     28  O   UNL     1       6.094   5.729  14.701  0.00  0.00    +0.000 OA
BRANCH  28  30
ATOM     29  C   UNL     1       6.531   4.061  13.020  0.00  0.00    +0.000 C 
ATOM     30  C   UNL     1       7.101   4.855  14.180  0.00  0.00    +0.000 C 
ENDBRANCH  28  30
ENDBRANCH  22  28
BRANCH  27  31
ATOM     31  O   UNL     1       6.246   7.383  17.117  0.00  0.00    +0.000 OA
BRANCH  31  32
ATOM     32  C   UNL     1       7.575   7.354  17.635  0.00  0.00    +0.000 C 
ATOM     33  C   UNL     1       8.054   8.788  17.810  0.00  0.00    +0.000 C 
ENDBRANCH  31  32
ENDBRANCH  27  31
ENDBRANCH   1  25
TORSDOF 6
ENDMDL
MODEL 5
REMARK VINA RESULT:      -7.8      4.601      9.600
REMARK  Name = 
REMARK  11 active torsions:
REMARK  status: ('A' for Active; 'I' for Inactive)
REMARK    1  A    between atoms: C_1  and  C_2
REMARK    2  A    between atoms: C_2  and  O_3
REMARK    3  A    between atoms: O_3  and  C_4
REMARK    4  A    between atoms: C_7  and  C_8
REMARK    5  A    between atoms: C_14  and  C_16
REMARK    6  A    between atoms: C_20  and  C_21
REMARK    7  A    between atoms: C_22  and  C_23
REMARK    8  A    between atoms: C_26  and  C_27
REMARK    9  A    between atoms: C_29  and  O_30
REMARK   10  A    between atoms: O_30  and  C_31
REMARK   11  A    between atoms: C_31  and  C_32
REMARK                            x       y       z     vdW  Elec       q    Type
REMARK                         _______ _______ _______ _____ _____    ______ ____
ROOT
ATOM      1  C   UNL     1       3.416   3.779  19.446  0.00  0.00    +0.000 A 
ATOM      2  N   UNL     1       3.212   2.569  19.982  0.00  0.00    +0.000 NA
ATOM      3  O   UNL     1       2.253   2.749  20.958  0.00  0.00    +0.000 OA
ATOM      4  N   UNL     1       1.851   4.065  21.023  0.00  0.00    +0.000 NA
ATOM      5  C   UNL     1       2.563   4.721  20.108  0.00  0.00    +0.000 A 
ATOM      6  N   UNL     1       2.465   6.086  19.889  0.00  0.00    +0.000 N 
ATOM      7  C   UNL     1       1.516   6.907  20.482  0.00  0.00    +0.000 C 
ATOM      8  O   UNL     1       0.682   6.552  21.311  0.00  0.00    +0.000 OA
ATOM      9  H   UNL     1       3.100   6.516  19.227  0.00  0.00    +0.000 HD
ENDROOT
BRANCH   7  10
ATOM     10  C   UNL     1       1.559   8.270  19.986  0.00  0.00    +0.000 A 
ATOM     11  O   UNL     1       1.080   9.263  20.796  0.00  0.00    +0.000 OA
ATOM     12  C   UNL     1       1.297  10.437  20.154  0.00  0.00    +0.000 A 
ATOM     13  C   UNL     1       1.050  11.684  20.710  0.00  0.00    +0.000 A 
ATOM     14  C   UNL     1       1.398  12.811  19.951  0.00  0.00    +0.000 A 
ATOM     15  C   UNL     1       1.296  14.155  20.624  0.00  0.00    +0.000 C 
ATOM     16  C   UNL     1       1.857  12.661  18.624  0.00  0.00    +0.000 A 
ATOM     17  C   UNL     1       2.077  13.855  17.727  0.00  0.00    +0.000 C 
ATOM     18  C   UNL     1       2.073  11.365  18.091  0.00  0.00    +0.000 A 
ATOM     19  C   UNL     1       1.841  10.229  18.897  0.00  0.00    +0.000 A 
ATOM     20  C   UNL     1       2.065   8.814  18.810  0.00  0.00    +0.000 A 
ATOM     21  C   UNL     1       2.775   8.058  17.743  0.00  0.00    +0.000 C 
ENDBRANCH   7  10
BRANCH   1  25
ATOM     22  C   UNL     1       6.310   4.580  16.404  0.00  0.00    +0.000 A 
ATOM     23  C   UNL     1       5.038   4.091  16.062  0.00  0.00    +0.000 A 
ATOM     24  C   UNL     1       4.088   3.791  17.042  0.00  0.00    +0.000 A 
ATOM     25  C   UNL     1       4.408   3.954  18.390  0.00  0.00    +0.000 A 
ATOM     26  C   UNL     1       5.729   4.290  18.727  0.00  0.00    +0.000 A 
ATOM     27  C   UNL     1       6.692   4.589  17.752  0.00  0.00    +0.000 A 
BRANCH  22  28
ATOM     28  O   UNL     1       7.171   5.080  15.460  0.00  0.00    +0.000 OA
BRANCH  28  30
ATOM     29  C   UNL     1       7.929   5.272  13.182  0.00  0.00    +0.000 C 
ATOM     30  C   UNL     1       6.807   4.822  14.099  0.00  0.00    +0.000 C 
ENDBRANCH  28  30
ENDBRANCH  22  28
BRANCH  27  31
ATOM     31  O   UNL     1       7.907   4.918  18.292  0.00  0.00    +0.000 OA
BRANCH  31  32
ATOM     32  C   UNL     1       7.993   6.096  19.092  0.00  0.00    +0.000 C 
ATOM     33  C   UNL     1       7.973   7.306  18.169  0.00  0.00    +0.000 C 
ENDBRANCH  31  32
ENDBRANCH  27  31
ENDBRANCH   1  25
TORSDOF 6
ENDMDL
MODEL 6
REMARK VINA RESULT:      -7.3      6.274      8.176
REMARK  Name = 
REMARK  11 active torsions:
REMARK  status: ('A' for Active; 'I' for Inactive)
REMARK    1  A    between atoms: C_1  and  C_2
REMARK    2  A    between atoms: C_2  and  O_3
REMARK    3  A    between atoms: O_3  and  C_4
REMARK    4  A    between atoms: C_7  and  C_8
REMARK    5  A    between atoms: C_14  and  C_16
REMARK    6  A    between atoms: C_20  and  C_21
REMARK    7  A    between atoms: C_22  and  C_23
REMARK    8  A    between atoms: C_26  and  C_27
REMARK    9  A    between atoms: C_29  and  O_30
REMARK   10  A    between atoms: O_30  and  C_31
REMARK   11  A    between atoms: C_31  and  C_32
REMARK                            x       y       z     vdW  Elec       q    Type
REMARK                         _______ _______ _______ _____ _____    ______ ____
ROOT
ATOM      1  C   UNL     1       2.135  14.153  21.426  0.00  0.00    +0.000 A 
ATOM      2  N   UNL     1       1.190  14.685  22.211  0.00  0.00    +0.000 NA
ATOM      3  O   UNL     1       1.842  15.598  23.016  0.00  0.00    +0.000 OA
ATOM      4  N   UNL     1       3.188  15.644  22.726  0.00  0.00    +0.000 NA
ATOM      5  C   UNL     1       3.394  14.753  21.757  0.00  0.00    +0.000 A 
ATOM      6  N   UNL     1       4.639  14.483  21.211  0.00  0.00    +0.000 N 
ATOM      7  C   UNL     1       5.790  15.205  21.495  0.00  0.00    +0.000 C 
ATOM      8  O   UNL     1       5.873  16.131  22.297  0.00  0.00    +0.000 OA
ATOM      9  H   UNL     1       4.717  13.735  20.533  0.00  0.00    +0.000 HD
ENDROOT
BRANCH   7  10
ATOM     10  C   UNL     1       6.928  14.789  20.695  0.00  0.00    +0.000 A 
ATOM     11  O   UNL     1       8.014  14.272  21.346  0.00  0.00    +0.000 OA
ATOM     12  C   UNL     1       8.902  13.890  20.396  0.00  0.00    +0.000 A 
ATOM     13  C   UNL     1      10.083  13.213  20.662  0.00  0.00    +0.000 A 
ATOM     14  C   UNL     1      10.863  12.816  19.565  0.00  0.00    +0.000 A 
ATOM     15  C   UNL     1      12.048  11.929  19.845  0.00  0.00    +0.000 C 
ATOM     16  C   UNL     1      10.507  13.215  18.258  0.00  0.00    +0.000 A 
ATOM     17  C   UNL     1      11.412  12.949  17.080  0.00  0.00    +0.000 C 
ATOM     18  C   UNL     1       9.300  13.926  18.037  0.00  0.00    +0.000 A 
ATOM     19  C   UNL     1       8.451  14.219  19.127  0.00  0.00    +0.000 A 
ATOM     20  C   UNL     1       7.134  14.756  19.320  0.00  0.00    +0.000 A 
ATOM     21  C   UNL     1       6.129  15.123  18.286  0.00  0.00    +0.000 C 
ENDBRANCH   7  10
BRANCH   1  25
ATOM     22  C   UNL     1       1.265  10.920  18.771  0.00  0.00    +0.000 A 
ATOM     23  C   UNL     1       2.093  11.976  18.354  0.00  0.00    +0.000 A 
ATOM     24  C   UNL     1       2.364  13.059  19.195  0.00  0.00    +0.000 A 
ATOM     25  C   UNL     1       1.787  13.114  20.463  0.00  0.00    +0.000 A 
ATOM     26  C   UNL     1       0.837  12.138  20.808  0.00  0.00    +0.000 A 
ATOM     27  C   UNL     1       0.554  11.049  19.971  0.00  0.00    +0.000 A 
BRANCH  22  28
ATOM     28  O   UNL     1       1.160   9.756  18.052  0.00  0.00    +0.000 OA
BRANCH  28  30
ATOM     29  C   UNL     1       2.288   7.630  18.158  0.00  0.00    +0.000 C 
ATOM     30  C   UNL     1       2.399   9.093  17.772  0.00  0.00    +0.000 C 
ENDBRANCH  28  30
ENDBRANCH  22  28
BRANCH  27  31
ATOM     31  O   UNL     1      -0.379  10.200  20.506  0.00  0.00    +0.000 OA
BRANCH  31  32
ATOM     32  C   UNL     1      -0.074   9.554  21.740  0.00  0.00    +0.000 C 
ATOM     33  C   UNL     1       0.853   8.381  21.452  0.00  0.00    +0.000 C 
ENDBRANCH  31  32
ENDBRANCH  27  31
ENDBRANCH   1  25
TORSDOF 6
ENDMDL
MODEL 7
REMARK VINA RESULT:      -7.3      4.950      7.472
REMARK  Name = 
REMARK  11 active torsions:
REMARK  status: ('A' for Active; 'I' for Inactive)
REMARK    1  A    between atoms: C_1  and  C_2
REMARK    2  A    between atoms: C_2  and  O_3
REMARK    3  A    between atoms: O_3  and  C_4
REMARK    4  A    between atoms: C_7  and  C_8
REMARK    5  A    between atoms: C_14  and  C_16
REMARK    6  A    between atoms: C_20  and  C_21
REMARK    7  A    between atoms: C_22  and  C_23
REMARK    8  A    between atoms: C_26  and  C_27
REMARK    9  A    between atoms: C_29  and  O_30
REMARK   10  A    between atoms: O_30  and  C_31
REMARK   11  A    between atoms: C_31  and  C_32
REMARK                            x       y       z     vdW  Elec       q    Type
REMARK                         _______ _______ _______ _____ _____    ______ ____
ROOT
ATOM      1  C   UNL     1       1.704  14.182  18.819  0.00  0.00    +0.000 A 
ATOM      2  N   UNL     1       0.842  15.206  18.801  0.00  0.00    +0.000 NA
ATOM      3  O   UNL     1      -0.404  14.643  18.611  0.00  0.00    +0.000 OA
ATOM      4  N   UNL     1      -0.321  13.271  18.523  0.00  0.00    +0.000 NA
ATOM      5  C   UNL     1       0.970  12.964  18.637  0.00  0.00    +0.000 A 
ATOM      6  N   UNL     1       1.464  11.671  18.567  0.00  0.00    +0.000 N 
ATOM      7  C   UNL     1       0.670  10.533  18.522  0.00  0.00    +0.000 C 
ATOM      8  O   UNL     1      -0.557  10.518  18.484  0.00  0.00    +0.000 OA
ATOM      9  H   UNL     1       2.467  11.535  18.585  0.00  0.00    +0.000 HD
ENDROOT
BRANCH   7  10
ATOM     10  C   UNL     1       1.442   9.305  18.576  0.00  0.00    +0.000 A 
ATOM     11  O   UNL     1       2.227   8.993  17.499  0.00  0.00    +0.000 OA
ATOM     12  C   UNL     1       2.900   7.860  17.814  0.00  0.00    +0.000 A 
ATOM     13  C   UNL     1       3.884   7.292  17.017  0.00  0.00    +0.000 A 
ATOM     14  C   UNL     1       4.546   6.160  17.513  0.00  0.00    +0.000 A 
ATOM     15  C   UNL     1       5.729   5.653  16.732  0.00  0.00    +0.000 C 
ATOM     16  C   UNL     1       4.121   5.559  18.719  0.00  0.00    +0.000 A 
ATOM     17  C   UNL     1       4.699   4.247  19.192  0.00  0.00    +0.000 C 
ATOM     18  C   UNL     1       3.095   6.163  19.489  0.00  0.00    +0.000 A 
ATOM     19  C   UNL     1       2.513   7.374  19.052  0.00  0.00    +0.000 A 
ATOM     20  C   UNL     1       1.600   8.350  19.575  0.00  0.00    +0.000 A 
ATOM     21  C   UNL     1       1.001   8.416  20.935  0.00  0.00    +0.000 C 
ENDBRANCH   7  10
BRANCH   1  25
ATOM     22  C   UNL     1       5.824  15.187  19.344  0.00  0.00    +0.000 A 
ATOM     23  C   UNL     1       5.326  14.884  18.065  0.00  0.00    +0.000 A 
ATOM     24  C   UNL     1       3.990  14.521  17.876  0.00  0.00    +0.000 A 
ATOM     25  C   UNL     1       3.134  14.431  18.972  0.00  0.00    +0.000 A 
ATOM     26  C   UNL     1       3.677  14.579  20.259  0.00  0.00    +0.000 A 
ATOM     27  C   UNL     1       5.018  14.940  20.462  0.00  0.00    +0.000 A 
BRANCH  22  28
ATOM     28  O   UNL     1       7.064  15.749  19.522  0.00  0.00    +0.000 OA
BRANCH  28  30
ATOM     29  C   UNL     1       9.295  15.020  18.982  0.00  0.00    +0.000 C 
ATOM     30  C   UNL     1       7.985  15.562  18.442  0.00  0.00    +0.000 C 
ENDBRANCH  28  30
ENDBRANCH  22  28
BRANCH  27  31
ATOM     31  O   UNL     1       5.338  15.059  21.789  0.00  0.00    +0.000 OA
BRANCH  31  32
ATOM     32  C   UNL     1       5.612  13.868  22.526  0.00  0.00    +0.000 C 
ATOM     33  C   UNL     1       7.109  13.603  22.472  0.00  0.00    +0.000 C 
ENDBRANCH  31  32
ENDBRANCH  27  31
ENDBRANCH   1  25
TORSDOF 6
ENDMDL
MODEL 8
REMARK VINA RESULT:      -7.3      2.926      4.327
REMARK  Name = 
REMARK  11 active torsions:
REMARK  status: ('A' for Active; 'I' for Inactive)
REMARK    1  A    between atoms: C_1  and  C_2
REMARK    2  A    between atoms: C_2  and  O_3
REMARK    3  A    between atoms: O_3  and  C_4
REMARK    4  A    between atoms: C_7  and  C_8
REMARK    5  A    between atoms: C_14  and  C_16
REMARK    6  A    between atoms: C_20  and  C_21
REMARK    7  A    between atoms: C_22  and  C_23
REMARK    8  A    between atoms: C_26  and  C_27
REMARK    9  A    between atoms: C_29  and  O_30
REMARK   10  A    between atoms: O_30  and  C_31
REMARK   11  A    between atoms: C_31  and  C_32
REMARK                            x       y       z     vdW  Elec       q    Type
REMARK                         _______ _______ _______ _____ _____    ______ ____
ROOT
ATOM      1  C   UNL     1      -0.332  12.901  19.636  0.00  0.00    +0.000 A 
ATOM      2  N   UNL     1      -0.236  14.135  19.127  0.00  0.00    +0.000 NA
ATOM      3  O   UNL     1       0.823  14.093  18.242  0.00  0.00    +0.000 OA
ATOM      4  N   UNL     1       1.378  12.834  18.190  0.00  0.00    +0.000 NA
ATOM      5  C   UNL     1       0.689  12.085  19.050  0.00  0.00    +0.000 A 
ATOM      6  N   UNL     1       0.970  10.751  19.306  0.00  0.00    +0.000 N 
ATOM      7  C   UNL     1       1.893   9.997  18.596  0.00  0.00    +0.000 C 
ATOM      8  O   UNL     1       2.617  10.414  17.696  0.00  0.00    +0.000 OA
ATOM      9  H   UNL     1       0.446  10.278  20.032  0.00  0.00    +0.000 HD
ENDROOT
BRANCH   7  10
ATOM     10  C   UNL     1       1.901   8.600  18.989  0.00  0.00    +0.000 A 
ATOM     11  O   UNL     1       2.285   7.674  18.058  0.00  0.00    +0.000 OA
ATOM     12  C   UNL     1       2.286   6.467  18.675  0.00  0.00    +0.000 A 
ATOM     13  C   UNL     1       2.732   5.293  18.086  0.00  0.00    +0.000 A 
ATOM     14  C   UNL     1       2.744   4.135  18.878  0.00  0.00    +0.000 A 
ATOM     15  C   UNL     1       3.392   2.906  18.297  0.00  0.00    +0.000 C 
ATOM     16  C   UNL     1       2.195   4.158  20.180  0.00  0.00    +0.000 A 
ATOM     17  C   UNL     1       2.039   2.896  20.992  0.00  0.00    +0.000 C 
ATOM     18  C   UNL     1       1.731   5.380  20.732  0.00  0.00    +0.000 A 
ATOM     19  C   UNL     1       1.833   6.571  19.981  0.00  0.00    +0.000 A 
ATOM     20  C   UNL     1       1.635   7.975  20.203  0.00  0.00    +0.000 A 
ATOM     21  C   UNL     1       1.307   8.668  21.478  0.00  0.00    +0.000 C 
ENDBRANCH   7  10
BRANCH   1  25
ATOM     22  C   UNL     1      -3.328  12.313  22.627  0.00  0.00    +0.000 A 
ATOM     23  C   UNL     1      -2.003  11.910  22.862  0.00  0.00    +0.000 A 
ATOM     24  C   UNL     1      -1.015  12.063  21.886  0.00  0.00    +0.000 A 
ATOM     25  C   UNL     1      -1.345  12.602  20.643  0.00  0.00    +0.000 A 
ATOM     26  C   UNL     1      -2.698  12.853  20.362  0.00  0.00    +0.000 A 
ATOM     27  C   UNL     1      -3.700  12.699  21.333  0.00  0.00    +0.000 A 
BRANCH  22  28
ATOM     28  O   UNL     1      -4.257  12.371  23.636  0.00  0.00    +0.000 OA
BRANCH  28  30
ATOM     29  C   UNL     1      -6.074  13.925  23.928  0.00  0.00    +0.000 C 
ATOM     30  C   UNL     1      -4.585  13.688  24.094  0.00  0.00    +0.000 C 
ENDBRANCH  28  30
ENDBRANCH  22  28
BRANCH  27  31
ATOM     31  O   UNL     1      -4.945  13.022  20.862  0.00  0.00    +0.000 OA
BRANCH  31  32
ATOM     32  C   UNL     1      -5.696  12.010  20.194  0.00  0.00    +0.000 C 
ATOM     33  C   UNL     1      -7.069  11.920  20.845  0.00  0.00    +0.000 C 
ENDBRANCH  31  32
ENDBRANCH  27  31
ENDBRANCH   1  25
TORSDOF 6
ENDMDL
MODEL 9
REMARK VINA RESULT:      -7.3      3.985      6.101
REMARK  Name = 
REMARK  11 active torsions:
REMARK  status: ('A' for Active; 'I' for Inactive)
REMARK    1  A    between atoms: C_1  and  C_2
REMARK    2  A    between atoms: C_2  and  O_3
REMARK    3  A    between atoms: O_3  and  C_4
REMARK    4  A    between atoms: C_7  and  C_8
REMARK    5  A    between atoms: C_14  and  C_16
REMARK    6  A    between atoms: C_20  and  C_21
REMARK    7  A    between atoms: C_22  and  C_23
REMARK    8  A    between atoms: C_26  and  C_27
REMARK    9  A    between atoms: C_29  and  O_30
REMARK   10  A    between atoms: O_30  and  C_31
REMARK   11  A    between atoms: C_31  and  C_32
REMARK                            x       y       z     vdW  Elec       q    Type
REMARK                         _______ _______ _______ _____ _____    ______ ____
ROOT
ATOM      1  C   UNL     1       0.958  12.423  21.145  0.00  0.00    +0.000 A 
ATOM      2  N   UNL     1       0.137  13.140  21.922  0.00  0.00    +0.000 NA
ATOM      3  O   UNL     1      -0.728  12.229  22.494  0.00  0.00    +0.000 OA
ATOM      4  N   UNL     1      -0.441  10.947  22.084  0.00  0.00    +0.000 NA
ATOM      5  C   UNL     1       0.588  11.043  21.243  0.00  0.00    +0.000 A 
ATOM      6  N   UNL     1       1.152   9.958  20.589  0.00  0.00    +0.000 N 
ATOM      7  C   UNL     1       0.820   8.634  20.842  0.00  0.00    +0.000 C 
ATOM      8  O   UNL     1      -0.044   8.251  21.626  0.00  0.00    +0.000 OA
ATOM      9  H   UNL     1       1.881  10.130  19.907  0.00  0.00    +0.000 HD
ENDROOT
BRANCH   7  10
ATOM     10  C   UNL     1       1.648   7.695  20.107  0.00  0.00    +0.000 A 
ATOM     11  O   UNL     1       1.873   6.466  20.664  0.00  0.00    +0.000 OA
ATOM     12  C   UNL     1       2.597   5.751  19.768  0.00  0.00    +0.000 A 
ATOM     13  C   UNL     1       2.924   4.412  19.925  0.00  0.00    +0.000 A 
ATOM     14  C   UNL     1       3.613   3.787  18.875  0.00  0.00    +0.000 A 
ATOM     15  C   UNL     1       3.810   2.297  18.968  0.00  0.00    +0.000 C 
ATOM     16  C   UNL     1       4.061   4.542  17.768  0.00  0.00    +0.000 A 
ATOM     17  C   UNL     1       4.947   3.937  16.708  0.00  0.00    +0.000 C 
ATOM     18  C   UNL     1       3.719   5.915  17.662  0.00  0.00    +0.000 A 
ATOM     19  C   UNL     1       2.920   6.516  18.659  0.00  0.00    +0.000 A 
ATOM     20  C   UNL     1       2.251   7.771  18.856  0.00  0.00    +0.000 A 
ATOM     21  C   UNL     1       2.124   8.906  17.902  0.00  0.00    +0.000 C 
ENDBRANCH   7  10
BRANCH   1  25
ATOM     22  C   UNL     1       3.831  14.627  18.875  0.00  0.00    +0.000 A 
ATOM     23  C   UNL     1       3.045  13.640  18.256  0.00  0.00    +0.000 A 
ATOM     24  C   UNL     1       2.123  12.885  18.986  0.00  0.00    +0.000 A 
ATOM     25  C   UNL     1       1.991  13.091  20.359  0.00  0.00    +0.000 A 
ATOM     26  C   UNL     1       2.889  13.964  20.994  0.00  0.00    +0.000 A 
ATOM     27  C   UNL     1       3.822  14.723  20.272  0.00  0.00    +0.000 A 
BRANCH  22  28
ATOM     28  O   UNL     1       4.578  15.518  18.146  0.00  0.00    +0.000 OA
BRANCH  28  30
ATOM     29  C   UNL     1       6.605  14.317  17.647  0.00  0.00    +0.000 C 
ATOM     30  C   UNL     1       5.988  15.484  18.394  0.00  0.00    +0.000 C 
ENDBRANCH  28  30
ENDBRANCH  22  28
BRANCH  27  31
ATOM     31  O   UNL     1       4.583  15.530  21.077  0.00  0.00    +0.000 OA
BRANCH  31  32
ATOM     32  C   UNL     1       5.141  14.966  22.262  0.00  0.00    +0.000 C 
ATOM     33  C   UNL     1       6.477  14.328  21.908  0.00  0.00    +0.000 C 
ENDBRANCH  31  32
ENDBRANCH  27  31
ENDBRANCH   1  25
TORSDOF 6
ENDMDL
