MODEL 1
REMARK VINA RESULT:      -9.0      0.000      0.000
REMARK  Name = 
REMARK  5 active torsions:
REMARK  status: ('A' for Active; 'I' for Inactive)
REMARK    1  A    between atoms: C_1  and  C_2
REMARK    2  A    between atoms: C_6  and  N_7
REMARK    3  A    between atoms: C_8  and  C_9
REMARK    4  A    between atoms: N_12  and  C_13
REMARK    5  A    between atoms: C_20  and  C_21
REMARK                            x       y       z     vdW  Elec       q    Type
REMARK                         _______ _______ _______ _____ _____    ______ ____
ROOT
ATOM      1  C   UNL     1       0.045  10.677  21.002  0.00  0.00    +0.000 A 
ATOM      2  S   UNL     1       1.175   9.704  21.886  0.00  0.00    +0.000 S 
ATOM      3  C   UNL     1       1.387   8.679  20.539  0.00  0.00    +0.000 A 
ATOM      4  N   UNL     1       2.244   7.631  20.577  0.00  0.00    +0.000 N 
ATOM      5  N   UNL     1       0.623   8.974  19.516  0.00  0.00    +0.000 NA
ATOM      6  C   UNL     1      -0.185  10.067  19.773  0.00  0.00    +0.000 A 
ATOM      7  H   UNL     1       2.907   7.560  21.338  0.00  0.00    +0.000 HD
ENDROOT
BRANCH   1   9
ATOM      8  N   UNL     1      -0.182  13.130  21.484  0.00  0.00    +0.000 N 
ATOM      9  C   UNL     1      -0.625  11.805  21.641  0.00  0.00    +0.000 A 
ATOM     10  N   UNL     1      -1.636  11.504  22.399  0.00  0.00    +0.000 NA
ATOM     11  C   UNL     1      -2.311  12.504  23.096  0.00  0.00    +0.000 A 
ATOM     12  C   UNL     1      -3.400  12.156  23.899  0.00  0.00    +0.000 A 
ATOM     13  C   UNL     1      -4.069  13.126  24.653  0.00  0.00    +0.000 A 
ATOM     14  C   UNL     1      -3.662  14.458  24.598  0.00  0.00    +0.000 A 
ATOM     15  C   UNL     1      -2.592  14.819  23.784  0.00  0.00    +0.000 A 
ATOM     16  C   UNL     1      -1.923  13.835  23.045  0.00  0.00    +0.000 A 
ATOM     17  C   UNL     1      -0.785  14.183  22.184  0.00  0.00    +0.000 A 
ATOM     18  O   UNL     1      -0.460  15.367  22.114  0.00  0.00    +0.000 OA
BRANCH   8  24
ATOM     19  C   UNL     1       4.567  14.399  21.069  0.00  0.00    +0.000 C 
ATOM     20  C   UNL     1       3.248  14.117  20.415  0.00  0.00    +0.000 A 
ATOM     21  C   UNL     1       3.098  14.141  19.024  0.00  0.00    +0.000 A 
ATOM     22  C   UNL     1       1.862  13.850  18.439  0.00  0.00    +0.000 A 
ATOM     23  C   UNL     1       0.765  13.517  19.239  0.00  0.00    +0.000 A 
ATOM     24  C   UNL     1       0.903  13.494  20.629  0.00  0.00    +0.000 A 
ATOM     25  C   UNL     1       2.141  13.804  21.209  0.00  0.00    +0.000 A 
ENDBRANCH   8  24
ENDBRANCH   1   9
BRANCH   4  26
ATOM     26  C   UNL     1       1.975   6.407  19.925  0.00  0.00    +0.000 A 
ATOM     27  C   UNL     1       1.402   5.351  20.638  0.00  0.00    +0.000 A 
ATOM     28  C   UNL     1       1.241   4.098  20.034  0.00  0.00    +0.000 A 
ATOM     29  C   UNL     1       1.635   3.899  18.710  0.00  0.00    +0.000 A 
ATOM     30  C   UNL     1       2.175   4.950  17.982  0.00  0.00    +0.000 A 
ATOM     31  C   UNL     1       2.342   6.192  18.588  0.00  0.00    +0.000 A 
ENDBRANCH   4  26
BRANCH   6  32
ATOM     32  C   UNL     1      -1.197  10.414  18.776  0.00  0.00    +0.000 A 
ATOM     33  C   UNL     1      -1.157   9.766  17.527  0.00  0.00    +0.000 A 
ATOM     34  C   UNL     1      -2.117  10.031  16.546  0.00  0.00    +0.000 A 
ATOM     35  C   UNL     1      -3.128  10.953  16.802  0.00  0.00    +0.000 A 
ATOM     36  C   UNL     1      -3.164  11.623  18.024  0.00  0.00    +0.000 A 
ATOM     37  C   UNL     1      -2.193  11.369  18.998  0.00  0.00    +0.000 A 
ENDBRANCH   6  32
TORSDOF 4
ENDMDL
MODEL 2
REMARK VINA RESULT:      -8.8      0.116      1.141
REMARK  Name = 
REMARK  5 active torsions:
REMARK  status: ('A' for Active; 'I' for Inactive)
REMARK    1  A    between atoms: C_1  and  C_2
REMARK    2  A    between atoms: C_6  and  N_7
REMARK    3  A    between atoms: C_8  and  C_9
REMARK    4  A    between atoms: N_12  and  C_13
REMARK    5  A    between atoms: C_20  and  C_21
REMARK                            x       y       z     vdW  Elec       q    Type
REMARK                         _______ _______ _______ _____ _____    ______ ____
ROOT
ATOM      1  C   UNL     1       0.065  10.601  21.012  0.00  0.00    +0.000 A 
ATOM      2  S   UNL     1       1.191   9.650  21.925  0.00  0.00    +0.000 S 
ATOM      3  C   UNL     1       1.440   8.616  20.592  0.00  0.00    +0.000 A 
ATOM      4  N   UNL     1       2.308   7.578  20.656  0.00  0.00    +0.000 N 
ATOM      5  N   UNL     1       0.691   8.891  19.553  0.00  0.00    +0.000 NA
ATOM      6  C   UNL     1      -0.135   9.976  19.785  0.00  0.00    +0.000 A 
ATOM      7  H   UNL     1       2.959   7.523  21.428  0.00  0.00    +0.000 HD
ENDROOT
BRANCH   1   9
ATOM      8  N   UNL     1      -0.217  13.058  21.444  0.00  0.00    +0.000 N 
ATOM      9  C   UNL     1      -0.630  11.727  21.628  0.00  0.00    +0.000 A 
ATOM     10  N   UNL     1      -1.633  11.419  22.393  0.00  0.00    +0.000 NA
ATOM     11  C   UNL     1      -2.330  12.418  23.070  0.00  0.00    +0.000 A 
ATOM     12  C   UNL     1      -3.411  12.063  23.881  0.00  0.00    +0.000 A 
ATOM     13  C   UNL     1      -4.101  13.033  24.615  0.00  0.00    +0.000 A 
ATOM     14  C   UNL     1      -3.724  14.372  24.532  0.00  0.00    +0.000 A 
ATOM     15  C   UNL     1      -2.662  14.740  23.710  0.00  0.00    +0.000 A 
ATOM     16  C   UNL     1      -1.972  13.756  22.990  0.00  0.00    +0.000 A 
ATOM     17  C   UNL     1      -0.842  14.111  22.122  0.00  0.00    +0.000 A 
ATOM     18  O   UNL     1      -0.544  15.301  22.027  0.00  0.00    +0.000 OA
BRANCH   8  24
ATOM     19  C   UNL     1       4.521  14.359  20.993  0.00  0.00    +0.000 C 
ATOM     20  C   UNL     1       3.200  14.067  20.348  0.00  0.00    +0.000 A 
ATOM     21  C   UNL     1       3.039  14.089  18.959  0.00  0.00    +0.000 A 
ATOM     22  C   UNL     1       1.801  13.788  18.384  0.00  0.00    +0.000 A 
ATOM     23  C   UNL     1       0.711  13.449  19.191  0.00  0.00    +0.000 A 
ATOM     24  C   UNL     1       0.860  13.428  20.580  0.00  0.00    +0.000 A 
ATOM     25  C   UNL     1       2.100  13.748  21.151  0.00  0.00    +0.000 A 
ENDBRANCH   8  24
ENDBRANCH   1   9
BRANCH   4  26
ATOM     26  C   UNL     1       2.066   6.345  20.010  0.00  0.00    +0.000 A 
ATOM     27  C   UNL     1       2.427   6.181  18.670  0.00  0.00    +0.000 A 
ATOM     28  C   UNL     1       2.085   5.007  17.988  0.00  0.00    +0.000 A 
ATOM     29  C   UNL     1       1.398   3.985  18.644  0.00  0.00    +0.000 A 
ATOM     30  C   UNL     1       1.064   4.124  19.984  0.00  0.00    +0.000 A 
ATOM     31  C   UNL     1       1.397   5.297  20.658  0.00  0.00    +0.000 A 
ENDBRANCH   4  26
BRANCH   6  32
ATOM     32  C   UNL     1      -1.133  10.301  18.767  0.00  0.00    +0.000 A 
ATOM     33  C   UNL     1      -2.117  11.259  19.075  0.00  0.00    +0.000 A 
ATOM     34  C   UNL     1      -3.077  11.636  18.132  0.00  0.00    +0.000 A 
ATOM     35  C   UNL     1      -3.068  11.054  16.867  0.00  0.00    +0.000 A 
ATOM     36  C   UNL     1      -2.117  10.083  16.557  0.00  0.00    +0.000 A 
ATOM     37  C   UNL     1      -1.166   9.695  17.507  0.00  0.00    +0.000 A 
ENDBRANCH   6  32
TORSDOF 4
ENDMDL
MODEL 3
REMARK VINA RESULT:      -8.2      0.348      1.137
REMARK  Name = 
REMARK  5 active torsions:
REMARK  status: ('A' for Active; 'I' for Inactive)
REMARK    1  A    between atoms: C_1  and  C_2
REMARK    2  A    between atoms: C_6  and  N_7
REMARK    3  A    between atoms: C_8  and  C_9
REMARK    4  A    between atoms: N_12  and  C_13
REMARK    5  A    between atoms: C_20  and  C_21
REMARK                            x       y       z     vdW  Elec       q    Type
REMARK                         _______ _______ _______ _____ _____    ______ ____
ROOT
ATOM      1  C   UNL     1       0.167  10.628  21.112  0.00  0.00    +0.000 A 
ATOM      2  S   UNL     1       1.265   9.603  21.979  0.00  0.00    +0.000 S 
ATOM      3  C   UNL     1       1.465   8.612  20.605  0.00  0.00    +0.000 A 
ATOM      4  N   UNL     1       2.297   7.543  20.622  0.00  0.00    +0.000 N 
ATOM      5  N   UNL     1       0.719   8.953  19.584  0.00  0.00    +0.000 NA
ATOM      6  C   UNL     1      -0.065  10.058  19.865  0.00  0.00    +0.000 A 
ATOM      7  H   UNL     1       2.951   7.435  21.386  0.00  0.00    +0.000 HD
ENDROOT
BRANCH   1   9
ATOM      8  N   UNL     1       0.055  13.053  21.754  0.00  0.00    +0.000 N 
ATOM      9  C   UNL     1      -0.482  11.753  21.777  0.00  0.00    +0.000 A 
ATOM     10  N   UNL     1      -1.571  11.472  22.428  0.00  0.00    +0.000 NA
ATOM     11  C   UNL     1      -2.238  12.467  23.141  0.00  0.00    +0.000 A 
ATOM     12  C   UNL     1      -3.410  12.141  23.826  0.00  0.00    +0.000 A 
ATOM     13  C   UNL     1      -4.077  13.101  24.594  0.00  0.00    +0.000 A 
ATOM     14  C   UNL     1      -3.584  14.403  24.669  0.00  0.00    +0.000 A 
ATOM     15  C   UNL     1      -2.429  14.743  23.972  0.00  0.00    +0.000 A 
ATOM     16  C   UNL     1      -1.763  13.768  23.218  0.00  0.00    +0.000 A 
ATOM     17  C   UNL     1      -0.537  14.094  22.479  0.00  0.00    +0.000 A 
ATOM     18  O   UNL     1      -0.133  15.256  22.522  0.00  0.00    +0.000 OA
BRANCH   8  24
ATOM     19  C   UNL     1       2.107  14.002  17.369  0.00  0.00    +0.000 C 
ATOM     20  C   UNL     1       2.250  13.872  18.856  0.00  0.00    +0.000 A 
ATOM     21  C   UNL     1       3.459  14.141  19.505  0.00  0.00    +0.000 A 
ATOM     22  C   UNL     1       3.557  14.035  20.895  0.00  0.00    +0.000 A 
ATOM     23  C   UNL     1       2.441  13.672  21.655  0.00  0.00    +0.000 A 
ATOM     24  C   UNL     1       1.229  13.398  21.017  0.00  0.00    +0.000 A 
ATOM     25  C   UNL     1       1.144  13.489  19.620  0.00  0.00    +0.000 A 
ENDBRANCH   8  24
ENDBRANCH   1   9
BRANCH   4  26
ATOM     26  C   UNL     1       2.005   6.345  19.933  0.00  0.00    +0.000 A 
ATOM     27  C   UNL     1       1.389   5.287  20.608  0.00  0.00    +0.000 A 
ATOM     28  C   UNL     1       1.204   4.056  19.969  0.00  0.00    +0.000 A 
ATOM     29  C   UNL     1       1.615   3.879  18.647  0.00  0.00    +0.000 A 
ATOM     30  C   UNL     1       2.198   4.933  17.956  0.00  0.00    +0.000 A 
ATOM     31  C   UNL     1       2.390   6.154  18.597  0.00  0.00    +0.000 A 
ENDBRANCH   4  26
BRANCH   6  32
ATOM     32  C   UNL     1      -1.059  10.457  18.869  0.00  0.00    +0.000 A 
ATOM     33  C   UNL     1      -1.120   9.741  17.659  0.00  0.00    +0.000 A 
ATOM     34  C   UNL     1      -2.071  10.054  16.683  0.00  0.00    +0.000 A 
ATOM     35  C   UNL     1      -2.971  11.093  16.904  0.00  0.00    +0.000 A 
ATOM     36  C   UNL     1      -2.904  11.829  18.086  0.00  0.00    +0.000 A 
ATOM     37  C   UNL     1      -1.942  11.525  19.055  0.00  0.00    +0.000 A 
ENDBRANCH   6  32
TORSDOF 4
ENDMDL
MODEL 4
REMARK VINA RESULT:      -7.7      2.911      6.931
REMARK  Name = 
REMARK  5 active torsions:
REMARK  status: ('A' for Active; 'I' for Inactive)
REMARK    1  A    between atoms: C_1  and  C_2
REMARK    2  A    between atoms: C_6  and  N_7
REMARK    3  A    between atoms: C_8  and  C_9
REMARK    4  A    between atoms: N_12  and  C_13
REMARK    5  A    between atoms: C_20  and  C_21
REMARK                            x       y       z     vdW  Elec       q    Type
REMARK                         _______ _______ _______ _____ _____    ______ ____
ROOT
ATOM      1  C   UNL     1      -2.037  12.986  19.661  0.00  0.00    +0.000 A 
ATOM      2  S   UNL     1      -2.519  11.865  18.430  0.00  0.00    +0.000 S 
ATOM      3  C   UNL     1      -4.106  11.821  19.054  0.00  0.00    +0.000 A 
ATOM      4  N   UNL     1      -5.073  11.073  18.471  0.00  0.00    +0.000 N 
ATOM      5  N   UNL     1      -4.271  12.522  20.148  0.00  0.00    +0.000 NA
ATOM      6  C   UNL     1      -3.101  13.147  20.542  0.00  0.00    +0.000 A 
ATOM      7  H   UNL     1      -4.913  10.687  17.550  0.00  0.00    +0.000 HD
ENDROOT
BRANCH   1   9
ATOM      8  N   UNL     1       0.309  12.784  20.531  0.00  0.00    +0.000 N 
ATOM      9  C   UNL     1      -0.655  13.445  19.750  0.00  0.00    +0.000 A 
ATOM     10  N   UNL     1      -0.378  14.531  19.092  0.00  0.00    +0.000 NA
ATOM     11  C   UNL     1       0.901  15.081  19.155  0.00  0.00    +0.000 A 
ATOM     12  C   UNL     1       1.176  16.245  18.432  0.00  0.00    +0.000 A 
ATOM     13  C   UNL     1       2.433  16.853  18.512  0.00  0.00    +0.000 A 
ATOM     14  C   UNL     1       3.432  16.293  19.306  0.00  0.00    +0.000 A 
ATOM     15  C   UNL     1       3.175  15.122  20.013  0.00  0.00    +0.000 A 
ATOM     16  C   UNL     1       1.908  14.530  19.934  0.00  0.00    +0.000 A 
ATOM     17  C   UNL     1       1.603  13.300  20.675  0.00  0.00    +0.000 A 
ATOM     18  O   UNL     1       2.505  12.794  21.342  0.00  0.00    +0.000 OA
BRANCH   8  24
ATOM     19  C   UNL     1       1.022   7.915  20.883  0.00  0.00    +0.000 C 
ATOM     20  C   UNL     1       0.393   9.166  21.419  0.00  0.00    +0.000 A 
ATOM     21  C   UNL     1      -0.367   9.161  22.593  0.00  0.00    +0.000 A 
ATOM     22  C   UNL     1      -0.922  10.347  23.083  0.00  0.00    +0.000 A 
ATOM     23  C   UNL     1      -0.712  11.555  22.411  0.00  0.00    +0.000 A 
ATOM     24  C   UNL     1       0.043  11.570  21.235  0.00  0.00    +0.000 A 
ATOM     25  C   UNL     1       0.581  10.374  20.741  0.00  0.00    +0.000 A 
ENDBRANCH   8  24
ENDBRANCH   1   9
BRANCH   4  26
ATOM     26  C   UNL     1      -6.069  10.405  19.217  0.00  0.00    +0.000 A 
ATOM     27  C   UNL     1      -6.986  11.144  19.968  0.00  0.00    +0.000 A 
ATOM     28  C   UNL     1      -7.901  10.491  20.804  0.00  0.00    +0.000 A 
ATOM     29  C   UNL     1      -7.916   9.098  20.879  0.00  0.00    +0.000 A 
ATOM     30  C   UNL     1      -7.032   8.353  20.111  0.00  0.00    +0.000 A 
ATOM     31  C   UNL     1      -6.117   9.005  19.289  0.00  0.00    +0.000 A 
ENDBRANCH   4  26
BRANCH   6  32
ATOM     32  C   UNL     1      -3.101  13.839  21.830  0.00  0.00    +0.000 A 
ATOM     33  C   UNL     1      -3.597  13.159  22.958  0.00  0.00    +0.000 A 
ATOM     34  C   UNL     1      -3.592  13.756  24.221  0.00  0.00    +0.000 A 
ATOM     35  C   UNL     1      -3.093  15.047  24.372  0.00  0.00    +0.000 A 
ATOM     36  C   UNL     1      -2.625  15.745  23.260  0.00  0.00    +0.000 A 
ATOM     37  C   UNL     1      -2.646  15.152  21.993  0.00  0.00    +0.000 A 
ENDBRANCH   6  32
TORSDOF 4
ENDMDL
MODEL 5
REMARK VINA RESULT:      -7.7      1.511      1.575
REMARK  Name = 
REMARK  5 active torsions:
REMARK  status: ('A' for Active; 'I' for Inactive)
REMARK    1  A    between atoms: C_1  and  C_2
REMARK    2  A    between atoms: C_6  and  N_7
REMARK    3  A    between atoms: C_8  and  C_9
REMARK    4  A    between atoms: N_12  and  C_13
REMARK    5  A    between atoms: C_20  and  C_21
REMARK                            x       y       z     vdW  Elec       q    Type
REMARK                         _______ _______ _______ _____ _____    ______ ____
ROOT
ATOM      1  C   UNL     1      -0.930  11.519  20.538  0.00  0.00    +0.000 A 
ATOM      2  S   UNL     1       0.286  10.881  21.596  0.00  0.00    +0.000 S 
ATOM      3  C   UNL     1       0.792   9.780  20.394  0.00  0.00    +0.000 A 
ATOM      4  N   UNL     1       1.823   8.927  20.606  0.00  0.00    +0.000 N 
ATOM      5  N   UNL     1       0.071   9.813  19.300  0.00  0.00    +0.000 NA
ATOM      6  C   UNL     1      -0.943  10.750  19.378  0.00  0.00    +0.000 A 
ATOM      7  H   UNL     1       2.425   9.067  21.407  0.00  0.00    +0.000 HD
ENDROOT
BRANCH   1   9
ATOM      8  N   UNL     1      -1.496  13.919  21.011  0.00  0.00    +0.000 N 
ATOM      9  C   UNL     1      -1.846  12.557  20.998  0.00  0.00    +0.000 A 
ATOM     10  N   UNL     1      -2.996  12.139  21.436  0.00  0.00    +0.000 NA
ATOM     11  C   UNL     1      -3.922  13.047  21.948  0.00  0.00    +0.000 A 
ATOM     12  C   UNL     1      -5.155  12.575  22.405  0.00  0.00    +0.000 A 
ATOM     13  C   UNL     1      -6.087  13.449  22.971  0.00  0.00    +0.000 A 
ATOM     14  C   UNL     1      -5.800  14.810  23.072  0.00  0.00    +0.000 A 
ATOM     15  C   UNL     1      -4.584  15.294  22.599  0.00  0.00    +0.000 A 
ATOM     16  C   UNL     1      -3.653  14.404  22.046  0.00  0.00    +0.000 A 
ATOM     17  C   UNL     1      -2.358  14.883  21.547  0.00  0.00    +0.000 A 
ATOM     18  O   UNL     1      -2.132  16.091  21.605  0.00  0.00    +0.000 OA
BRANCH   8  24
ATOM     19  C   UNL     1       3.214  15.086  21.901  0.00  0.00    +0.000 C 
ATOM     20  C   UNL     1       2.074  14.984  20.933  0.00  0.00    +0.000 A 
ATOM     21  C   UNL     1       2.232  15.289  19.577  0.00  0.00    +0.000 A 
ATOM     22  C   UNL     1       1.158  15.162  18.692  0.00  0.00    +0.000 A 
ATOM     23  C   UNL     1      -0.084  14.713  19.150  0.00  0.00    +0.000 A 
ATOM     24  C   UNL     1      -0.254  14.409  20.503  0.00  0.00    +0.000 A 
ATOM     25  C   UNL     1       0.824  14.556  21.388  0.00  0.00    +0.000 A 
ENDBRANCH   8  24
ENDBRANCH   1   9
BRANCH   4  26
ATOM     26  C   UNL     1       1.839   7.614  20.088  0.00  0.00    +0.000 A 
ATOM     27  C   UNL     1       1.402   6.549  20.881  0.00  0.00    +0.000 A 
ATOM     28  C   UNL     1       1.525   5.232  20.422  0.00  0.00    +0.000 A 
ATOM     29  C   UNL     1       2.066   4.972  19.163  0.00  0.00    +0.000 A 
ATOM     30  C   UNL     1       2.472   6.024  18.353  0.00  0.00    +0.000 A 
ATOM     31  C   UNL     1       2.358   7.332  18.815  0.00  0.00    +0.000 A 
ENDBRANCH   4  26
BRANCH   6  32
ATOM     32  C   UNL     1      -1.919  10.789  18.290  0.00  0.00    +0.000 A 
ATOM     33  C   UNL     1      -1.713   9.955  17.175  0.00  0.00    +0.000 A 
ATOM     34  C   UNL     1      -2.627   9.923  16.119  0.00  0.00    +0.000 A 
ATOM     35  C   UNL     1      -3.761  10.730  16.163  0.00  0.00    +0.000 A 
ATOM     36  C   UNL     1      -3.964  11.582  17.247  0.00  0.00    +0.000 A 
ATOM     37  C   UNL     1      -3.039  11.626  18.296  0.00  0.00    +0.000 A 
ENDBRANCH   6  32
TORSDOF 4
ENDMDL
MODEL 6
REMARK VINA RESULT:      -7.6      3.693      8.290
REMARK  Name = 
REMARK  5 active torsions:
REMARK  status: ('A' for Active; 'I' for Inactive)
REMARK    1  A    between atoms: C_1  and  C_2
REMARK    2  A    between atoms: C_6  and  N_7
REMARK    3  A    between atoms: C_8  and  C_9
REMARK    4  A    between atoms: N_12  and  C_13
REMARK    5  A    between atoms: C_20  and  C_21
REMARK                            x       y       z     vdW  Elec       q    Type
REMARK                         _______ _______ _______ _____ _____    ______ ____
ROOT
ATOM      1  C   UNL     1      -1.768  13.690  20.832  0.00  0.00    +0.000 A 
ATOM      2  S   UNL     1      -2.031  15.380  21.118  0.00  0.00    +0.000 S 
ATOM      3  C   UNL     1      -0.818  15.393  22.318  0.00  0.00    +0.000 A 
ATOM      4  N   UNL     1      -0.488  16.530  22.976  0.00  0.00    +0.000 N 
ATOM      5  N   UNL     1      -0.294  14.217  22.562  0.00  0.00    +0.000 NA
ATOM      6  C   UNL     1      -0.853  13.228  21.773  0.00  0.00    +0.000 A 
ATOM      7  H   UNL     1      -0.822  17.419  22.628  0.00  0.00    +0.000 HD
ENDROOT
BRANCH   1   9
ATOM      8  N   UNL     1      -3.953  12.702  20.087  0.00  0.00    +0.000 N 
ATOM      9  C   UNL     1      -2.588  12.962  19.869  0.00  0.00    +0.000 A 
ATOM     10  N   UNL     1      -1.967  12.532  18.812  0.00  0.00    +0.000 NA
ATOM     11  C   UNL     1      -2.649  11.780  17.857  0.00  0.00    +0.000 A 
ATOM     12  C   UNL     1      -1.962  11.336  16.725  0.00  0.00    +0.000 A 
ATOM     13  C   UNL     1      -2.600  10.536  15.772  0.00  0.00    +0.000 A 
ATOM     14  C   UNL     1      -3.940  10.186  15.936  0.00  0.00    +0.000 A 
ATOM     15  C   UNL     1      -4.639  10.641  17.050  0.00  0.00    +0.000 A 
ATOM     16  C   UNL     1      -3.984  11.431  18.003  0.00  0.00    +0.000 A 
ATOM     17  C   UNL     1      -4.693  11.919  19.193  0.00  0.00    +0.000 A 
ATOM     18  O   UNL     1      -5.885  11.636  19.307  0.00  0.00    +0.000 OA
BRANCH   8  24
ATOM     19  C   UNL     1      -4.794  12.418  24.941  0.00  0.00    +0.000 C 
ATOM     20  C   UNL     1      -5.087  13.063  23.619  0.00  0.00    +0.000 A 
ATOM     21  C   UNL     1      -5.970  14.141  23.507  0.00  0.00    +0.000 A 
ATOM     22  C   UNL     1      -6.206  14.739  22.265  0.00  0.00    +0.000 A 
ATOM     23  C   UNL     1      -5.550  14.273  21.122  0.00  0.00    +0.000 A 
ATOM     24  C   UNL     1      -4.668  13.193  21.222  0.00  0.00    +0.000 A 
ATOM     25  C   UNL     1      -4.451  12.588  22.468  0.00  0.00    +0.000 A 
ENDBRANCH   8  24
ENDBRANCH   1   9
BRANCH   4  26
ATOM     26  C   UNL     1      -0.128  16.538  24.342  0.00  0.00    +0.000 A 
ATOM     27  C   UNL     1      -0.964  15.935  25.285  0.00  0.00    +0.000 A 
ATOM     28  C   UNL     1      -0.677  16.040  26.651  0.00  0.00    +0.000 A 
ATOM     29  C   UNL     1       0.455  16.732  27.082  0.00  0.00    +0.000 A 
ATOM     30  C   UNL     1       1.311  17.307  26.152  0.00  0.00    +0.000 A 
ATOM     31  C   UNL     1       1.018  17.209  24.794  0.00  0.00    +0.000 A 
ENDBRANCH   4  26
BRANCH   6  32
ATOM     32  C   UNL     1      -0.471  11.844  22.045  0.00  0.00    +0.000 A 
ATOM     33  C   UNL     1       0.520  11.251  21.241  0.00  0.00    +0.000 A 
ATOM     34  C   UNL     1       0.951   9.942  21.475  0.00  0.00    +0.000 A 
ATOM     35  C   UNL     1       0.391   9.206  22.515  0.00  0.00    +0.000 A 
ATOM     36  C   UNL     1      -0.613   9.769  23.302  0.00  0.00    +0.000 A 
ATOM     37  C   UNL     1      -1.055  11.074  23.057  0.00  0.00    +0.000 A 
ENDBRANCH   6  32
TORSDOF 4
ENDMDL
MODEL 7
REMARK VINA RESULT:      -7.5      2.825      7.342
REMARK  Name = 
REMARK  5 active torsions:
REMARK  status: ('A' for Active; 'I' for Inactive)
REMARK    1  A    between atoms: C_1  and  C_2
REMARK    2  A    between atoms: C_6  and  N_7
REMARK    3  A    between atoms: C_8  and  C_9
REMARK    4  A    between atoms: N_12  and  C_13
REMARK    5  A    between atoms: C_20  and  C_21
REMARK                            x       y       z     vdW  Elec       q    Type
REMARK                         _______ _______ _______ _____ _____    ______ ____
ROOT
ATOM      1  C   UNL     1      -1.349  13.497  20.835  0.00  0.00    +0.000 A 
ATOM      2  S   UNL     1      -1.504  14.189  22.417  0.00  0.00    +0.000 S 
ATOM      3  C   UNL     1      -3.017  13.430  22.629  0.00  0.00    +0.000 A 
ATOM      4  N   UNL     1      -3.720  13.566  23.779  0.00  0.00    +0.000 N 
ATOM      5  N   UNL     1      -3.435  12.766  21.580  0.00  0.00    +0.000 NA
ATOM      6  C   UNL     1      -2.534  12.834  20.533  0.00  0.00    +0.000 A 
ATOM      7  H   UNL     1      -3.267  13.961  24.593  0.00  0.00    +0.000 HD
ENDROOT
BRANCH   1   9
ATOM      8  N   UNL     1       0.795  12.861  19.694  0.00  0.00    +0.000 N 
ATOM      9  C   UNL     1      -0.197  13.811  19.995  0.00  0.00    +0.000 A 
ATOM     10  N   UNL     1      -0.123  15.038  19.575  0.00  0.00    +0.000 NA
ATOM     11  C   UNL     1       0.967  15.452  18.811  0.00  0.00    +0.000 A 
ATOM     12  C   UNL     1       1.019  16.775  18.364  0.00  0.00    +0.000 A 
ATOM     13  C   UNL     1       2.121  17.239  17.639  0.00  0.00    +0.000 A 
ATOM     14  C   UNL     1       3.176  16.377  17.340  0.00  0.00    +0.000 A 
ATOM     15  C   UNL     1       3.123  15.051  17.762  0.00  0.00    +0.000 A 
ATOM     16  C   UNL     1       2.019  14.604  18.499  0.00  0.00    +0.000 A 
ATOM     17  C   UNL     1       1.938  13.214  18.965  0.00  0.00    +0.000 A 
ATOM     18  O   UNL     1       2.856  12.453  18.662  0.00  0.00    +0.000 OA
BRANCH   8  24
ATOM     19  C   UNL     1      -0.038   9.648  23.344  0.00  0.00    +0.000 C 
ATOM     20  C   UNL     1       0.307   9.903  21.907  0.00  0.00    +0.000 A 
ATOM     21  C   UNL     1       0.484   8.857  20.997  0.00  0.00    +0.000 A 
ATOM     22  C   UNL     1       0.781   9.124  19.657  0.00  0.00    +0.000 A 
ATOM     23  C   UNL     1       0.892  10.444  19.210  0.00  0.00    +0.000 A 
ATOM     24  C   UNL     1       0.721  11.497  20.111  0.00  0.00    +0.000 A 
ATOM     25  C   UNL     1       0.440  11.220  21.457  0.00  0.00    +0.000 A 
ENDBRANCH   8  24
ENDBRANCH   1   9
BRANCH   4  26
ATOM     26  C   UNL     1      -5.130  13.648  23.801  0.00  0.00    +0.000 A 
ATOM     27  C   UNL     1      -5.756  14.885  23.630  0.00  0.00    +0.000 A 
ATOM     28  C   UNL     1      -7.145  14.996  23.768  0.00  0.00    +0.000 A 
ATOM     29  C   UNL     1      -7.917  13.870  24.060  0.00  0.00    +0.000 A 
ATOM     30  C   UNL     1      -7.308  12.630  24.198  0.00  0.00    +0.000 A 
ATOM     31  C   UNL     1      -5.926  12.524  24.070  0.00  0.00    +0.000 A 
ENDBRANCH   4  26
BRANCH   6  32
ATOM     32  C   UNL     1      -2.940  12.266  19.248  0.00  0.00    +0.000 A 
ATOM     33  C   UNL     1      -4.314  12.118  18.985  0.00  0.00    +0.000 A 
ATOM     34  C   UNL     1      -4.765  11.613  17.762  0.00  0.00    +0.000 A 
ATOM     35  C   UNL     1      -3.842  11.243  16.787  0.00  0.00    +0.000 A 
ATOM     36  C   UNL     1      -2.477  11.357  17.044  0.00  0.00    +0.000 A 
ATOM     37  C   UNL     1      -2.027  11.848  18.274  0.00  0.00    +0.000 A 
ENDBRANCH   6  32
TORSDOF 4
ENDMDL
MODEL 8
REMARK VINA RESULT:      -7.4      3.016      6.490
REMARK  Name = 
REMARK  5 active torsions:
REMARK  status: ('A' for Active; 'I' for Inactive)
REMARK    1  A    between atoms: C_1  and  C_2
REMARK    2  A    between atoms: C_6  and  N_7
REMARK    3  A    between atoms: C_8  and  C_9
REMARK    4  A    between atoms: N_12  and  C_13
REMARK    5  A    between atoms: C_20  and  C_21
REMARK                            x       y       z     vdW  Elec       q    Type
REMARK                         _______ _______ _______ _____ _____    ______ ____
ROOT
ATOM      1  C   UNL     1      -1.333  13.134  19.809  0.00  0.00    +0.000 A 
ATOM      2  S   UNL     1      -0.775  14.643  19.163  0.00  0.00    +0.000 S 
ATOM      3  C   UNL     1       0.844  14.111  19.247  0.00  0.00    +0.000 A 
ATOM      4  N   UNL     1       1.867  14.894  18.828  0.00  0.00    +0.000 N 
ATOM      5  N   UNL     1       0.991  12.926  19.787  0.00  0.00    +0.000 NA
ATOM      6  C   UNL     1      -0.222  12.376  20.163  0.00  0.00    +0.000 A 
ATOM      7  H   UNL     1       1.666  15.723  18.284  0.00  0.00    +0.000 HD
ENDROOT
BRANCH   1   9
ATOM      8  N   UNL     1      -3.391  13.405  21.222  0.00  0.00    +0.000 N 
ATOM      9  C   UNL     1      -2.752  12.915  20.069  0.00  0.00    +0.000 A 
ATOM     10  N   UNL     1      -3.384  12.202  19.185  0.00  0.00    +0.000 NA
ATOM     11  C   UNL     1      -4.730  11.891  19.368  0.00  0.00    +0.000 A 
ATOM     12  C   UNL     1      -5.389  11.130  18.400  0.00  0.00    +0.000 A 
ATOM     13  C   UNL     1      -6.725  10.756  18.575  0.00  0.00    +0.000 A 
ATOM     14  C   UNL     1      -7.419  11.154  19.716  0.00  0.00    +0.000 A 
ATOM     15  C   UNL     1      -6.778  11.932  20.676  0.00  0.00    +0.000 A 
ATOM     16  C   UNL     1      -5.436  12.288  20.494  0.00  0.00    +0.000 A 
ATOM     17  C   UNL     1      -4.730  13.099  21.494  0.00  0.00    +0.000 A 
ATOM     18  O   UNL     1      -5.365  13.478  22.478  0.00  0.00    +0.000 OA
BRANCH   8  24
ATOM     19  C   UNL     1      -2.275  17.945  22.798  0.00  0.00    +0.000 C 
ATOM     20  C   UNL     1      -2.179  16.460  22.979  0.00  0.00    +0.000 A 
ATOM     21  C   UNL     1      -1.530  15.894  24.081  0.00  0.00    +0.000 A 
ATOM     22  C   UNL     1      -1.477  14.506  24.238  0.00  0.00    +0.000 A 
ATOM     23  C   UNL     1      -2.083  13.667  23.298  0.00  0.00    +0.000 A 
ATOM     24  C   UNL     1      -2.731  14.221  22.191  0.00  0.00    +0.000 A 
ATOM     25  C   UNL     1      -2.765  15.614  22.033  0.00  0.00    +0.000 A 
ENDBRANCH   8  24
ENDBRANCH   1   9
BRANCH   4  26
ATOM     26  C   UNL     1       3.122  14.912  19.476  0.00  0.00    +0.000 A 
ATOM     27  C   UNL     1       3.184  15.044  20.866  0.00  0.00    +0.000 A 
ATOM     28  C   UNL     1       4.421  15.183  21.506  0.00  0.00    +0.000 A 
ATOM     29  C   UNL     1       5.603  15.173  20.764  0.00  0.00    +0.000 A 
ATOM     30  C   UNL     1       5.555  15.009  19.386  0.00  0.00    +0.000 A 
ATOM     31  C   UNL     1       4.322  14.881  18.751  0.00  0.00    +0.000 A 
ENDBRANCH   4  26
BRANCH   6  32
ATOM     32  C   UNL     1      -0.195  11.124  20.917  0.00  0.00    +0.000 A 
ATOM     33  C   UNL     1      -0.416  11.172  22.306  0.00  0.00    +0.000 A 
ATOM     34  C   UNL     1      -0.437  10.005  23.075  0.00  0.00    +0.000 A 
ATOM     35  C   UNL     1      -0.230   8.772  22.463  0.00  0.00    +0.000 A 
ATOM     36  C   UNL     1       0.019   8.711  21.093  0.00  0.00    +0.000 A 
ATOM     37  C   UNL     1       0.055   9.881  20.327  0.00  0.00    +0.000 A 
ENDBRANCH   6  32
TORSDOF 4
ENDMDL
MODEL 9
REMARK VINA RESULT:      -7.3      3.335      6.716
REMARK  Name = 
REMARK  5 active torsions:
REMARK  status: ('A' for Active; 'I' for Inactive)
REMARK    1  A    between atoms: C_1  and  C_2
REMARK    2  A    between atoms: C_6  and  N_7
REMARK    3  A    between atoms: C_8  and  C_9
REMARK    4  A    between atoms: N_12  and  C_13
REMARK    5  A    between atoms: C_20  and  C_21
REMARK                            x       y       z     vdW  Elec       q    Type
REMARK                         _______ _______ _______ _____ _____    ______ ____
ROOT
ATOM      1  C   UNL     1      -1.766  13.712  20.533  0.00  0.00    +0.000 A 
ATOM      2  S   UNL     1      -1.268  15.294  20.028  0.00  0.00    +0.000 S 
ATOM      3  C   UNL     1       0.352  14.773  19.903  0.00  0.00    +0.000 A 
ATOM      4  N   UNL     1       1.333  15.612  19.493  0.00  0.00    +0.000 N 
ATOM      5  N   UNL     1       0.547  13.534  20.280  0.00  0.00    +0.000 NA
ATOM      6  C   UNL     1      -0.627  12.929  20.693  0.00  0.00    +0.000 A 
ATOM      7  H   UNL     1       1.085  16.498  19.074  0.00  0.00    +0.000 HD
ENDROOT
BRANCH   1   9
ATOM      8  N   UNL     1      -3.726  13.908  22.089  0.00  0.00    +0.000 N 
ATOM      9  C   UNL     1      -3.156  13.447  20.889  0.00  0.00    +0.000 A 
ATOM     10  N   UNL     1      -3.826  12.722  20.044  0.00  0.00    +0.000 NA
ATOM     11  C   UNL     1      -5.146  12.369  20.318  0.00  0.00    +0.000 A 
ATOM     12  C   UNL     1      -5.848  11.595  19.390  0.00  0.00    +0.000 A 
ATOM     13  C   UNL     1      -7.157  11.179  19.655  0.00  0.00    +0.000 A 
ATOM     14  C   UNL     1      -7.781  11.547  20.845  0.00  0.00    +0.000 A 
ATOM     15  C   UNL     1      -7.098  12.336  21.767  0.00  0.00    +0.000 A 
ATOM     16  C   UNL     1      -5.783  12.734  21.495  0.00  0.00    +0.000 A 
ATOM     17  C   UNL     1      -5.033  13.559  22.451  0.00  0.00    +0.000 A 
ATOM     18  O   UNL     1      -5.608  13.910  23.480  0.00  0.00    +0.000 OA
BRANCH   8  24
ATOM     19  C   UNL     1      -2.851  18.451  23.803  0.00  0.00    +0.000 C 
ATOM     20  C   UNL     1      -2.590  16.976  23.873  0.00  0.00    +0.000 A 
ATOM     21  C   UNL     1      -1.750  16.423  24.846  0.00  0.00    +0.000 A 
ATOM     22  C   UNL     1      -1.544  15.042  24.903  0.00  0.00    +0.000 A 
ATOM     23  C   UNL     1      -2.186  14.195  23.996  0.00  0.00    +0.000 A 
ATOM     24  C   UNL     1      -3.025  14.736  23.018  0.00  0.00    +0.000 A 
ATOM     25  C   UNL     1      -3.213  16.124  22.956  0.00  0.00    +0.000 A 
ENDBRANCH   8  24
ENDBRANCH   1   9
BRANCH   4  26
ATOM     26  C   UNL     1       2.641  15.566  20.024  0.00  0.00    +0.000 A 
ATOM     27  C   UNL     1       3.700  15.130  19.224  0.00  0.00    +0.000 A 
ATOM     28  C   UNL     1       4.978  14.968  19.774  0.00  0.00    +0.000 A 
ATOM     29  C   UNL     1       5.208  15.258  21.119  0.00  0.00    +0.000 A 
ATOM     30  C   UNL     1       4.170  15.724  21.915  0.00  0.00    +0.000 A 
ATOM     31  C   UNL     1       2.899  15.875  21.368  0.00  0.00    +0.000 A 
ENDBRANCH   4  26
BRANCH   6  32
ATOM     32  C   UNL     1      -0.533  11.595  21.284  0.00  0.00    +0.000 A 
ATOM     33  C   UNL     1      -0.191  10.514  20.450  0.00  0.00    +0.000 A 
ATOM     34  C   UNL     1      -0.053   9.222  20.963  0.00  0.00    +0.000 A 
ATOM     35  C   UNL     1      -0.261   8.993  22.321  0.00  0.00    +0.000 A 
ATOM     36  C   UNL     1      -0.627  10.048  23.154  0.00  0.00    +0.000 A 
ATOM     37  C   UNL     1      -0.781  11.339  22.637  0.00  0.00    +0.000 A 
ENDBRANCH   6  32
TORSDOF 4
ENDMDL
