MODEL 1
REMARK VINA RESULT:      -6.5      0.000      0.000
REMARK  Name = 
REMARK  10 active torsions:
REMARK  status: ('A' for Active; 'I' for Inactive)
REMARK    1  A    between atoms: C_1  and  C_2
REMARK    2  A    between atoms: C_2  and  N_3
REMARK    3  A    between atoms: C_7  and  C_8
REMARK    4  A    between atoms: C_8  and  N_9
REMARK    5  A    between atoms: N_9  and  C_10
REMARK    6  A    between atoms: C_11  and  C_13
REMARK    7  A    between atoms: C_15  and  S_16
REMARK    8  A    between atoms: S_16  and  N_19
REMARK    9  A    between atoms: N_19  and  C_20
REMARK   10  A    between atoms: N_19  and  C_21
REMARK                            x       y       z     vdW  Elec       q    Type
REMARK                         _______ _______ _______ _____ _____    ______ ____
ROOT
ATOM      1  C   UNL     1       2.221   6.386  19.127  0.00  0.00    +0.000 A 
ATOM      2  C   UNL     1       1.986   7.633  18.537  0.00  0.00    +0.000 A 
ATOM      3  C   UNL     1       1.447   8.705  19.271  0.00  0.00    +0.000 A 
ATOM      4  C   UNL     1       1.023   8.497  20.581  0.00  0.00    +0.000 A 
ATOM      5 CL   UNL     1       0.178   9.654  21.538  0.00  0.00    +0.000 Cl
ATOM      6  C   UNL     1       1.226   7.241  21.169  0.00  0.00    +0.000 A 
ATOM      7  C   UNL     1       1.848   6.199  20.464  0.00  0.00    +0.000 A 
ATOM      8 CL   UNL     1       2.156   4.744  21.344  0.00  0.00    +0.000 Cl
ENDROOT
BRANCH   1  11
ATOM      9  N   UNL     1       4.145   4.965  18.340  0.00  0.00    +0.000 N 
ATOM     10  C   UNL     1       4.970   5.280  19.509  0.00  0.00    +0.000 C 
ATOM     11  C   UNL     1       2.775   5.286  18.280  0.00  0.00    +0.000 C 
ATOM     12  O   UNL     1       2.008   4.742  17.490  0.00  0.00    +0.000 OA
BRANCH   9  13
ATOM     13  C   UNL     1       4.604   3.892  17.450  0.00  0.00    +0.000 C 
BRANCH  13  18
ATOM     14  N   UNL     1       6.851   4.730  16.573  0.00  0.00    +0.000 N 
ATOM     15  N   UNL     1       7.449   5.167  15.441  0.00  0.00    +0.000 NA
ATOM     16  C   UNL     1       6.478   5.157  14.532  0.00  0.00    +0.000 A 
ATOM     17  C   UNL     1       5.272   4.675  15.059  0.00  0.00    +0.000 A 
ATOM     18  C   UNL     1       5.536   4.366  16.383  0.00  0.00    +0.000 A 
BRANCH  14  20
ATOM     19  C   UNL     1       7.838   6.246  18.266  0.00  0.00    +0.000 C 
ATOM     20  C   UNL     1       7.626   4.817  17.799  0.00  0.00    +0.000 C 
ENDBRANCH  14  20
ENDBRANCH  13  18
ENDBRANCH   9  13
ENDBRANCH   1  11
BRANCH   3  21
ATOM     21  S   UNL     1       1.580  10.315  18.515  0.00  0.00    +0.000 S 
ATOM     22  O   UNL     1       2.090  11.258  19.484  0.00  0.00    +0.000 OA
ATOM     23  O   UNL     1       2.300  10.107  17.270  0.00  0.00    +0.000 OA
BRANCH  21  24
ATOM     24  N   UNL     1      -0.014  10.723  18.131  0.00  0.00    +0.000 NA
ATOM     25  C   UNL     1      -0.931   9.646  17.734  0.00  0.00    +0.000 C 
ATOM     26  C   UNL     1      -0.644  11.784  18.929  0.00  0.00    +0.000 C 
ENDBRANCH  21  24
ENDBRANCH   3  21
TORSDOF 6
ENDMDL
MODEL 2
REMARK VINA RESULT:      -6.5      2.985      7.345
REMARK  Name = 
REMARK  10 active torsions:
REMARK  status: ('A' for Active; 'I' for Inactive)
REMARK    1  A    between atoms: C_1  and  C_2
REMARK    2  A    between atoms: C_2  and  N_3
REMARK    3  A    between atoms: C_7  and  C_8
REMARK    4  A    between atoms: C_8  and  N_9
REMARK    5  A    between atoms: N_9  and  C_10
REMARK    6  A    between atoms: C_11  and  C_13
REMARK    7  A    between atoms: C_15  and  S_16
REMARK    8  A    between atoms: S_16  and  N_19
REMARK    9  A    between atoms: N_19  and  C_20
REMARK   10  A    between atoms: N_19  and  C_21
REMARK                            x       y       z     vdW  Elec       q    Type
REMARK                         _______ _______ _______ _____ _____    ______ ____
ROOT
ATOM      1  C   UNL     1       3.194   6.144  18.405  0.00  0.00    +0.000 A 
ATOM      2  C   UNL     1       4.524   6.530  18.199  0.00  0.00    +0.000 A 
ATOM      3  C   UNL     1       5.387   5.786  17.374  0.00  0.00    +0.000 A 
ATOM      4  C   UNL     1       4.955   4.573  16.843  0.00  0.00    +0.000 A 
ATOM      5 CL   UNL     1       5.952   3.467  15.976  0.00  0.00    +0.000 Cl
ATOM      6  C   UNL     1       3.634   4.163  17.073  0.00  0.00    +0.000 A 
ATOM      7  C   UNL     1       2.747   4.953  17.820  0.00  0.00    +0.000 A 
ATOM      8 CL   UNL     1       1.113   4.400  17.919  0.00  0.00    +0.000 Cl
ENDROOT
BRANCH   1  11
ATOM      9  N   UNL     1       2.017   8.297  18.967  0.00  0.00    +0.000 N 
ATOM     10  C   UNL     1       2.030   8.769  17.580  0.00  0.00    +0.000 C 
ATOM     11  C   UNL     1       2.342   6.971  19.312  0.00  0.00    +0.000 C 
ATOM     12  O   UNL     1       2.011   6.473  20.385  0.00  0.00    +0.000 OA
BRANCH   9  13
ATOM     13  C   UNL     1       1.201   9.042  19.933  0.00  0.00    +0.000 C 
BRANCH  13  18
ATOM     14  N   UNL     1       0.614  11.349  19.009  0.00  0.00    +0.000 N 
ATOM     15  N   UNL     1      -0.415  12.045  18.475  0.00  0.00    +0.000 NA
ATOM     16  C   UNL     1      -1.434  11.190  18.494  0.00  0.00    +0.000 A 
ATOM     17  C   UNL     1      -1.057   9.936  18.995  0.00  0.00    +0.000 A 
ATOM     18  C   UNL     1       0.291  10.040  19.295  0.00  0.00    +0.000 A 
BRANCH  14  20
ATOM     19  C   UNL     1       1.968  13.348  18.455  0.00  0.00    +0.000 C 
ATOM     20  C   UNL     1       1.829  12.093  19.297  0.00  0.00    +0.000 C 
ENDBRANCH  14  20
ENDBRANCH  13  18
ENDBRANCH   9  13
ENDBRANCH   1  11
BRANCH   3  21
ATOM     21  S   UNL     1       6.897   6.600  16.887  0.00  0.00    +0.000 S 
ATOM     22  O   UNL     1       7.524   5.849  15.822  0.00  0.00    +0.000 OA
ATOM     23  O   UNL     1       6.542   7.992  16.668  0.00  0.00    +0.000 OA
BRANCH  21  24
ATOM     24  N   UNL     1       7.870   6.523  18.266  0.00  0.00    +0.000 NA
ATOM     25  C   UNL     1       8.441   7.773  18.785  0.00  0.00    +0.000 C 
ATOM     26  C   UNL     1       7.478   5.564  19.309  0.00  0.00    +0.000 C 
ENDBRANCH  21  24
ENDBRANCH   3  21
TORSDOF 6
ENDMDL
MODEL 3
REMARK VINA RESULT:      -6.4      1.259      2.152
REMARK  Name = 
REMARK  10 active torsions:
REMARK  status: ('A' for Active; 'I' for Inactive)
REMARK    1  A    between atoms: C_1  and  C_2
REMARK    2  A    between atoms: C_2  and  N_3
REMARK    3  A    between atoms: C_7  and  C_8
REMARK    4  A    between atoms: C_8  and  N_9
REMARK    5  A    between atoms: N_9  and  C_10
REMARK    6  A    between atoms: C_11  and  C_13
REMARK    7  A    between atoms: C_15  and  S_16
REMARK    8  A    between atoms: S_16  and  N_19
REMARK    9  A    between atoms: N_19  and  C_20
REMARK   10  A    between atoms: N_19  and  C_21
REMARK                            x       y       z     vdW  Elec       q    Type
REMARK                         _______ _______ _______ _____ _____    ______ ____
ROOT
ATOM      1  C   UNL     1       2.499   7.153  19.048  0.00  0.00    +0.000 A 
ATOM      2  C   UNL     1       1.955   8.421  18.809  0.00  0.00    +0.000 A 
ATOM      3  C   UNL     1       1.145   9.068  19.760  0.00  0.00    +0.000 A 
ATOM      4  C   UNL     1       0.771   8.390  20.918  0.00  0.00    +0.000 A 
ATOM      5 CL   UNL     1      -0.361   8.976  22.078  0.00  0.00    +0.000 Cl
ATOM      6  C   UNL     1       1.285   7.107  21.150  0.00  0.00    +0.000 A 
ATOM      7  C   UNL     1       2.167   6.501  20.242  0.00  0.00    +0.000 A 
ATOM      8 CL   UNL     1       2.830   4.975  20.708  0.00  0.00    +0.000 Cl
ENDROOT
BRANCH   1  11
ATOM      9  N   UNL     1       3.121   5.173  17.624  0.00  0.00    +0.000 N 
ATOM     10  C   UNL     1       1.843   4.495  17.853  0.00  0.00    +0.000 C 
ATOM     11  C   UNL     1       3.332   6.519  17.983  0.00  0.00    +0.000 C 
ATOM     12  O   UNL     1       4.240   7.191  17.502  0.00  0.00    +0.000 OA
BRANCH   9  13
ATOM     13  C   UNL     1       4.007   4.627  16.589  0.00  0.00    +0.000 C 
BRANCH  13  18
ATOM     14  N   UNL     1       6.488   4.937  16.070  0.00  0.00    +0.000 N 
ATOM     15  N   UNL     1       7.705   4.903  16.658  0.00  0.00    +0.000 NA
ATOM     16  C   UNL     1       7.451   4.562  17.919  0.00  0.00    +0.000 A 
ATOM     17  C   UNL     1       6.076   4.420  18.156  0.00  0.00    +0.000 A 
ATOM     18  C   UNL     1       5.455   4.701  16.950  0.00  0.00    +0.000 A 
BRANCH  14  20
ATOM     19  C   UNL     1       6.228   3.791  13.889  0.00  0.00    +0.000 C 
ATOM     20  C   UNL     1       6.463   5.097  14.625  0.00  0.00    +0.000 C 
ENDBRANCH  14  20
ENDBRANCH  13  18
ENDBRANCH   9  13
ENDBRANCH   1  11
BRANCH   3  21
ATOM     21  S   UNL     1       0.866  10.809  19.495  0.00  0.00    +0.000 S 
ATOM     22  O   UNL     1       1.185  11.534  20.703  0.00  0.00    +0.000 OA
ATOM     23  O   UNL     1       1.559  11.136  18.259  0.00  0.00    +0.000 OA
BRANCH  21  24
ATOM     24  N   UNL     1      -0.794  10.920  19.204  0.00  0.00    +0.000 NA
ATOM     25  C   UNL     1      -1.505  12.115  19.679  0.00  0.00    +0.000 C 
ATOM     26  C   UNL     1      -1.285  10.402  17.919  0.00  0.00    +0.000 C 
ENDBRANCH  21  24
ENDBRANCH   3  21
TORSDOF 6
ENDMDL
MODEL 4
REMARK VINA RESULT:      -6.4      2.682      7.277
REMARK  Name = 
REMARK  10 active torsions:
REMARK  status: ('A' for Active; 'I' for Inactive)
REMARK    1  A    between atoms: C_1  and  C_2
REMARK    2  A    between atoms: C_2  and  N_3
REMARK    3  A    between atoms: C_7  and  C_8
REMARK    4  A    between atoms: C_8  and  N_9
REMARK    5  A    between atoms: N_9  and  C_10
REMARK    6  A    between atoms: C_11  and  C_13
REMARK    7  A    between atoms: C_15  and  S_16
REMARK    8  A    between atoms: S_16  and  N_19
REMARK    9  A    between atoms: N_19  and  C_20
REMARK   10  A    between atoms: N_19  and  C_21
REMARK                            x       y       z     vdW  Elec       q    Type
REMARK                         _______ _______ _______ _____ _____    ______ ____
ROOT
ATOM      1  C   UNL     1       2.603   6.130  19.023  0.00  0.00    +0.000 A 
ATOM      2  C   UNL     1       3.690   6.364  18.173  0.00  0.00    +0.000 A 
ATOM      3  C   UNL     1       4.287   5.325  17.435  0.00  0.00    +0.000 A 
ATOM      4  C   UNL     1       3.872   4.012  17.640  0.00  0.00    +0.000 A 
ATOM      5 CL   UNL     1       4.628   2.623  16.956  0.00  0.00    +0.000 Cl
ATOM      6  C   UNL     1       2.804   3.765  18.515  0.00  0.00    +0.000 A 
ATOM      7  C   UNL     1       2.151   4.814  19.180  0.00  0.00    +0.000 A 
ATOM      8 CL   UNL     1       0.770   4.389  20.127  0.00  0.00    +0.000 Cl
ENDROOT
BRANCH   1  11
ATOM      9  N   UNL     1       1.856   8.530  19.170  0.00  0.00    +0.000 N 
ATOM     10  C   UNL     1       1.718   8.667  17.718  0.00  0.00    +0.000 C 
ATOM     11  C   UNL     1       2.036   7.279  19.792  0.00  0.00    +0.000 C 
ATOM     12  O   UNL     1       1.810   7.102  20.986  0.00  0.00    +0.000 OA
BRANCH   9  13
ATOM     13  C   UNL     1       1.321   9.606  20.012  0.00  0.00    +0.000 C 
BRANCH  13  18
ATOM     14  N   UNL     1       0.552  11.754  18.865  0.00  0.00    +0.000 N 
ATOM     15  N   UNL     1      -0.539  12.323  18.304  0.00  0.00    +0.000 NA
ATOM     16  C   UNL     1      -1.499  11.415  18.462  0.00  0.00    +0.000 A 
ATOM     17  C   UNL     1      -1.022  10.250  19.080  0.00  0.00    +0.000 A 
ATOM     18  C   UNL     1       0.326  10.469  19.308  0.00  0.00    +0.000 A 
BRANCH  14  20
ATOM     19  C   UNL     1       1.815  13.250  20.384  0.00  0.00    +0.000 C 
ATOM     20  C   UNL     1       1.725  12.599  19.016  0.00  0.00    +0.000 C 
ENDBRANCH  14  20
ENDBRANCH  13  18
ENDBRANCH   9  13
ENDBRANCH   1  11
BRANCH   3  21
ATOM     21  S   UNL     1       5.372   5.828  16.113  0.00  0.00    +0.000 S 
ATOM     22  O   UNL     1       5.393   4.803  15.095  0.00  0.00    +0.000 OA
ATOM     23  O   UNL     1       4.966   7.179  15.761  0.00  0.00    +0.000 OA
BRANCH  21  24
ATOM     24  N   UNL     1       6.894   5.917  16.841  0.00  0.00    +0.000 NA
ATOM     25  C   UNL     1       7.285   7.180  17.483  0.00  0.00    +0.000 C 
ATOM     26  C   UNL     1       7.374   4.716  17.539  0.00  0.00    +0.000 C 
ENDBRANCH  21  24
ENDBRANCH   3  21
TORSDOF 6
ENDMDL
MODEL 5
REMARK VINA RESULT:      -6.3      7.384     11.896
REMARK  Name = 
REMARK  10 active torsions:
REMARK  status: ('A' for Active; 'I' for Inactive)
REMARK    1  A    between atoms: C_1  and  C_2
REMARK    2  A    between atoms: C_2  and  N_3
REMARK    3  A    between atoms: C_7  and  C_8
REMARK    4  A    between atoms: C_8  and  N_9
REMARK    5  A    between atoms: N_9  and  C_10
REMARK    6  A    between atoms: C_11  and  C_13
REMARK    7  A    between atoms: C_15  and  S_16
REMARK    8  A    between atoms: S_16  and  N_19
REMARK    9  A    between atoms: N_19  and  C_20
REMARK   10  A    between atoms: N_19  and  C_21
REMARK                            x       y       z     vdW  Elec       q    Type
REMARK                         _______ _______ _______ _____ _____    ______ ____
ROOT
ATOM      1  C   UNL     1      -5.096  12.333  19.464  0.00  0.00    +0.000 A 
ATOM      2  C   UNL     1      -3.732  12.023  19.504  0.00  0.00    +0.000 A 
ATOM      3  C   UNL     1      -3.026  11.654  18.345  0.00  0.00    +0.000 A 
ATOM      4  C   UNL     1      -3.715  11.472  17.149  0.00  0.00    +0.000 A 
ATOM      5 CL   UNL     1      -3.025  10.844  15.700  0.00  0.00    +0.000 Cl
ATOM      6  C   UNL     1      -5.089  11.749  17.108  0.00  0.00    +0.000 A 
ATOM      7  C   UNL     1      -5.774  12.205  18.245  0.00  0.00    +0.000 A 
ATOM      8 CL   UNL     1      -7.433  12.634  18.029  0.00  0.00    +0.000 Cl
ENDROOT
BRANCH   1  11
ATOM      9  N   UNL     1      -5.733  14.017  21.223  0.00  0.00    +0.000 N 
ATOM     10  C   UNL     1      -5.482  15.162  20.344  0.00  0.00    +0.000 C 
ATOM     11  C   UNL     1      -5.786  12.696  20.740  0.00  0.00    +0.000 C 
ATOM     12  O   UNL     1      -6.322  11.788  21.369  0.00  0.00    +0.000 OA
BRANCH   9  13
ATOM     13  C   UNL     1      -6.413  14.273  22.499  0.00  0.00    +0.000 C 
BRANCH  13  18
ATOM     14  N   UNL     1      -4.442  14.891  23.999  0.00  0.00    +0.000 N 
ATOM     15  N   UNL     1      -3.998  15.877  24.811  0.00  0.00    +0.000 NA
ATOM     16  C   UNL     1      -4.976  16.779  24.796  0.00  0.00    +0.000 A 
ATOM     17  C   UNL     1      -6.025  16.401  23.947  0.00  0.00    +0.000 A 
ATOM     18  C   UNL     1      -5.650  15.183  23.405  0.00  0.00    +0.000 A 
BRANCH  14  20
ATOM     19  C   UNL     1      -4.326  12.520  24.706  0.00  0.00    +0.000 C 
ATOM     20  C   UNL     1      -3.660  13.666  23.968  0.00  0.00    +0.000 C 
ENDBRANCH  14  20
ENDBRANCH  13  18
ENDBRANCH   9  13
ENDBRANCH   1  11
BRANCH   3  21
ATOM     21  S   UNL     1      -1.247  11.685  18.470  0.00  0.00    +0.000 S 
ATOM     22  O   UNL     1      -0.716  10.402  18.071  0.00  0.00    +0.000 OA
ATOM     23  O   UNL     1      -0.824  12.885  17.767  0.00  0.00    +0.000 OA
BRANCH  21  24
ATOM     24  N   UNL     1      -0.954  11.919  20.117  0.00  0.00    +0.000 NA
ATOM     25  C   UNL     1      -0.560  10.757  20.925  0.00  0.00    +0.000 C 
ATOM     26  C   UNL     1      -0.294  13.173  20.508  0.00  0.00    +0.000 C 
ENDBRANCH  21  24
ENDBRANCH   3  21
TORSDOF 6
ENDMDL
MODEL 6
REMARK VINA RESULT:      -6.3      3.021      7.563
REMARK  Name = 
REMARK  10 active torsions:
REMARK  status: ('A' for Active; 'I' for Inactive)
REMARK    1  A    between atoms: C_1  and  C_2
REMARK    2  A    between atoms: C_2  and  N_3
REMARK    3  A    between atoms: C_7  and  C_8
REMARK    4  A    between atoms: C_8  and  N_9
REMARK    5  A    between atoms: N_9  and  C_10
REMARK    6  A    between atoms: C_11  and  C_13
REMARK    7  A    between atoms: C_15  and  S_16
REMARK    8  A    between atoms: S_16  and  N_19
REMARK    9  A    between atoms: N_19  and  C_20
REMARK   10  A    between atoms: N_19  and  C_21
REMARK                            x       y       z     vdW  Elec       q    Type
REMARK                         _______ _______ _______ _____ _____    ______ ____
ROOT
ATOM      1  C   UNL     1       3.080   5.570  18.543  0.00  0.00    +0.000 A 
ATOM      2  C   UNL     1       4.349   6.036  18.179  0.00  0.00    +0.000 A 
ATOM      3  C   UNL     1       5.114   5.392  17.190  0.00  0.00    +0.000 A 
ATOM      4  C   UNL     1       4.660   4.196  16.639  0.00  0.00    +0.000 A 
ATOM      5 CL   UNL     1       5.566   3.201  15.563  0.00  0.00    +0.000 Cl
ATOM      6  C   UNL     1       3.403   3.706  17.022  0.00  0.00    +0.000 A 
ATOM      7  C   UNL     1       2.602   4.399  17.943  0.00  0.00    +0.000 A 
ATOM      8 CL   UNL     1       1.023   3.758  18.230  0.00  0.00    +0.000 Cl
ENDROOT
BRANCH   1  11
ATOM      9  N   UNL     1       2.133   7.683  19.531  0.00  0.00    +0.000 N 
ATOM     10  C   UNL     1       2.161   8.398  18.253  0.00  0.00    +0.000 C 
ATOM     11  C   UNL     1       2.334   6.292  19.618  0.00  0.00    +0.000 C 
ATOM     12  O   UNL     1       1.981   5.638  20.596  0.00  0.00    +0.000 OA
BRANCH   9  13
ATOM     13  C   UNL     1       1.417   8.310  20.649  0.00  0.00    +0.000 C 
BRANCH  13  18
ATOM     14  N   UNL     1      -0.231  10.214  21.072  0.00  0.00    +0.000 N 
ATOM     15  N   UNL     1      -0.967  11.142  20.418  0.00  0.00    +0.000 NA
ATOM     16  C   UNL     1      -0.722  10.908  19.132  0.00  0.00    +0.000 A 
ATOM     17  C   UNL     1       0.199   9.866  18.955  0.00  0.00    +0.000 A 
ATOM     18  C   UNL     1       0.539   9.443  20.228  0.00  0.00    +0.000 A 
BRANCH  14  20
ATOM     19  C   UNL     1      -1.262  11.243  23.076  0.00  0.00    +0.000 C 
ATOM     20  C   UNL     1      -0.447  10.097  22.504  0.00  0.00    +0.000 C 
ENDBRANCH  14  20
ENDBRANCH  13  18
ENDBRANCH   9  13
ENDBRANCH   1  11
BRANCH   3  21
ATOM     21  S   UNL     1       6.504   6.312  16.555  0.00  0.00    +0.000 S 
ATOM     22  O   UNL     1       6.830   5.833  15.231  0.00  0.00    +0.000 OA
ATOM     23  O   UNL     1       6.170   7.714  16.748  0.00  0.00    +0.000 OA
BRANCH  21  24
ATOM     24  N   UNL     1       7.767   5.930  17.609  0.00  0.00    +0.000 NA
ATOM     25  C   UNL     1       8.093   6.882  18.679  0.00  0.00    +0.000 C 
ATOM     26  C   UNL     1       7.911   4.519  17.997  0.00  0.00    +0.000 C 
ENDBRANCH  21  24
ENDBRANCH   3  21
TORSDOF 6
ENDMDL
MODEL 7
REMARK VINA RESULT:      -6.3      3.320      7.457
REMARK  Name = 
REMARK  10 active torsions:
REMARK  status: ('A' for Active; 'I' for Inactive)
REMARK    1  A    between atoms: C_1  and  C_2
REMARK    2  A    between atoms: C_2  and  N_3
REMARK    3  A    between atoms: C_7  and  C_8
REMARK    4  A    between atoms: C_8  and  N_9
REMARK    5  A    between atoms: N_9  and  C_10
REMARK    6  A    between atoms: C_11  and  C_13
REMARK    7  A    between atoms: C_15  and  S_16
REMARK    8  A    between atoms: S_16  and  N_19
REMARK    9  A    between atoms: N_19  and  C_20
REMARK   10  A    between atoms: N_19  and  C_21
REMARK                            x       y       z     vdW  Elec       q    Type
REMARK                         _______ _______ _______ _____ _____    ______ ____
ROOT
ATOM      1  C   UNL     1       3.365   5.359  18.778  0.00  0.00    +0.000 A 
ATOM      2  C   UNL     1       4.756   5.439  18.915  0.00  0.00    +0.000 A 
ATOM      3  C   UNL     1       5.624   4.822  17.996  0.00  0.00    +0.000 A 
ATOM      4  C   UNL     1       5.099   4.012  16.993  0.00  0.00    +0.000 A 
ATOM      5 CL   UNL     1       6.036   3.046  15.916  0.00  0.00    +0.000 Cl
ATOM      6  C   UNL     1       3.707   3.900  16.868  0.00  0.00    +0.000 A 
ATOM      7  C   UNL     1       2.841   4.591  17.731  0.00  0.00    +0.000 A 
ATOM      8 CL   UNL     1       1.152   4.473  17.390  0.00  0.00    +0.000 Cl
ENDROOT
BRANCH   1  11
ATOM      9  N   UNL     1       2.213   7.395  19.707  0.00  0.00    +0.000 N 
ATOM     10  C   UNL     1       2.269   8.117  18.433  0.00  0.00    +0.000 C 
ATOM     11  C   UNL     1       2.505   6.021  19.805  0.00  0.00    +0.000 C 
ATOM     12  O   UNL     1       2.139   5.339  20.759  0.00  0.00    +0.000 OA
BRANCH   9  13
ATOM     13  C   UNL     1       1.386   7.964  20.778  0.00  0.00    +0.000 C 
BRANCH  13  18
ATOM     14  N   UNL     1       0.268  10.197  21.314  0.00  0.00    +0.000 N 
ATOM     15  N   UNL     1      -0.270  11.283  20.714  0.00  0.00    +0.000 NA
ATOM     16  C   UNL     1      -0.175  11.018  19.413  0.00  0.00    +0.000 A 
ATOM     17  C   UNL     1       0.459   9.791  19.173  0.00  0.00    +0.000 A 
ATOM     18  C   UNL     1       0.775   9.280  20.420  0.00  0.00    +0.000 A 
BRANCH  14  20
ATOM     19  C   UNL     1      -1.240  10.541  23.249  0.00  0.00    +0.000 C 
ATOM     20  C   UNL     1       0.130  10.112  22.759  0.00  0.00    +0.000 C 
ENDBRANCH  14  20
ENDBRANCH  13  18
ENDBRANCH   9  13
ENDBRANCH   1  11
BRANCH   3  21
ATOM     21  S   UNL     1       7.329   5.338  18.063  0.00  0.00    +0.000 S 
ATOM     22  O   UNL     1       7.714   5.543  19.441  0.00  0.00    +0.000 OA
ATOM     23  O   UNL     1       8.063   4.383  17.249  0.00  0.00    +0.000 OA
BRANCH  21  24
ATOM     24  N   UNL     1       7.342   6.824  17.258  0.00  0.00    +0.000 NA
ATOM     25  C   UNL     1       6.132   7.231  16.532  0.00  0.00    +0.000 C 
ATOM     26  C   UNL     1       8.052   7.933  17.910  0.00  0.00    +0.000 C 
ENDBRANCH  21  24
ENDBRANCH   3  21
TORSDOF 6
ENDMDL
MODEL 8
REMARK VINA RESULT:      -6.2      2.890      7.531
REMARK  Name = 
REMARK  10 active torsions:
REMARK  status: ('A' for Active; 'I' for Inactive)
REMARK    1  A    between atoms: C_1  and  C_2
REMARK    2  A    between atoms: C_2  and  N_3
REMARK    3  A    between atoms: C_7  and  C_8
REMARK    4  A    between atoms: C_8  and  N_9
REMARK    5  A    between atoms: N_9  and  C_10
REMARK    6  A    between atoms: C_11  and  C_13
REMARK    7  A    between atoms: C_15  and  S_16
REMARK    8  A    between atoms: S_16  and  N_19
REMARK    9  A    between atoms: N_19  and  C_20
REMARK   10  A    between atoms: N_19  and  C_21
REMARK                            x       y       z     vdW  Elec       q    Type
REMARK                         _______ _______ _______ _____ _____    ______ ____
ROOT
ATOM      1  C   UNL     1       3.103   6.008  18.330  0.00  0.00    +0.000 A 
ATOM      2  C   UNL     1       4.424   6.385  18.063  0.00  0.00    +0.000 A 
ATOM      3  C   UNL     1       5.247   5.631  17.207  0.00  0.00    +0.000 A 
ATOM      4  C   UNL     1       4.786   4.417  16.704  0.00  0.00    +0.000 A 
ATOM      5 CL   UNL     1       5.738   3.299  15.802  0.00  0.00    +0.000 Cl
ATOM      6  C   UNL     1       3.473   4.016  16.993  0.00  0.00    +0.000 A 
ATOM      7  C   UNL     1       2.624   4.816  17.773  0.00  0.00    +0.000 A 
ATOM      8 CL   UNL     1       0.993   4.272  17.947  0.00  0.00    +0.000 Cl
ENDROOT
BRANCH   1  11
ATOM      9  N   UNL     1       2.016   8.191  18.956  0.00  0.00    +0.000 N 
ATOM     10  C   UNL     1       2.029   8.693  17.580  0.00  0.00    +0.000 C 
ATOM     11  C   UNL     1       2.295   6.846  19.267  0.00  0.00    +0.000 C 
ATOM     12  O   UNL     1       1.960   6.336  20.333  0.00  0.00    +0.000 OA
BRANCH   9  13
ATOM     13  C   UNL     1       1.242   8.944  19.951  0.00  0.00    +0.000 C 
BRANCH  13  18
ATOM     14  N   UNL     1      -0.275  10.708  18.900  0.00  0.00    +0.000 N 
ATOM     15  N   UNL     1      -0.300  12.018  18.562  0.00  0.00    +0.000 NA
ATOM     16  C   UNL     1       0.909  12.464  18.891  0.00  0.00    +0.000 A 
ATOM     17  C   UNL     1       1.696  11.463  19.477  0.00  0.00    +0.000 A 
ATOM     18  C   UNL     1       0.901  10.330  19.510  0.00  0.00    +0.000 A 
BRANCH  14  20
ATOM     19  C   UNL     1      -2.532  10.726  17.878  0.00  0.00    +0.000 C 
ATOM     20  C   UNL     1      -1.407   9.901  18.477  0.00  0.00    +0.000 C 
ENDBRANCH  14  20
ENDBRANCH  13  18
ENDBRANCH   9  13
ENDBRANCH   1  11
BRANCH   3  21
ATOM     21  S   UNL     1       6.738   6.433  16.649  0.00  0.00    +0.000 S 
ATOM     22  O   UNL     1       7.119   5.895  15.363  0.00  0.00    +0.000 OA
ATOM     23  O   UNL     1       6.493   7.860  16.785  0.00  0.00    +0.000 OA
BRANCH  21  24
ATOM     24  N   UNL     1       7.896   5.994  17.798  0.00  0.00    +0.000 NA
ATOM     25  C   UNL     1       8.209   6.949  18.870  0.00  0.00    +0.000 C 
ATOM     26  C   UNL     1       7.919   4.588  18.223  0.00  0.00    +0.000 C 
ENDBRANCH  21  24
ENDBRANCH   3  21
TORSDOF 6
ENDMDL
MODEL 9
REMARK VINA RESULT:      -6.2      2.650      7.304
REMARK  Name = 
REMARK  10 active torsions:
REMARK  status: ('A' for Active; 'I' for Inactive)
REMARK    1  A    between atoms: C_1  and  C_2
REMARK    2  A    between atoms: C_2  and  N_3
REMARK    3  A    between atoms: C_7  and  C_8
REMARK    4  A    between atoms: C_8  and  N_9
REMARK    5  A    between atoms: N_9  and  C_10
REMARK    6  A    between atoms: C_11  and  C_13
REMARK    7  A    between atoms: C_15  and  S_16
REMARK    8  A    between atoms: S_16  and  N_19
REMARK    9  A    between atoms: N_19  and  C_20
REMARK   10  A    between atoms: N_19  and  C_21
REMARK                            x       y       z     vdW  Elec       q    Type
REMARK                         _______ _______ _______ _____ _____    ______ ____
ROOT
ATOM      1  C   UNL     1       2.594   6.326  19.039  0.00  0.00    +0.000 A 
ATOM      2  C   UNL     1       3.663   6.600  18.178  0.00  0.00    +0.000 A 
ATOM      3  C   UNL     1       4.285   5.585  17.428  0.00  0.00    +0.000 A 
ATOM      4  C   UNL     1       3.915   4.258  17.629  0.00  0.00    +0.000 A 
ATOM      5 CL   UNL     1       4.709   2.898  16.929  0.00  0.00    +0.000 Cl
ATOM      6  C   UNL     1       2.867   3.971  18.515  0.00  0.00    +0.000 A 
ATOM      7  C   UNL     1       2.187   4.995  19.193  0.00  0.00    +0.000 A 
ATOM      8 CL   UNL     1       0.831   4.520  20.153  0.00  0.00    +0.000 Cl
ENDROOT
BRANCH   1  11
ATOM      9  N   UNL     1       1.658   8.659  19.180  0.00  0.00    +0.000 N 
ATOM     10  C   UNL     1       1.384   8.730  17.743  0.00  0.00    +0.000 C 
ATOM     11  C   UNL     1       1.998   7.451  19.821  0.00  0.00    +0.000 C 
ATOM     12  O   UNL     1       1.892   7.301  21.035  0.00  0.00    +0.000 OA
BRANCH   9  13
ATOM     13  C   UNL     1       1.107   9.718  20.034  0.00  0.00    +0.000 C 
BRANCH  13  18
ATOM     14  N   UNL     1      -0.194  11.598  18.898  0.00  0.00    +0.000 N 
ATOM     15  N   UNL     1      -0.011  12.776  18.258  0.00  0.00    +0.000 NA
ATOM     16  C   UNL     1       1.310  12.927  18.221  0.00  0.00    +0.000 A 
ATOM     17  C   UNL     1       1.976  11.878  18.870  0.00  0.00    +0.000 A 
ATOM     18  C   UNL     1       0.983  11.034  19.339  0.00  0.00    +0.000 A 
BRANCH  14  20
ATOM     19  C   UNL     1      -1.918  10.337  17.643  0.00  0.00    +0.000 C 
ATOM     20  C   UNL     1      -1.547  11.068  18.920  0.00  0.00    +0.000 C 
ENDBRANCH  14  20
ENDBRANCH  13  18
ENDBRANCH   9  13
ENDBRANCH   1  11
BRANCH   3  21
ATOM     21  S   UNL     1       5.338   6.131  16.097  0.00  0.00    +0.000 S 
ATOM     22  O   UNL     1       5.393   5.106  15.079  0.00  0.00    +0.000 OA
ATOM     23  O   UNL     1       4.874   7.463  15.747  0.00  0.00    +0.000 OA
BRANCH  21  24
ATOM     24  N   UNL     1       6.861   6.283  16.813  0.00  0.00    +0.000 NA
ATOM     25  C   UNL     1       7.206   7.562  17.448  0.00  0.00    +0.000 C 
ATOM     26  C   UNL     1       7.394   5.104  17.509  0.00  0.00    +0.000 C 
ENDBRANCH  21  24
ENDBRANCH   3  21
TORSDOF 6
ENDMDL
