MODEL 1
REMARK VINA RESULT:      -6.1      0.000      0.000
REMARK  Name = 
REMARK  8 active torsions:
REMARK  status: ('A' for Active; 'I' for Inactive)
REMARK    1  A    between atoms: C_2  and  C_3
REMARK    2  A    between atoms: C_2  and  O_4
REMARK    3  A    between atoms: O_4  and  C_5
REMARK    4  A    between atoms: C_10  and  O_11
REMARK    5  A    between atoms: O_11  and  C_12
REMARK    6  A    between atoms: C_19  and  C_20
REMARK    7  A    between atoms: C_20  and  S_21
REMARK    8  A    between atoms: S_21  and  C_22
REMARK                            x       y       z     vdW  Elec       q    Type
REMARK                         _______ _______ _______ _____ _____    ______ ____
ROOT
ATOM      1  C   UNL     1       5.454   6.043  16.115  0.00  0.00    +0.000 C 
ATOM      2  O   UNL     1       4.907   6.756  15.275  0.00  0.00    +0.000 OA
ATOM      3  N   UNL     1       4.957   5.805  17.406  0.00  0.00    +0.000 N 
ATOM      4  C   UNL     1       3.838   6.517  17.953  0.00  0.00    +0.000 A 
ATOM      5  C   UNL     1       3.461   7.786  17.512  0.00  0.00    +0.000 A 
ATOM      6  C   UNL     1       2.383   8.468  18.091  0.00  0.00    +0.000 A 
ATOM      7  C   UNL     1       1.644   7.859  19.106  0.00  0.00    +0.000 A 
ATOM      8  C   UNL     1       2.005   6.590  19.560  0.00  0.00    +0.000 A 
ATOM      9  C   UNL     1       3.107   5.939  19.010  0.00  0.00    +0.000 A 
ATOM     10  N   UNL     1       3.456   4.683  19.509  0.00  0.00    +0.000 N 
ATOM     11  C   UNL     1       4.603   4.035  19.134  0.00  0.00    +0.000 C 
ATOM     12  O   UNL     1       4.843   2.909  19.567  0.00  0.00    +0.000 OA
ATOM     13  C   UNL     1       5.622   4.860  18.337  0.00  0.00    +0.000 C 
ATOM     14  H   UNL     1       2.863   4.196  20.166  0.00  0.00    +0.000 HD
ENDROOT
BRANCH   6  15
ATOM     15  O   UNL     1       2.176   9.719  17.583  0.00  0.00    +0.000 OA
ATOM     16  C   UNL     1       1.648  10.702  18.463  0.00  0.00    +0.000 C 
ENDBRANCH   6  15
BRANCH   1  17
ATOM     17  O   UNL     1       6.640   5.377  15.870  0.00  0.00    +0.000 OA
BRANCH  17  19
ATOM     18  C   UNL     1       6.016   3.660  14.332  0.00  0.00    +0.000 C 
ATOM     19  C   UNL     1       6.793   4.711  14.619  0.00  0.00    +0.000 C 
ATOM     20  C   UNL     1       7.743   5.306  13.618  0.00  0.00    +0.000 C 
ENDBRANCH  17  19
ENDBRANCH   1  17
BRANCH  13  21
ATOM     21  C   UNL     1       6.542   5.652  19.292  0.00  0.00    +0.000 C 
BRANCH  21  22
ATOM     22  S   UNL     1       8.229   6.022  18.692  0.00  0.00    +0.000 S 
ATOM     23  C   UNL     1       7.985   7.725  18.141  0.00  0.00    +0.000 C 
ENDBRANCH  21  22
ENDBRANCH  13  21
TORSDOF 5
ENDMDL
MODEL 2
REMARK VINA RESULT:      -5.8      2.262      5.751
REMARK  Name = 
REMARK  8 active torsions:
REMARK  status: ('A' for Active; 'I' for Inactive)
REMARK    1  A    between atoms: C_2  and  C_3
REMARK    2  A    between atoms: C_2  and  O_4
REMARK    3  A    between atoms: O_4  and  C_5
REMARK    4  A    between atoms: C_10  and  O_11
REMARK    5  A    between atoms: O_11  and  C_12
REMARK    6  A    between atoms: C_19  and  C_20
REMARK    7  A    between atoms: C_20  and  S_21
REMARK    8  A    between atoms: S_21  and  C_22
REMARK                            x       y       z     vdW  Elec       q    Type
REMARK                         _______ _______ _______ _____ _____    ______ ____
ROOT
ATOM      1  C   UNL     1       2.749   7.747  17.733  0.00  0.00    +0.000 C 
ATOM      2  O   UNL     1       3.478   8.503  17.093  0.00  0.00    +0.000 OA
ATOM      3  N   UNL     1       3.124   6.475  18.194  0.00  0.00    +0.000 N 
ATOM      4  C   UNL     1       4.350   5.839  17.809  0.00  0.00    +0.000 A 
ATOM      5  C   UNL     1       5.023   6.147  16.626  0.00  0.00    +0.000 A 
ATOM      6  C   UNL     1       6.202   5.482  16.263  0.00  0.00    +0.000 A 
ATOM      7  C   UNL     1       6.740   4.516  17.114  0.00  0.00    +0.000 A 
ATOM      8  C   UNL     1       6.083   4.195  18.302  0.00  0.00    +0.000 A 
ATOM      9  C   UNL     1       4.887   4.828  18.631  0.00  0.00    +0.000 A 
ATOM     10  N   UNL     1       4.242   4.460  19.814  0.00  0.00    +0.000 N 
ATOM     11  C   UNL     1       2.995   4.921  20.145  0.00  0.00    +0.000 C 
ATOM     12  O   UNL     1       2.489   4.604  21.221  0.00  0.00    +0.000 OA
ATOM     13  C   UNL     1       2.224   5.654  19.042  0.00  0.00    +0.000 C 
ATOM     14  H   UNL     1       4.682   3.842  20.481  0.00  0.00    +0.000 HD
ENDROOT
BRANCH   6  15
ATOM     15  O   UNL     1       6.707   5.862  15.052  0.00  0.00    +0.000 OA
ATOM     16  C   UNL     1       6.979   4.836  14.108  0.00  0.00    +0.000 C 
ENDBRANCH   6  15
BRANCH   1  17
ATOM     17  O   UNL     1       1.454   8.080  18.086  0.00  0.00    +0.000 OA
BRANCH  17  19
ATOM     18  C   UNL     1       1.052  10.394  18.518  0.00  0.00    +0.000 C 
ATOM     19  C   UNL     1       1.260   9.162  18.995  0.00  0.00    +0.000 C 
ATOM     20  C   UNL     1       1.173   8.840  20.460  0.00  0.00    +0.000 C 
ENDBRANCH  17  19
ENDBRANCH   1  17
BRANCH  13  21
ATOM     21  C   UNL     1       1.467   4.646  18.149  0.00  0.00    +0.000 C 
BRANCH  21  22
ATOM     22  S   UNL     1       1.285   2.946  18.798  0.00  0.00    +0.000 S 
ATOM     23  C   UNL     1       2.502   2.099  17.766  0.00  0.00    +0.000 C 
ENDBRANCH  21  22
ENDBRANCH  13  21
TORSDOF 5
ENDMDL
MODEL 3
REMARK VINA RESULT:      -5.5      6.121      9.568
REMARK  Name = 
REMARK  8 active torsions:
REMARK  status: ('A' for Active; 'I' for Inactive)
REMARK    1  A    between atoms: C_2  and  C_3
REMARK    2  A    between atoms: C_2  and  O_4
REMARK    3  A    between atoms: O_4  and  C_5
REMARK    4  A    between atoms: C_10  and  O_11
REMARK    5  A    between atoms: O_11  and  C_12
REMARK    6  A    between atoms: C_19  and  C_20
REMARK    7  A    between atoms: C_20  and  S_21
REMARK    8  A    between atoms: S_21  and  C_22
REMARK                            x       y       z     vdW  Elec       q    Type
REMARK                         _______ _______ _______ _____ _____    ______ ____
ROOT
ATOM      1  C   UNL     1      -1.709  12.857  20.474  0.00  0.00    +0.000 C 
ATOM      2  O   UNL     1      -2.672  13.587  20.248  0.00  0.00    +0.000 OA
ATOM      3  N   UNL     1      -1.332  11.763  19.679  0.00  0.00    +0.000 N 
ATOM      4  C   UNL     1      -2.143  11.265  18.606  0.00  0.00    +0.000 A 
ATOM      5  C   UNL     1      -3.525  11.453  18.552  0.00  0.00    +0.000 A 
ATOM      6  C   UNL     1      -4.292  10.924  17.507  0.00  0.00    +0.000 A 
ATOM      7  C   UNL     1      -3.666  10.223  16.476  0.00  0.00    +0.000 A 
ATOM      8  C   UNL     1      -2.286  10.025  16.511  0.00  0.00    +0.000 A 
ATOM      9  C   UNL     1      -1.537  10.514  17.579  0.00  0.00    +0.000 A 
ATOM     10  N   UNL     1      -0.162  10.272  17.595  0.00  0.00    +0.000 N 
ATOM     11  C   UNL     1       0.627  10.587  18.670  0.00  0.00    +0.000 C 
ATOM     12  O   UNL     1       1.841  10.395  18.617  0.00  0.00    +0.000 OA
ATOM     13  C   UNL     1      -0.103  10.980  19.960  0.00  0.00    +0.000 C 
ATOM     14  H   UNL     1       0.307   9.860  16.801  0.00  0.00    +0.000 HD
ENDROOT
BRANCH   6  15
ATOM     15  O   UNL     1      -5.634  11.152  17.628  0.00  0.00    +0.000 OA
ATOM     16  C   UNL     1      -6.050  12.094  18.606  0.00  0.00    +0.000 C 
ENDBRANCH   6  15
BRANCH   1  17
ATOM     17  O   UNL     1      -0.868  13.044  21.555  0.00  0.00    +0.000 OA
BRANCH  17  19
ATOM     18  C   UNL     1      -2.015  11.887  23.301  0.00  0.00    +0.000 C 
ATOM     19  C   UNL     1      -1.435  13.010  22.863  0.00  0.00    +0.000 C 
ATOM     20  C   UNL     1      -1.239  14.211  23.744  0.00  0.00    +0.000 C 
ENDBRANCH  17  19
ENDBRANCH   1  17
BRANCH  13  21
ATOM     21  C   UNL     1      -0.478   9.722  20.774  0.00  0.00    +0.000 C 
BRANCH  21  22
ATOM     22  S   UNL     1       0.788   9.080  21.928  0.00  0.00    +0.000 S 
ATOM     23  C   UNL     1       1.461   7.741  20.919  0.00  0.00    +0.000 C 
ENDBRANCH  21  22
ENDBRANCH  13  21
TORSDOF 5
ENDMDL
MODEL 4
REMARK VINA RESULT:      -5.5      6.363      9.380
REMARK  Name = 
REMARK  8 active torsions:
REMARK  status: ('A' for Active; 'I' for Inactive)
REMARK    1  A    between atoms: C_2  and  C_3
REMARK    2  A    between atoms: C_2  and  O_4
REMARK    3  A    between atoms: O_4  and  C_5
REMARK    4  A    between atoms: C_10  and  O_11
REMARK    5  A    between atoms: O_11  and  C_12
REMARK    6  A    between atoms: C_19  and  C_20
REMARK    7  A    between atoms: C_20  and  S_21
REMARK    8  A    between atoms: S_21  and  C_22
REMARK                            x       y       z     vdW  Elec       q    Type
REMARK                         _______ _______ _______ _____ _____    ______ ____
ROOT
ATOM      1  C   UNL     1      -0.909  12.915  20.106  0.00  0.00    +0.000 C 
ATOM      2  O   UNL     1      -1.734  13.798  19.878  0.00  0.00    +0.000 OA
ATOM      3  N   UNL     1      -0.832  11.695  19.416  0.00  0.00    +0.000 N 
ATOM      4  C   UNL     1      -1.831  11.266  18.480  0.00  0.00    +0.000 A 
ATOM      5  C   UNL     1      -3.150  11.721  18.521  0.00  0.00    +0.000 A 
ATOM      6  C   UNL     1      -4.109  11.257  17.612  0.00  0.00    +0.000 A 
ATOM      7  C   UNL     1      -3.740  10.347  16.621  0.00  0.00    +0.000 A 
ATOM      8  C   UNL     1      -2.426   9.881  16.563  0.00  0.00    +0.000 A 
ATOM      9  C   UNL     1      -1.490  10.313  17.500  0.00  0.00    +0.000 A 
ATOM     10  N   UNL     1      -0.193   9.803  17.429  0.00  0.00    +0.000 N 
ATOM     11  C   UNL     1       0.751  10.057  18.390  0.00  0.00    +0.000 C 
ATOM     12  O   UNL     1       1.894   9.622  18.259  0.00  0.00    +0.000 OA
ATOM     13  C   UNL     1       0.249  10.713  19.682  0.00  0.00    +0.000 C 
ATOM     14  H   UNL     1       0.104   9.230  16.653  0.00  0.00    +0.000 HD
ENDROOT
BRANCH   6  15
ATOM     15  O   UNL     1      -5.363  11.759  17.818  0.00  0.00    +0.000 OA
ATOM     16  C   UNL     1      -6.324  10.896  18.408  0.00  0.00    +0.000 C 
ENDBRANCH   6  15
BRANCH   1  17
ATOM     17  O   UNL     1       0.061  13.035  21.084  0.00  0.00    +0.000 OA
BRANCH  17  19
ATOM     18  C   UNL     1       0.242  15.004  22.423  0.00  0.00    +0.000 C 
ATOM     19  C   UNL     1      -0.257  13.773  22.261  0.00  0.00    +0.000 C 
ATOM     20  C   UNL     1      -1.251  13.176  23.216  0.00  0.00    +0.000 C 
ENDBRANCH  17  19
ENDBRANCH   1  17
BRANCH  13  21
ATOM     21  C   UNL     1      -0.271   9.643  20.666  0.00  0.00    +0.000 C 
BRANCH  21  22
ATOM     22  S   UNL     1       0.894   9.077  21.958  0.00  0.00    +0.000 S 
ATOM     23  C   UNL     1      -0.042   9.546  23.431  0.00  0.00    +0.000 C 
ENDBRANCH  21  22
ENDBRANCH  13  21
TORSDOF 5
ENDMDL
MODEL 5
REMARK VINA RESULT:      -5.4      7.560      9.868
REMARK  Name = 
REMARK  8 active torsions:
REMARK  status: ('A' for Active; 'I' for Inactive)
REMARK    1  A    between atoms: C_2  and  C_3
REMARK    2  A    between atoms: C_2  and  O_4
REMARK    3  A    between atoms: O_4  and  C_5
REMARK    4  A    between atoms: C_10  and  O_11
REMARK    5  A    between atoms: O_11  and  C_12
REMARK    6  A    between atoms: C_19  and  C_20
REMARK    7  A    between atoms: C_20  and  S_21
REMARK    8  A    between atoms: S_21  and  C_22
REMARK                            x       y       z     vdW  Elec       q    Type
REMARK                         _______ _______ _______ _____ _____    ______ ____
ROOT
ATOM      1  C   UNL     1      -0.643  10.714  19.940  0.00  0.00    +0.000 C 
ATOM      2  O   UNL     1      -0.355   9.785  19.186  0.00  0.00    +0.000 OA
ATOM      3  N   UNL     1      -1.780  11.527  19.809  0.00  0.00    +0.000 N 
ATOM      4  C   UNL     1      -2.645  11.476  18.665  0.00  0.00    +0.000 A 
ATOM      5  C   UNL     1      -2.218  11.028  17.414  0.00  0.00    +0.000 A 
ATOM      6  C   UNL     1      -3.080  11.023  16.309  0.00  0.00    +0.000 A 
ATOM      7  C   UNL     1      -4.402  11.440  16.462  0.00  0.00    +0.000 A 
ATOM      8  C   UNL     1      -4.848  11.890  17.705  0.00  0.00    +0.000 A 
ATOM      9  C   UNL     1      -3.971  11.936  18.787  0.00  0.00    +0.000 A 
ATOM     10  N   UNL     1      -4.444  12.419  20.008  0.00  0.00    +0.000 N 
ATOM     11  C   UNL     1      -3.621  12.636  21.081  0.00  0.00    +0.000 C 
ATOM     12  O   UNL     1      -4.094  13.020  22.150  0.00  0.00    +0.000 OA
ATOM     13  C   UNL     1      -2.113  12.571  20.808  0.00  0.00    +0.000 C 
ATOM     14  H   UNL     1      -5.424  12.620  20.149  0.00  0.00    +0.000 HD
ENDROOT
BRANCH   6  15
ATOM     15  O   UNL     1      -2.496  10.605  15.147  0.00  0.00    +0.000 OA
ATOM     16  C   UNL     1      -3.350  10.096  14.134  0.00  0.00    +0.000 C 
ENDBRANCH   6  15
BRANCH   1  17
ATOM     17  O   UNL     1       0.136  11.060  21.028  0.00  0.00    +0.000 OA
BRANCH  17  19
ATOM     18  C   UNL     1      -0.684  10.174  23.089  0.00  0.00    +0.000 C 
ATOM     19  C   UNL     1       0.229  10.137  22.111  0.00  0.00    +0.000 C 
ATOM     20  C   UNL     1       1.286   9.072  22.037  0.00  0.00    +0.000 C 
ENDBRANCH  17  19
ENDBRANCH   1  17
BRANCH  13  21
ATOM     21  C   UNL     1      -1.595  13.937  20.306  0.00  0.00    +0.000 C 
BRANCH  21  22
ATOM     22  S   UNL     1      -0.133  14.628  21.160  0.00  0.00    +0.000 S 
ATOM     23  C   UNL     1       0.997  14.765  19.757  0.00  0.00    +0.000 C 
ENDBRANCH  21  22
ENDBRANCH  13  21
TORSDOF 5
ENDMDL
MODEL 6
REMARK VINA RESULT:      -5.4      6.303      9.001
REMARK  Name = 
REMARK  8 active torsions:
REMARK  status: ('A' for Active; 'I' for Inactive)
REMARK    1  A    between atoms: C_2  and  C_3
REMARK    2  A    between atoms: C_2  and  O_4
REMARK    3  A    between atoms: O_4  and  C_5
REMARK    4  A    between atoms: C_10  and  O_11
REMARK    5  A    between atoms: O_11  and  C_12
REMARK    6  A    between atoms: C_19  and  C_20
REMARK    7  A    between atoms: C_20  and  S_21
REMARK    8  A    between atoms: S_21  and  C_22
REMARK                            x       y       z     vdW  Elec       q    Type
REMARK                         _______ _______ _______ _____ _____    ______ ____
ROOT
ATOM      1  C   UNL     1      -0.743  12.762  20.356  0.00  0.00    +0.000 C 
ATOM      2  O   UNL     1      -1.573  13.659  20.222  0.00  0.00    +0.000 OA
ATOM      3  N   UNL     1      -0.696  11.594  19.578  0.00  0.00    +0.000 N 
ATOM      4  C   UNL     1      -1.731  11.235  18.650  0.00  0.00    +0.000 A 
ATOM      5  C   UNL     1      -3.045  11.688  18.771  0.00  0.00    +0.000 A 
ATOM      6  C   UNL     1      -4.039  11.291  17.867  0.00  0.00    +0.000 A 
ATOM      7  C   UNL     1      -3.709  10.454  16.801  0.00  0.00    +0.000 A 
ATOM      8  C   UNL     1      -2.400   9.992  16.662  0.00  0.00    +0.000 A 
ATOM      9  C   UNL     1      -1.429  10.354  17.593  0.00  0.00    +0.000 A 
ATOM     10  N   UNL     1      -0.137   9.849  17.439  0.00  0.00    +0.000 N 
ATOM     11  C   UNL     1       0.842  10.032  18.380  0.00  0.00    +0.000 C 
ATOM     12  O   UNL     1       1.978   9.606  18.176  0.00  0.00    +0.000 OA
ATOM     13  C   UNL     1       0.389  10.594  19.733  0.00  0.00    +0.000 C 
ATOM     14  H   UNL     1       0.129   9.332  16.613  0.00  0.00    +0.000 HD
ENDROOT
BRANCH   6  15
ATOM     15  O   UNL     1      -5.282  11.779  18.154  0.00  0.00    +0.000 OA
ATOM     16  C   UNL     1      -5.936  12.532  17.143  0.00  0.00    +0.000 C 
ENDBRANCH   6  15
BRANCH   1  17
ATOM     17  O   UNL     1       0.262  12.810  21.304  0.00  0.00    +0.000 OA
BRANCH  17  19
ATOM     18  C   UNL     1       2.235  13.705  20.300  0.00  0.00    +0.000 C 
ATOM     19  C   UNL     1       1.245  13.836  21.190  0.00  0.00    +0.000 C 
ATOM     20  C   UNL     1       1.050  15.088  21.998  0.00  0.00    +0.000 C 
ENDBRANCH  17  19
ENDBRANCH   1  17
BRANCH  13  21
ATOM     21  C   UNL     1      -0.099   9.456  20.656  0.00  0.00    +0.000 C 
BRANCH  21  22
ATOM     22  S   UNL     1       0.930   9.087  22.123  0.00  0.00    +0.000 S 
ATOM     23  C   UNL     1      -0.189   9.653  23.424  0.00  0.00    +0.000 C 
ENDBRANCH  21  22
ENDBRANCH  13  21
TORSDOF 5
ENDMDL
MODEL 7
REMARK VINA RESULT:      -5.4      7.680     10.141
REMARK  Name = 
REMARK  8 active torsions:
REMARK  status: ('A' for Active; 'I' for Inactive)
REMARK    1  A    between atoms: C_2  and  C_3
REMARK    2  A    between atoms: C_2  and  O_4
REMARK    3  A    between atoms: O_4  and  C_5
REMARK    4  A    between atoms: C_10  and  O_11
REMARK    5  A    between atoms: O_11  and  C_12
REMARK    6  A    between atoms: C_19  and  C_20
REMARK    7  A    between atoms: C_20  and  S_21
REMARK    8  A    between atoms: S_21  and  C_22
REMARK                            x       y       z     vdW  Elec       q    Type
REMARK                         _______ _______ _______ _____ _____    ______ ____
ROOT
ATOM      1  C   UNL     1      -0.654  10.647  19.877  0.00  0.00    +0.000 C 
ATOM      2  O   UNL     1      -0.407   9.696  19.137  0.00  0.00    +0.000 OA
ATOM      3  N   UNL     1      -1.769  11.491  19.749  0.00  0.00    +0.000 N 
ATOM      4  C   UNL     1      -2.656  11.442  18.622  0.00  0.00    +0.000 A 
ATOM      5  C   UNL     1      -2.265  10.957  17.373  0.00  0.00    +0.000 A 
ATOM      6  C   UNL     1      -3.146  10.956  16.284  0.00  0.00    +0.000 A 
ATOM      7  C   UNL     1      -4.453  11.413  16.451  0.00  0.00    +0.000 A 
ATOM      8  C   UNL     1      -4.863  11.901  17.692  0.00  0.00    +0.000 A 
ATOM      9  C   UNL     1      -3.966  11.942  18.757  0.00  0.00    +0.000 A 
ATOM     10  N   UNL     1      -4.403  12.463  19.976  0.00  0.00    +0.000 N 
ATOM     11  C   UNL     1      -3.555  12.678  21.031  0.00  0.00    +0.000 C 
ATOM     12  O   UNL     1      -3.997  13.096  22.100  0.00  0.00    +0.000 OA
ATOM     13  C   UNL     1      -2.055  12.564  20.733  0.00  0.00    +0.000 C 
ATOM     14  H   UNL     1      -5.374  12.695  20.130  0.00  0.00    +0.000 HD
ENDROOT
BRANCH   6  15
ATOM     15  O   UNL     1      -2.595  10.498  15.120  0.00  0.00    +0.000 OA
ATOM     16  C   UNL     1      -3.486  10.087  14.093  0.00  0.00    +0.000 C 
ENDBRANCH   6  15
BRANCH   1  17
ATOM     17  O   UNL     1       0.154  10.992  20.944  0.00  0.00    +0.000 OA
BRANCH  17  19
ATOM     18  C   UNL     1       1.290   9.215  22.063  0.00  0.00    +0.000 C 
ATOM     19  C   UNL     1       0.265  10.074  22.029  0.00  0.00    +0.000 C 
ATOM     20  C   UNL     1      -0.716  10.201  23.160  0.00  0.00    +0.000 C 
ENDBRANCH  17  19
ENDBRANCH   1  17
BRANCH  13  21
ATOM     21  C   UNL     1      -1.507  13.904  20.194  0.00  0.00    +0.000 C 
BRANCH  21  22
ATOM     22  S   UNL     1      -1.098  15.185  21.434  0.00  0.00    +0.000 S 
ATOM     23  C   UNL     1      -2.390  16.390  21.056  0.00  0.00    +0.000 C 
ENDBRANCH  21  22
ENDBRANCH  13  21
TORSDOF 5
ENDMDL
MODEL 8
REMARK VINA RESULT:      -5.4      2.117      5.457
REMARK  Name = 
REMARK  8 active torsions:
REMARK  status: ('A' for Active; 'I' for Inactive)
REMARK    1  A    between atoms: C_2  and  C_3
REMARK    2  A    between atoms: C_2  and  O_4
REMARK    3  A    between atoms: O_4  and  C_5
REMARK    4  A    between atoms: C_10  and  O_11
REMARK    5  A    between atoms: O_11  and  C_12
REMARK    6  A    between atoms: C_19  and  C_20
REMARK    7  A    between atoms: C_20  and  S_21
REMARK    8  A    between atoms: S_21  and  C_22
REMARK                            x       y       z     vdW  Elec       q    Type
REMARK                         _______ _______ _______ _____ _____    ______ ____
ROOT
ATOM      1  C   UNL     1       2.428   6.651  18.743  0.00  0.00    +0.000 C 
ATOM      2  O   UNL     1       1.380   6.273  19.263  0.00  0.00    +0.000 OA
ATOM      3  N   UNL     1       3.390   5.801  18.174  0.00  0.00    +0.000 N 
ATOM      4  C   UNL     1       3.336   4.373  18.297  0.00  0.00    +0.000 A 
ATOM      5  C   UNL     1       2.674   3.728  19.344  0.00  0.00    +0.000 A 
ATOM      6  C   UNL     1       2.670   2.332  19.453  0.00  0.00    +0.000 A 
ATOM      7  C   UNL     1       3.307   1.560  18.482  0.00  0.00    +0.000 A 
ATOM      8  C   UNL     1       3.973   2.185  17.427  0.00  0.00    +0.000 A 
ATOM      9  C   UNL     1       4.013   3.576  17.352  0.00  0.00    +0.000 A 
ATOM     10  N   UNL     1       4.713   4.167  16.299  0.00  0.00    +0.000 N 
ATOM     11  C   UNL     1       4.927   5.518  16.225  0.00  0.00    +0.000 C 
ATOM     12  O   UNL     1       5.511   5.995  15.253  0.00  0.00    +0.000 OA
ATOM     13  C   UNL     1       4.589   6.331  17.481  0.00  0.00    +0.000 C 
ATOM     14  H   UNL     1       5.083   3.614  15.539  0.00  0.00    +0.000 HD
ENDROOT
BRANCH   6  15
ATOM     15  O   UNL     1       2.023   1.860  20.561  0.00  0.00    +0.000 OA
ATOM     16  C   UNL     1       1.607   2.813  21.528  0.00  0.00    +0.000 C 
ENDBRANCH   6  15
BRANCH   1  17
ATOM     17  O   UNL     1       2.778   7.985  18.654  0.00  0.00    +0.000 OA
BRANCH  17  19
ATOM     18  C   UNL     1       1.175   9.500  17.738  0.00  0.00    +0.000 C 
ATOM     19  C   UNL     1       1.753   8.963  18.818  0.00  0.00    +0.000 C 
ATOM     20  C   UNL     1       1.278   9.254  20.213  0.00  0.00    +0.000 C 
ENDBRANCH  17  19
ENDBRANCH   1  17
BRANCH  13  21
ATOM     21  C   UNL     1       5.782   6.331  18.462  0.00  0.00    +0.000 C 
BRANCH  21  22
ATOM     22  S   UNL     1       7.456   6.347  17.724  0.00  0.00    +0.000 S 
ATOM     23  C   UNL     1       7.717   8.131  17.609  0.00  0.00    +0.000 C 
ENDBRANCH  21  22
ENDBRANCH  13  21
TORSDOF 5
ENDMDL
MODEL 9
REMARK VINA RESULT:      -5.3      8.318     10.550
REMARK  Name = 
REMARK  8 active torsions:
REMARK  status: ('A' for Active; 'I' for Inactive)
REMARK    1  A    between atoms: C_2  and  C_3
REMARK    2  A    between atoms: C_2  and  O_4
REMARK    3  A    between atoms: O_4  and  C_5
REMARK    4  A    between atoms: C_10  and  O_11
REMARK    5  A    between atoms: O_11  and  C_12
REMARK    6  A    between atoms: C_19  and  C_20
REMARK    7  A    between atoms: C_20  and  S_21
REMARK    8  A    between atoms: S_21  and  C_22
REMARK                            x       y       z     vdW  Elec       q    Type
REMARK                         _______ _______ _______ _____ _____    ______ ____
ROOT
ATOM      1  C   UNL     1      -3.266  12.088  19.131  0.00  0.00    +0.000 C 
ATOM      2  O   UNL     1      -4.450  11.791  18.978  0.00  0.00    +0.000 OA
ATOM      3  N   UNL     1      -2.668  12.373  20.369  0.00  0.00    +0.000 N 
ATOM      4  C   UNL     1      -3.421  12.524  21.580  0.00  0.00    +0.000 A 
ATOM      5  C   UNL     1      -4.767  12.894  21.593  0.00  0.00    +0.000 A 
ATOM      6  C   UNL     1      -5.464  13.066  22.796  0.00  0.00    +0.000 A 
ATOM      7  C   UNL     1      -4.818  12.832  24.010  0.00  0.00    +0.000 A 
ATOM      8  C   UNL     1      -3.473  12.461  24.018  0.00  0.00    +0.000 A 
ATOM      9  C   UNL     1      -2.775  12.338  22.819  0.00  0.00    +0.000 A 
ATOM     10  N   UNL     1      -1.423  11.993  22.867  0.00  0.00    +0.000 N 
ATOM     11  C   UNL     1      -0.624  11.991  21.754  0.00  0.00    +0.000 C 
ATOM     12  O   UNL     1       0.550  11.636  21.841  0.00  0.00    +0.000 OA
ATOM     13  C   UNL     1      -1.212  12.634  20.492  0.00  0.00    +0.000 C 
ATOM     14  H   UNL     1      -0.982  11.720  23.734  0.00  0.00    +0.000 HD
ENDROOT
BRANCH   6  15
ATOM     15  O   UNL     1      -6.757  13.479  22.637  0.00  0.00    +0.000 OA
ATOM     16  C   UNL     1      -7.667  13.191  23.689  0.00  0.00    +0.000 C 
ENDBRANCH   6  15
BRANCH   1  17
ATOM     17  O   UNL     1      -2.374  12.166  18.078  0.00  0.00    +0.000 OA
BRANCH  17  19
ATOM     18  C   UNL     1      -2.733  10.902  16.085  0.00  0.00    +0.000 C 
ATOM     19  C   UNL     1      -2.159  10.999  17.289  0.00  0.00    +0.000 C 
ATOM     20  C   UNL     1      -1.184   9.976  17.800  0.00  0.00    +0.000 C 
ENDBRANCH  17  19
ENDBRANCH   1  17
BRANCH  13  21
ATOM     21  C   UNL     1      -0.970  14.159  20.498  0.00  0.00    +0.000 C 
BRANCH  21  22
ATOM     22  S   UNL     1      -0.093  14.860  19.054  0.00  0.00    +0.000 S 
ATOM     23  C   UNL     1       0.907  13.430  18.588  0.00  0.00    +0.000 C 
ENDBRANCH  21  22
ENDBRANCH  13  21
TORSDOF 5
ENDMDL
