MODEL 1
REMARK VINA RESULT:      -7.6      0.000      0.000
REMARK  Name = 
REMARK  4 active torsions:
REMARK  status: ('A' for Active; 'I' for Inactive)
REMARK    1  A    between atoms: C_1  and  N_2
REMARK    2  A    between atoms: N_7  and  C_8
REMARK    3  A    between atoms: C_11  and  C_12
REMARK    4  A    between atoms: C_24  and  C_25
REMARK                            x       y       z     vdW  Elec       q    Type
REMARK                         _______ _______ _______ _____ _____    ______ ____
ROOT
ATOM      1  C   UNL     1       5.028   7.231  14.841  0.00  0.00    +0.000 C 
ATOM      2  N   UNL     1       5.122   6.623  16.161  0.00  0.00    +0.000 N 
ATOM      3  C   UNL     1       4.244   6.937  17.187  0.00  0.00    +0.000 A 
ATOM      4  C   UNL     1       4.374   6.319  18.379  0.00  0.00    +0.000 A 
ATOM      5  C   UNL     1       5.487   5.379  18.612  0.00  0.00    +0.000 A 
ATOM      6  O   UNL     1       5.689   4.934  19.741  0.00  0.00    +0.000 OA
ATOM      7  N   UNL     1       6.252   5.053  17.521  0.00  0.00    +0.000 N 
ATOM      8  C   UNL     1       7.311   4.074  17.675  0.00  0.00    +0.000 C 
ATOM      9  C   UNL     1       6.135   5.669  16.286  0.00  0.00    +0.000 A 
ATOM     10  O   UNL     1       6.889   5.395  15.354  0.00  0.00    +0.000 OA
ATOM     11  C   UNL     1       3.409   6.541  19.542  0.00  0.00    +0.000 C 
ATOM     12  C   UNL     1       2.383   7.623  19.254  0.00  0.00    +0.000 C 
ATOM     13  C   UNL     1       2.320   8.211  18.046  0.00  0.00    +0.000 C 
ATOM     14  C   UNL     1       1.284   9.242  17.685  0.00  0.00    +0.000 C 
ATOM     15  C   UNL     1       0.073   9.215  18.623  0.00  0.00    +0.000 C 
ATOM     16  C   UNL     1       0.517   9.191  20.078  0.00  0.00    +0.000 C 
ATOM     17  C   UNL     1       1.452   8.041  20.340  0.00  0.00    +0.000 C 
ATOM     18  O   UNL     1       1.499   7.513  21.449  0.00  0.00    +0.000 OA
ATOM     19  N   UNL     1       3.217   7.860  17.056  0.00  0.00    +0.000 N 
ATOM     20  H   UNL     1       3.075   8.290  16.153  0.00  0.00    +0.000 HD
ENDROOT
BRANCH  11  21
ATOM     21  C   UNL     1       2.714   5.241  19.943  0.00  0.00    +0.000 A 
ATOM     22  C   UNL     1       2.853   4.750  21.255  0.00  0.00    +0.000 A 
ATOM     23  C   UNL     1       2.202   3.580  21.644  0.00  0.00    +0.000 A 
ATOM     24  C   UNL     1       1.414   2.896  20.724  0.00  0.00    +0.000 A 
ATOM     25  F   UNL     1       0.790   1.774  21.107  0.00  0.00    +0.000 F 
ATOM     26  C   UNL     1       1.270   3.363  19.425  0.00  0.00    +0.000 A 
ATOM     27  F   UNL     1       0.503   2.699  18.550  0.00  0.00    +0.000 F 
ATOM     28  C   UNL     1       1.915   4.528  19.040  0.00  0.00    +0.000 A 
ATOM     29  F   UNL     1       1.761   4.971  17.783  0.00  0.00    +0.000 F 
ENDBRANCH  11  21
BRANCH  15  30
ATOM     30  C   UNL     1      -0.801  10.393  18.367  0.00  0.00    +0.000 A 
ATOM     31  C   UNL     1      -2.104  10.527  17.945  0.00  0.00    +0.000 A 
ATOM     32  C   UNL     1      -2.361  11.918  17.887  0.00  0.00    +0.000 A 
ATOM     33  C   UNL     1      -1.200  12.541  18.280  0.00  0.00    +0.000 A 
ATOM     34  O   UNL     1      -0.247  11.621  18.576  0.00  0.00    +0.000 OA
ENDBRANCH  15  30
TORSDOF 2
ENDMDL
MODEL 2
REMARK VINA RESULT:      -7.5      6.339      9.311
REMARK  Name = 
REMARK  4 active torsions:
REMARK  status: ('A' for Active; 'I' for Inactive)
REMARK    1  A    between atoms: C_1  and  N_2
REMARK    2  A    between atoms: N_7  and  C_8
REMARK    3  A    between atoms: C_11  and  C_12
REMARK    4  A    between atoms: C_24  and  C_25
REMARK                            x       y       z     vdW  Elec       q    Type
REMARK                         _______ _______ _______ _____ _____    ______ ____
ROOT
ATOM      1  C   UNL     1      -1.600  18.097  18.823  0.00  0.00    +0.000 C 
ATOM      2  N   UNL     1      -0.711  16.969  19.065  0.00  0.00    +0.000 N 
ATOM      3  C   UNL     1      -1.083  15.884  19.844  0.00  0.00    +0.000 A 
ATOM      4  C   UNL     1      -0.218  14.862  20.008  0.00  0.00    +0.000 A 
ATOM      5  C   UNL     1       1.137  14.934  19.430  0.00  0.00    +0.000 A 
ATOM      6  O   UNL     1       1.969  14.071  19.706  0.00  0.00    +0.000 OA
ATOM      7  N   UNL     1       1.392  15.994  18.597  0.00  0.00    +0.000 N 
ATOM      8  C   UNL     1       2.682  16.074  17.940  0.00  0.00    +0.000 C 
ATOM      9  C   UNL     1       0.519  17.053  18.409  0.00  0.00    +0.000 A 
ATOM     10  O   UNL     1       0.818  18.018  17.707  0.00  0.00    +0.000 OA
ATOM     11  C   UNL     1      -0.567  13.592  20.783  0.00  0.00    +0.000 C 
ATOM     12  C   UNL     1      -1.927  13.670  21.454  0.00  0.00    +0.000 C 
ATOM     13  C   UNL     1      -2.734  14.729  21.260  0.00  0.00    +0.000 C 
ATOM     14  C   UNL     1      -4.116  14.829  21.846  0.00  0.00    +0.000 C 
ATOM     15  C   UNL     1      -4.676  13.469  22.273  0.00  0.00    +0.000 C 
ATOM     16  C   UNL     1      -3.653  12.698  23.095  0.00  0.00    +0.000 C 
ATOM     17  C   UNL     1      -2.354  12.557  22.349  0.00  0.00    +0.000 C 
ATOM     18  O   UNL     1      -1.627  11.584  22.536  0.00  0.00    +0.000 OA
ATOM     19  N   UNL     1      -2.316  15.783  20.471  0.00  0.00    +0.000 N 
ATOM     20  H   UNL     1      -2.993  16.516  20.312  0.00  0.00    +0.000 HD
ENDROOT
BRANCH  11  21
ATOM     21  C   UNL     1      -0.482  12.356  19.890  0.00  0.00    +0.000 A 
ATOM     22  C   UNL     1      -1.346  12.229  18.786  0.00  0.00    +0.000 A 
ATOM     23  C   UNL     1      -1.261  11.120  17.946  0.00  0.00    +0.000 A 
ATOM     24  C   UNL     1      -0.316  10.134  18.207  0.00  0.00    +0.000 A 
ATOM     25  F   UNL     1      -0.240   9.072  17.394  0.00  0.00    +0.000 F 
ATOM     26  C   UNL     1       0.540  10.239  19.294  0.00  0.00    +0.000 A 
ATOM     27  F   UNL     1       1.450   9.285  19.532  0.00  0.00    +0.000 F 
ATOM     28  C   UNL     1       0.457  11.344  20.128  0.00  0.00    +0.000 A 
ATOM     29  F   UNL     1       1.296  11.436  21.171  0.00  0.00    +0.000 F 
ENDBRANCH  11  21
BRANCH  15  30
ATOM     30  C   UNL     1      -5.933  13.652  23.050  0.00  0.00    +0.000 A 
ATOM     31  C   UNL     1      -6.614  12.856  23.944  0.00  0.00    +0.000 A 
ATOM     32  C   UNL     1      -7.758  13.592  24.339  0.00  0.00    +0.000 A 
ATOM     33  C   UNL     1      -7.697  14.789  23.665  0.00  0.00    +0.000 A 
ATOM     34  O   UNL     1      -6.590  14.835  22.881  0.00  0.00    +0.000 OA
ENDBRANCH  15  30
TORSDOF 2
ENDMDL
MODEL 3
REMARK VINA RESULT:      -7.5      6.107      9.037
REMARK  Name = 
REMARK  4 active torsions:
REMARK  status: ('A' for Active; 'I' for Inactive)
REMARK    1  A    between atoms: C_1  and  N_2
REMARK    2  A    between atoms: N_7  and  C_8
REMARK    3  A    between atoms: C_11  and  C_12
REMARK    4  A    between atoms: C_24  and  C_25
REMARK                            x       y       z     vdW  Elec       q    Type
REMARK                         _______ _______ _______ _____ _____    ______ ____
ROOT
ATOM      1  C   UNL     1      -1.436  17.841  18.611  0.00  0.00    +0.000 C 
ATOM      2  N   UNL     1      -0.494  16.769  18.903  0.00  0.00    +0.000 N 
ATOM      3  C   UNL     1      -0.830  15.679  19.692  0.00  0.00    +0.000 A 
ATOM      4  C   UNL     1       0.085  14.710  19.904  0.00  0.00    +0.000 A 
ATOM      5  C   UNL     1       1.452  14.849  19.368  0.00  0.00    +0.000 A 
ATOM      6  O   UNL     1       2.321  14.039  19.688  0.00  0.00    +0.000 OA
ATOM      7  N   UNL     1       1.674  15.906  18.524  0.00  0.00    +0.000 N 
ATOM      8  C   UNL     1       2.980  16.047  17.907  0.00  0.00    +0.000 C 
ATOM      9  C   UNL     1       0.751  16.911  18.286  0.00  0.00    +0.000 A 
ATOM     10  O   UNL     1       1.018  17.878  17.575  0.00  0.00    +0.000 OA
ATOM     11  C   UNL     1      -0.219  13.437  20.691  0.00  0.00    +0.000 C 
ATOM     12  C   UNL     1      -1.603  13.450  21.316  0.00  0.00    +0.000 C 
ATOM     13  C   UNL     1      -2.460  14.458  21.075  0.00  0.00    +0.000 C 
ATOM     14  C   UNL     1      -3.865  14.490  21.615  0.00  0.00    +0.000 C 
ATOM     15  C   UNL     1      -4.362  13.108  22.051  0.00  0.00    +0.000 C 
ATOM     16  C   UNL     1      -3.325  12.411  22.920  0.00  0.00    +0.000 C 
ATOM     17  C   UNL     1      -1.996  12.331  22.219  0.00  0.00    +0.000 C 
ATOM     18  O   UNL     1      -1.223  11.404  22.449  0.00  0.00    +0.000 OA
ATOM     19  N   UNL     1      -2.076  15.519  20.280  0.00  0.00    +0.000 N 
ATOM     20  H   UNL     1      -2.787  16.210  20.085  0.00  0.00    +0.000 HD
ENDROOT
BRANCH  11  21
ATOM     21  C   UNL     1      -0.035  12.192  19.827  0.00  0.00    +0.000 A 
ATOM     22  C   UNL     1       1.073  11.349  20.040  0.00  0.00    +0.000 A 
ATOM     23  C   UNL     1       1.239  10.194  19.277  0.00  0.00    +0.000 A 
ATOM     24  C   UNL     1       0.302   9.879  18.299  0.00  0.00    +0.000 A 
ATOM     25  F   UNL     1       0.468   8.765  17.572  0.00  0.00    +0.000 F 
ATOM     26  C   UNL     1      -0.793  10.700  18.072  0.00  0.00    +0.000 A 
ATOM     27  F   UNL     1      -1.692  10.382  17.130  0.00  0.00    +0.000 F 
ATOM     28  C   UNL     1      -0.960  11.847  18.832  0.00  0.00    +0.000 A 
ATOM     29  F   UNL     1      -2.027  12.629  18.606  0.00  0.00    +0.000 F 
ENDBRANCH  11  21
BRANCH  15  30
ATOM     30  C   UNL     1      -5.652  13.233  22.783  0.00  0.00    +0.000 A 
ATOM     31  C   UNL     1      -6.388  14.312  23.219  0.00  0.00    +0.000 A 
ATOM     32  C   UNL     1      -7.529  13.777  23.866  0.00  0.00    +0.000 A 
ATOM     33  C   UNL     1      -7.416  12.410  23.778  0.00  0.00    +0.000 A 
ATOM     34  O   UNL     1      -6.280  12.070  23.120  0.00  0.00    +0.000 OA
ENDBRANCH  15  30
TORSDOF 2
ENDMDL
MODEL 4
REMARK VINA RESULT:      -7.4      5.604     10.464
REMARK  Name = 
REMARK  4 active torsions:
REMARK  status: ('A' for Active; 'I' for Inactive)
REMARK    1  A    between atoms: C_1  and  N_2
REMARK    2  A    between atoms: N_7  and  C_8
REMARK    3  A    between atoms: C_11  and  C_12
REMARK    4  A    between atoms: C_24  and  C_25
REMARK                            x       y       z     vdW  Elec       q    Type
REMARK                         _______ _______ _______ _____ _____    ______ ____
ROOT
ATOM      1  C   UNL     1      -5.029  11.503  16.800  0.00  0.00    +0.000 C 
ATOM      2  N   UNL     1      -4.843  12.159  18.087  0.00  0.00    +0.000 N 
ATOM      3  C   UNL     1      -3.719  11.951  18.872  0.00  0.00    +0.000 A 
ATOM      4  C   UNL     1      -3.601  12.609  20.044  0.00  0.00    +0.000 A 
ATOM      5  C   UNL     1      -4.692  13.480  20.521  0.00  0.00    +0.000 A 
ATOM      6  O   UNL     1      -4.645  13.958  21.653  0.00  0.00    +0.000 OA
ATOM      7  N   UNL     1      -5.723  13.705  19.645  0.00  0.00    +0.000 N 
ATOM      8  C   UNL     1      -6.785  14.614  20.032  0.00  0.00    +0.000 C 
ATOM      9  C   UNL     1      -5.866  13.045  18.435  0.00  0.00    +0.000 A 
ATOM     10  O   UNL     1      -6.843  13.227  17.713  0.00  0.00    +0.000 OA
ATOM     11  C   UNL     1      -2.366  12.504  20.936  0.00  0.00    +0.000 C 
ATOM     12  C   UNL     1      -1.362  11.483  20.431  0.00  0.00    +0.000 C 
ATOM     13  C   UNL     1      -1.552  10.849  19.259  0.00  0.00    +0.000 C 
ATOM     14  C   UNL     1      -0.560   9.877  18.679  0.00  0.00    +0.000 C 
ATOM     15  C   UNL     1       0.839  10.028  19.287  0.00  0.00    +0.000 C 
ATOM     16  C   UNL     1       0.764  10.084  20.806  0.00  0.00    +0.000 C 
ATOM     17  C   UNL     1      -0.164  11.177  21.262  0.00  0.00    +0.000 C 
ATOM     18  O   UNL     1       0.021  11.747  22.335  0.00  0.00    +0.000 OA
ATOM     19  N   UNL     1      -2.688  11.095  18.514  0.00  0.00    +0.000 N 
ATOM     20  H   UNL     1      -2.739  10.638  17.614  0.00  0.00    +0.000 HD
ENDROOT
BRANCH  11  21
ATOM     21  C   UNL     1      -1.697  13.864  21.121  0.00  0.00    +0.000 A 
ATOM     22  C   UNL     1      -1.175  14.545  20.005  0.00  0.00    +0.000 A 
ATOM     23  C   UNL     1      -0.586  15.800  20.153  0.00  0.00    +0.000 A 
ATOM     24  C   UNL     1      -0.515  16.376  21.417  0.00  0.00    +0.000 A 
ATOM     25  F   UNL     1       0.051  17.584  21.551  0.00  0.00    +0.000 F 
ATOM     26  C   UNL     1      -1.019  15.718  22.529  0.00  0.00    +0.000 A 
ATOM     27  F   UNL     1      -0.949  16.287  23.741  0.00  0.00    +0.000 F 
ATOM     28  C   UNL     1      -1.607  14.471  22.381  0.00  0.00    +0.000 A 
ATOM     29  F   UNL     1      -2.096  13.849  23.464  0.00  0.00    +0.000 F 
ENDBRANCH  11  21
BRANCH  15  30
ATOM     30  C   UNL     1       1.711   8.903  18.853  0.00  0.00    +0.000 A 
ATOM     31  C   UNL     1       2.379   8.624  17.681  0.00  0.00    +0.000 A 
ATOM     32  C   UNL     1       3.038   7.387  17.885  0.00  0.00    +0.000 A 
ATOM     33  C   UNL     1       2.732   6.995  19.166  0.00  0.00    +0.000 A 
ATOM     34  O   UNL     1       1.929   7.911  19.763  0.00  0.00    +0.000 OA
ENDBRANCH  15  30
TORSDOF 2
ENDMDL
MODEL 5
REMARK VINA RESULT:      -7.4      5.994      8.921
REMARK  Name = 
REMARK  4 active torsions:
REMARK  status: ('A' for Active; 'I' for Inactive)
REMARK    1  A    between atoms: C_1  and  N_2
REMARK    2  A    between atoms: N_7  and  C_8
REMARK    3  A    between atoms: C_11  and  C_12
REMARK    4  A    between atoms: C_24  and  C_25
REMARK                            x       y       z     vdW  Elec       q    Type
REMARK                         _______ _______ _______ _____ _____    ______ ____
ROOT
ATOM      1  C   UNL     1      -0.046  17.888  20.631  0.00  0.00    +0.000 C 
ATOM      2  N   UNL     1       0.636  16.608  20.768  0.00  0.00    +0.000 N 
ATOM      3  C   UNL     1       0.001  15.477  21.258  0.00  0.00    +0.000 A 
ATOM      4  C   UNL     1       0.687  14.318  21.337  0.00  0.00    +0.000 A 
ATOM      5  C   UNL     1       2.118  14.274  20.982  0.00  0.00    +0.000 A 
ATOM      6  O   UNL     1       2.773  13.255  21.197  0.00  0.00    +0.000 OA
ATOM      7  N   UNL     1       2.644  15.409  20.420  0.00  0.00    +0.000 N 
ATOM      8  C   UNL     1       4.026  15.396  19.980  0.00  0.00    +0.000 C 
ATOM      9  C   UNL     1       1.960  16.610  20.322  0.00  0.00    +0.000 A 
ATOM     10  O   UNL     1       2.495  17.622  19.874  0.00  0.00    +0.000 OA
ATOM     11  C   UNL     1       0.051  13.004  21.788  0.00  0.00    +0.000 C 
ATOM     12  C   UNL     1      -1.381  13.178  22.263  0.00  0.00    +0.000 C 
ATOM     13  C   UNL     1      -2.000  14.369  22.169  0.00  0.00    +0.000 C 
ATOM     14  C   UNL     1      -3.437  14.584  22.563  0.00  0.00    +0.000 C 
ATOM     15  C   UNL     1      -4.232  13.276  22.630  0.00  0.00    +0.000 C 
ATOM     16  C   UNL     1      -3.470  12.221  23.419  0.00  0.00    +0.000 C 
ATOM     17  C   UNL     1      -2.093  12.009  22.851  0.00  0.00    +0.000 C 
ATOM     18  O   UNL     1      -1.540  10.915  22.943  0.00  0.00    +0.000 OA
ATOM     19  N   UNL     1      -1.322  15.465  21.671  0.00  0.00    +0.000 N 
ATOM     20  H   UNL     1      -1.862  16.313  21.567  0.00  0.00    +0.000 HD
ENDROOT
BRANCH  11  21
ATOM     21  C   UNL     1       0.125  11.945  20.691  0.00  0.00    +0.000 A 
ATOM     22  C   UNL     1      -0.492  12.182  19.447  0.00  0.00    +0.000 A 
ATOM     23  C   UNL     1      -0.409  11.237  18.426  0.00  0.00    +0.000 A 
ATOM     24  C   UNL     1       0.287  10.052  18.644  0.00  0.00    +0.000 A 
ATOM     25  F   UNL     1       0.363   9.150  17.657  0.00  0.00    +0.000 F 
ATOM     26  C   UNL     1       0.896   9.799  19.865  0.00  0.00    +0.000 A 
ATOM     27  F   UNL     1       1.569   8.657  20.061  0.00  0.00    +0.000 F 
ATOM     28  C   UNL     1       0.816  10.741  20.880  0.00  0.00    +0.000 A 
ATOM     29  F   UNL     1       1.416  10.486  22.052  0.00  0.00    +0.000 F 
ENDBRANCH  11  21
BRANCH  15  30
ATOM     30  C   UNL     1      -5.567  13.517  23.242  0.00  0.00    +0.000 A 
ATOM     31  C   UNL     1      -6.196  14.645  23.719  0.00  0.00    +0.000 A 
ATOM     32  C   UNL     1      -7.464  14.223  24.189  0.00  0.00    +0.000 A 
ATOM     33  C   UNL     1      -7.526  12.869  23.965  0.00  0.00    +0.000 A 
ATOM     34  O   UNL     1      -6.379  12.431  23.387  0.00  0.00    +0.000 OA
ENDBRANCH  15  30
TORSDOF 2
ENDMDL
MODEL 6
REMARK VINA RESULT:      -7.3      7.179      9.993
REMARK  Name = 
REMARK  4 active torsions:
REMARK  status: ('A' for Active; 'I' for Inactive)
REMARK    1  A    between atoms: C_1  and  N_2
REMARK    2  A    between atoms: N_7  and  C_8
REMARK    3  A    between atoms: C_11  and  C_12
REMARK    4  A    between atoms: C_24  and  C_25
REMARK                            x       y       z     vdW  Elec       q    Type
REMARK                         _______ _______ _______ _____ _____    ______ ____
ROOT
ATOM      1  C   UNL     1      -6.220  14.017  20.878  0.00  0.00    +0.000 C 
ATOM      2  N   UNL     1      -4.897  13.680  21.384  0.00  0.00    +0.000 N 
ATOM      3  C   UNL     1      -3.970  12.975  20.631  0.00  0.00    +0.000 A 
ATOM      4  C   UNL     1      -2.754  12.716  21.154  0.00  0.00    +0.000 A 
ATOM      5  C   UNL     1      -2.441  13.109  22.541  0.00  0.00    +0.000 A 
ATOM      6  O   UNL     1      -1.390  12.741  23.062  0.00  0.00    +0.000 OA
ATOM      7  N   UNL     1      -3.375  13.883  23.183  0.00  0.00    +0.000 N 
ATOM      8  C   UNL     1      -3.086  14.363  24.521  0.00  0.00    +0.000 C 
ATOM      9  C   UNL     1      -4.629  14.166  22.666  0.00  0.00    +0.000 A 
ATOM     10  O   UNL     1      -5.461  14.806  23.307  0.00  0.00    +0.000 OA
ATOM     11  C   UNL     1      -1.643  12.017  20.372  0.00  0.00    +0.000 C 
ATOM     12  C   UNL     1      -2.103  11.529  19.009  0.00  0.00    +0.000 C 
ATOM     13  C   UNL     1      -3.338  11.810  18.556  0.00  0.00    +0.000 C 
ATOM     14  C   UNL     1      -3.824  11.409  17.189  0.00  0.00    +0.000 C 
ATOM     15  C   UNL     1      -2.677  11.083  16.227  0.00  0.00    +0.000 C 
ATOM     16  C   UNL     1      -1.672  10.147  16.883  0.00  0.00    +0.000 C 
ATOM     17  C   UNL     1      -1.167  10.717  18.181  0.00  0.00    +0.000 C 
ATOM     18  O   UNL     1      -0.037  10.453  18.583  0.00  0.00    +0.000 OA
ATOM     19  N   UNL     1      -4.222  12.518  19.346  0.00  0.00    +0.000 N 
ATOM     20  H   UNL     1      -5.109  12.752  18.922  0.00  0.00    +0.000 HD
ENDROOT
BRANCH  11  21
ATOM     21  C   UNL     1      -0.414  12.911  20.233  0.00  0.00    +0.000 A 
ATOM     22  C   UNL     1      -0.519  14.145  19.564  0.00  0.00    +0.000 A 
ATOM     23  C   UNL     1       0.588  14.986  19.453  0.00  0.00    +0.000 A 
ATOM     24  C   UNL     1       1.803  14.594  20.007  0.00  0.00    +0.000 A 
ATOM     25  F   UNL     1       2.861  15.409  19.898  0.00  0.00    +0.000 F 
ATOM     26  C   UNL     1       1.926  13.379  20.665  0.00  0.00    +0.000 A 
ATOM     27  F   UNL     1       3.100  13.016  21.199  0.00  0.00    +0.000 F 
ATOM     28  C   UNL     1       0.824  12.545  20.777  0.00  0.00    +0.000 A 
ATOM     29  F   UNL     1       0.956  11.376  21.422  0.00  0.00    +0.000 F 
ENDBRANCH  11  21
BRANCH  15  30
ATOM     30  C   UNL     1      -3.211  10.475  14.978  0.00  0.00    +0.000 A 
ATOM     31  C   UNL     1      -4.486  10.269  14.499  0.00  0.00    +0.000 A 
ATOM     32  C   UNL     1      -4.339   9.631  13.243  0.00  0.00    +0.000 A 
ATOM     33  C   UNL     1      -2.987   9.494  13.037  0.00  0.00    +0.000 A 
ATOM     34  O   UNL     1      -2.294  10.006  14.084  0.00  0.00    +0.000 OA
ENDBRANCH  15  30
TORSDOF 2
ENDMDL
MODEL 7
REMARK VINA RESULT:      -7.3      5.123     10.052
REMARK  Name = 
REMARK  4 active torsions:
REMARK  status: ('A' for Active; 'I' for Inactive)
REMARK    1  A    between atoms: C_1  and  N_2
REMARK    2  A    between atoms: N_7  and  C_8
REMARK    3  A    between atoms: C_11  and  C_12
REMARK    4  A    between atoms: C_24  and  C_25
REMARK                            x       y       z     vdW  Elec       q    Type
REMARK                         _______ _______ _______ _____ _____    ______ ____
ROOT
ATOM      1  C   UNL     1      -4.692  11.147  16.465  0.00  0.00    +0.000 C 
ATOM      2  N   UNL     1      -4.548  11.826  17.746  0.00  0.00    +0.000 N 
ATOM      3  C   UNL     1      -3.452  11.629  18.572  0.00  0.00    +0.000 A 
ATOM      4  C   UNL     1      -3.371  12.307  19.736  0.00  0.00    +0.000 A 
ATOM      5  C   UNL     1      -4.475  13.188  20.161  0.00  0.00    +0.000 A 
ATOM      6  O   UNL     1      -4.465  13.686  21.285  0.00  0.00    +0.000 OA
ATOM      7  N   UNL     1      -5.475  13.401  19.246  0.00  0.00    +0.000 N 
ATOM      8  C   UNL     1      -6.547  14.319  19.582  0.00  0.00    +0.000 C 
ATOM      9  C   UNL     1      -5.579  12.721  18.044  0.00  0.00    +0.000 A 
ATOM     10  O   UNL     1      -6.531  12.892  17.286  0.00  0.00    +0.000 OA
ATOM     11  C   UNL     1      -2.167  12.215  20.671  0.00  0.00    +0.000 C 
ATOM     12  C   UNL     1      -1.150  11.182  20.218  0.00  0.00    +0.000 C 
ATOM     13  C   UNL     1      -1.302  10.529  19.052  0.00  0.00    +0.000 C 
ATOM     14  C   UNL     1      -0.293   9.544  18.522  0.00  0.00    +0.000 C 
ATOM     15  C   UNL     1       1.084   9.702  19.175  0.00  0.00    +0.000 C 
ATOM     16  C   UNL     1       0.958   9.785  20.689  0.00  0.00    +0.000 C 
ATOM     17  C   UNL     1       0.019  10.888  21.095  0.00  0.00    +0.000 C 
ATOM     18  O   UNL     1       0.169  11.477  22.163  0.00  0.00    +0.000 OA
ATOM     19  N   UNL     1      -2.412  10.764  18.264  0.00  0.00    +0.000 N 
ATOM     20  H   UNL     1      -2.433  10.291  17.372  0.00  0.00    +0.000 HD
ENDROOT
BRANCH  11  21
ATOM     21  C   UNL     1      -1.500  13.576  20.855  0.00  0.00    +0.000 A 
ATOM     22  C   UNL     1      -1.496  14.188  22.123  0.00  0.00    +0.000 A 
ATOM     23  C   UNL     1      -0.867  15.417  22.312  0.00  0.00    +0.000 A 
ATOM     24  C   UNL     1      -0.244  16.040  21.236  0.00  0.00    +0.000 A 
ATOM     25  F   UNL     1       0.361  17.221  21.427  0.00  0.00    +0.000 F 
ATOM     26  C   UNL     1      -0.242  15.454  19.978  0.00  0.00    +0.000 A 
ATOM     27  F   UNL     1       0.367  16.061  18.951  0.00  0.00    +0.000 F 
ATOM     28  C   UNL     1      -0.866  14.230  19.791  0.00  0.00    +0.000 A 
ATOM     29  F   UNL     1      -0.851  13.672  18.571  0.00  0.00    +0.000 F 
ENDBRANCH  11  21
BRANCH  15  30
ATOM     30  C   UNL     1       1.967   8.567  18.790  0.00  0.00    +0.000 A 
ATOM     31  C   UNL     1       2.724   8.298  17.672  0.00  0.00    +0.000 A 
ATOM     32  C   UNL     1       3.340   7.043  17.902  0.00  0.00    +0.000 A 
ATOM     33  C   UNL     1       2.921   6.632  19.146  0.00  0.00    +0.000 A 
ATOM     34  O   UNL     1       2.089   7.553  19.693  0.00  0.00    +0.000 OA
ENDBRANCH  15  30
TORSDOF 2
ENDMDL
MODEL 8
REMARK VINA RESULT:      -7.3      6.223     11.051
REMARK  Name = 
REMARK  4 active torsions:
REMARK  status: ('A' for Active; 'I' for Inactive)
REMARK    1  A    between atoms: C_1  and  N_2
REMARK    2  A    between atoms: N_7  and  C_8
REMARK    3  A    between atoms: C_11  and  C_12
REMARK    4  A    between atoms: C_24  and  C_25
REMARK                            x       y       z     vdW  Elec       q    Type
REMARK                         _______ _______ _______ _____ _____    ______ ____
ROOT
ATOM      1  C   UNL     1      -5.713  12.169  17.470  0.00  0.00    +0.000 C 
ATOM      2  N   UNL     1      -5.484  12.731  18.794  0.00  0.00    +0.000 N 
ATOM      3  C   UNL     1      -4.316  12.503  19.506  0.00  0.00    +0.000 A 
ATOM      4  C   UNL     1      -4.160  13.074  20.719  0.00  0.00    +0.000 A 
ATOM      5  C   UNL     1      -5.253  13.865  21.314  0.00  0.00    +0.000 A 
ATOM      6  O   UNL     1      -5.164  14.257  22.477  0.00  0.00    +0.000 OA
ATOM      7  N   UNL     1      -6.334  14.120  20.509  0.00  0.00    +0.000 N 
ATOM      8  C   UNL     1      -7.403  14.959  21.016  0.00  0.00    +0.000 C 
ATOM      9  C   UNL     1      -6.515  13.551  19.259  0.00  0.00    +0.000 A 
ATOM     10  O   UNL     1      -7.533  13.753  18.600  0.00  0.00    +0.000 OA
ATOM     11  C   UNL     1      -2.879  12.945  21.540  0.00  0.00    +0.000 C 
ATOM     12  C   UNL     1      -1.870  12.002  20.909  0.00  0.00    +0.000 C 
ATOM     13  C   UNL     1      -2.097  11.454  19.702  0.00  0.00    +0.000 C 
ATOM     14  C   UNL     1      -1.105  10.565  19.001  0.00  0.00    +0.000 C 
ATOM     15  C   UNL     1       0.316  10.719  19.552  0.00  0.00    +0.000 C 
ATOM     16  C   UNL     1       0.316  10.655  21.072  0.00  0.00    +0.000 C 
ATOM     17  C   UNL     1      -0.622  11.676  21.657  0.00  0.00    +0.000 C 
ATOM     18  O   UNL     1      -0.401  12.169  22.761  0.00  0.00    +0.000 OA
ATOM     19  N   UNL     1      -3.277  11.715  19.033  0.00  0.00    +0.000 N 
ATOM     20  H   UNL     1      -3.358  11.326  18.104  0.00  0.00    +0.000 HD
ENDROOT
BRANCH  11  21
ATOM     21  C   UNL     1      -2.245  14.310  21.799  0.00  0.00    +0.000 A 
ATOM     22  C   UNL     1      -1.814  15.098  20.715  0.00  0.00    +0.000 A 
ATOM     23  C   UNL     1      -1.259  16.358  20.934  0.00  0.00    +0.000 A 
ATOM     24  C   UNL     1      -1.131  16.833  22.235  0.00  0.00    +0.000 A 
ATOM     25  F   UNL     1      -0.599  18.046  22.436  0.00  0.00    +0.000 F 
ATOM     26  C   UNL     1      -1.546  16.068  23.316  0.00  0.00    +0.000 A 
ATOM     27  F   UNL     1      -1.423  16.539  24.564  0.00  0.00    +0.000 F 
ATOM     28  C   UNL     1      -2.100  14.816  23.098  0.00  0.00    +0.000 A 
ATOM     29  F   UNL     1      -2.504  14.091  24.151  0.00  0.00    +0.000 F 
ENDBRANCH  11  21
BRANCH  15  30
ATOM     30  C   UNL     1       1.201   9.662  18.989  0.00  0.00    +0.000 A 
ATOM     31  C   UNL     1       1.864   9.526  17.791  0.00  0.00    +0.000 A 
ATOM     32  C   UNL     1       2.542   8.284  17.851  0.00  0.00    +0.000 A 
ATOM     33  C   UNL     1       2.252   7.746  19.082  0.00  0.00    +0.000 A 
ATOM     34  O   UNL     1       1.440   8.578  19.782  0.00  0.00    +0.000 OA
ENDBRANCH  15  30
TORSDOF 2
ENDMDL
MODEL 9
REMARK VINA RESULT:      -7.2      5.011      9.731
REMARK  Name = 
REMARK  4 active torsions:
REMARK  status: ('A' for Active; 'I' for Inactive)
REMARK    1  A    between atoms: C_1  and  N_2
REMARK    2  A    between atoms: N_7  and  C_8
REMARK    3  A    between atoms: C_11  and  C_12
REMARK    4  A    between atoms: C_24  and  C_25
REMARK                            x       y       z     vdW  Elec       q    Type
REMARK                         _______ _______ _______ _____ _____    ______ ____
ROOT
ATOM      1  C   UNL     1      -4.242  10.986  16.189  0.00  0.00    +0.000 C 
ATOM      2  N   UNL     1      -4.136  11.534  17.534  0.00  0.00    +0.000 N 
ATOM      3  C   UNL     1      -3.062  11.257  18.367  0.00  0.00    +0.000 A 
ATOM      4  C   UNL     1      -3.016  11.817  19.593  0.00  0.00    +0.000 A 
ATOM      5  C   UNL     1      -4.135  12.649  20.074  0.00  0.00    +0.000 A 
ATOM      6  O   UNL     1      -4.158  13.033  21.242  0.00  0.00    +0.000 OA
ATOM      7  N   UNL     1      -5.111  12.950  19.158  0.00  0.00    +0.000 N 
ATOM      8  C   UNL     1      -6.196  13.828  19.553  0.00  0.00    +0.000 C 
ATOM      9  C   UNL     1      -5.178  12.392  17.891  0.00  0.00    +0.000 A 
ATOM     10  O   UNL     1      -6.110  12.637  17.128  0.00  0.00    +0.000 OA
ATOM     11  C   UNL     1      -1.838  11.634  20.548  0.00  0.00    +0.000 C 
ATOM     12  C   UNL     1      -0.804  10.654  20.023  0.00  0.00    +0.000 C 
ATOM     13  C   UNL     1      -0.920  10.119  18.793  0.00  0.00    +0.000 C 
ATOM     14  C   UNL     1       0.106   9.194  18.197  0.00  0.00    +0.000 C 
ATOM     15  C   UNL     1       1.465   9.289  18.899  0.00  0.00    +0.000 C 
ATOM     16  C   UNL     1       1.297   9.220  20.410  0.00  0.00    +0.000 C 
ATOM     17  C   UNL     1       0.342  10.276  20.898  0.00  0.00    +0.000 C 
ATOM     18  O   UNL     1       0.461  10.756  22.023  0.00  0.00    +0.000 OA
ATOM     19  N   UNL     1      -2.009  10.430  18.003  0.00  0.00    +0.000 N 
ATOM     20  H   UNL     1      -2.005  10.048  17.068  0.00  0.00    +0.000 HD
ENDROOT
BRANCH  11  21
ATOM     21  C   UNL     1      -1.182  12.972  20.884  0.00  0.00    +0.000 A 
ATOM     22  C   UNL     1      -0.625  13.755  19.857  0.00  0.00    +0.000 A 
ATOM     23  C   UNL     1      -0.048  14.992  20.144  0.00  0.00    +0.000 A 
ATOM     24  C   UNL     1      -0.025  15.447  21.459  0.00  0.00    +0.000 A 
ATOM     25  F   UNL     1       0.529  16.637  21.727  0.00  0.00    +0.000 F 
ATOM     26  C   UNL     1      -0.565  14.685  22.485  0.00  0.00    +0.000 A 
ATOM     27  F   UNL     1      -0.542  15.137  23.746  0.00  0.00    +0.000 F 
ATOM     28  C   UNL     1      -1.141  13.457  22.198  0.00  0.00    +0.000 A 
ATOM     29  F   UNL     1      -1.666  12.735  23.199  0.00  0.00    +0.000 F 
ENDBRANCH  11  21
BRANCH  15  30
ATOM     30  C   UNL     1       2.363   8.200  18.428  0.00  0.00    +0.000 A 
ATOM     31  C   UNL     1       3.330   8.131  17.450  0.00  0.00    +0.000 A 
ATOM     32  C   UNL     1       3.831   6.807  17.480  0.00  0.00    +0.000 A 
ATOM     33  C   UNL     1       3.141   6.157  18.476  0.00  0.00    +0.000 A 
ATOM     34  O   UNL     1       2.249   6.997  19.059  0.00  0.00    +0.000 OA
ENDBRANCH  15  30
TORSDOF 2
ENDMDL
