MODEL 1
REMARK VINA RESULT:      -7.2      0.000      0.000
REMARK  Name = 
REMARK  6 active torsions:
REMARK  status: ('A' for Active; 'I' for Inactive)
REMARK    1  A    between atoms: C_1  and  C_2
REMARK    2  A    between atoms: N_8  and  C_9
REMARK    3  A    between atoms: N_12  and  C_13
REMARK    4  A    between atoms: C_13  and  C_14
REMARK    5  A    between atoms: C_14  and  O_15
REMARK    6  A    between atoms: O_15  and  C_16
REMARK                            x       y       z     vdW  Elec       q    Type
REMARK                         _______ _______ _______ _____ _____    ______ ____
ROOT
ATOM      1  C   UNL     1       1.408   2.916  20.796  0.00  0.00    +0.000 C 
ATOM      2  C   UNL     1       1.983   4.239  20.359  0.00  0.00    +0.000 A 
ATOM      3  C   UNL     1       1.218   5.401  20.615  0.00  0.00    +0.000 A 
ATOM      4  C   UNL     1       1.661   6.670  20.208  0.00  0.00    +0.000 A 
ATOM      5  C   UNL     1       2.877   6.817  19.532  0.00  0.00    +0.000 A 
ATOM      6  C   UNL     1       3.647   5.677  19.297  0.00  0.00    +0.000 A 
ATOM      7  C   UNL     1       3.228   4.414  19.695  0.00  0.00    +0.000 A 
ATOM      8  N   UNL     1       4.188   3.515  19.323  0.00  0.00    +0.000 N 
ATOM      9  C   UNL     1       4.268   2.058  19.484  0.00  0.00    +0.000 C 
ATOM     10  C   UNL     1       5.146   4.262  18.716  0.00  0.00    +0.000 A 
ATOM     11  N   UNL     1       6.226   3.778  18.210  0.00  0.00    +0.000 NA
ATOM     12  N   UNL     1       4.845   5.582  18.676  0.00  0.00    +0.000 N 
ATOM     13  H   UNL     1       6.455   2.776  18.233  0.00  0.00    +0.000 HD
ENDROOT
BRANCH  12  14
ATOM     14  C   UNL     1       5.663   6.617  18.020  0.00  0.00    +0.000 C 
BRANCH  14  15
ATOM     15  C   UNL     1       5.536   6.684  16.499  0.00  0.00    +0.000 C 
BRANCH  15  16
ATOM     16  O   UNL     1       6.605   6.109  15.835  0.00  0.00    +0.000 OA
BRANCH  16  17
ATOM     17  C   UNL     1       6.443   5.241  14.796  0.00  0.00    +0.000 A 
ATOM     18  C   UNL     1       5.294   4.435  14.749  0.00  0.00    +0.000 A 
ATOM     19  C   UNL     1       5.123   3.504  13.715  0.00  0.00    +0.000 A 
ATOM     20  C   UNL     1       6.091   3.381  12.711  0.00  0.00    +0.000 A 
ATOM     21 CL   UNL     1       5.888   2.212  11.420  0.00  0.00    +0.000 Cl
ATOM     22  C   UNL     1       7.226   4.191  12.737  0.00  0.00    +0.000 A 
ATOM     23  C   UNL     1       7.406   5.110  13.770  0.00  0.00    +0.000 A 
ENDBRANCH  16  17
ENDBRANCH  15  16
ENDBRANCH  14  15
ENDBRANCH  12  14
TORSDOF 4
ENDMDL
MODEL 2
REMARK VINA RESULT:      -7.0      3.032      4.317
REMARK  Name = 
REMARK  6 active torsions:
REMARK  status: ('A' for Active; 'I' for Inactive)
REMARK    1  A    between atoms: C_1  and  C_2
REMARK    2  A    between atoms: N_8  and  C_9
REMARK    3  A    between atoms: N_12  and  C_13
REMARK    4  A    between atoms: C_13  and  C_14
REMARK    5  A    between atoms: C_14  and  O_15
REMARK    6  A    between atoms: O_15  and  C_16
REMARK                            x       y       z     vdW  Elec       q    Type
REMARK                         _______ _______ _______ _____ _____    ______ ____
ROOT
ATOM      1  C   UNL     1       1.476   6.231  20.893  0.00  0.00    +0.000 C 
ATOM      2  C   UNL     1       2.263   6.360  19.613  0.00  0.00    +0.000 A 
ATOM      3  C   UNL     1       2.377   7.649  19.043  0.00  0.00    +0.000 A 
ATOM      4  C   UNL     1       3.061   7.853  17.834  0.00  0.00    +0.000 A 
ATOM      5  C   UNL     1       3.646   6.779  17.156  0.00  0.00    +0.000 A 
ATOM      6  C   UNL     1       3.555   5.507  17.725  0.00  0.00    +0.000 A 
ATOM      7  C   UNL     1       2.888   5.285  18.922  0.00  0.00    +0.000 A 
ATOM      8  N   UNL     1       2.971   3.952  19.211  0.00  0.00    +0.000 N 
ATOM      9  C   UNL     1       2.450   3.167  20.337  0.00  0.00    +0.000 C 
ATOM     10  C   UNL     1       3.682   3.419  18.184  0.00  0.00    +0.000 A 
ATOM     11  N   UNL     1       3.971   2.169  18.077  0.00  0.00    +0.000 NA
ATOM     12  N   UNL     1       4.046   4.337  17.256  0.00  0.00    +0.000 N 
ATOM     13  H   UNL     1       3.690   1.469  18.776  0.00  0.00    +0.000 HD
ENDROOT
BRANCH  12  14
ATOM     14  C   UNL     1       4.761   4.037  16.003  0.00  0.00    +0.000 C 
BRANCH  14  15
ATOM     15  C   UNL     1       6.284   4.133  16.080  0.00  0.00    +0.000 C 
BRANCH  15  16
ATOM     16  O   UNL     1       6.751   4.407  17.353  0.00  0.00    +0.000 OA
BRANCH  16  17
ATOM     17  C   UNL     1       7.281   5.615  17.696  0.00  0.00    +0.000 A 
ATOM     18  C   UNL     1       7.905   5.760  18.945  0.00  0.00    +0.000 A 
ATOM     19  C   UNL     1       8.421   7.003  19.340  0.00  0.00    +0.000 A 
ATOM     20  C   UNL     1       8.332   8.107  18.485  0.00  0.00    +0.000 A 
ATOM     21 CL   UNL     1       8.966   9.666  18.976  0.00  0.00    +0.000 Cl
ATOM     22  C   UNL     1       7.732   7.969  17.233  0.00  0.00    +0.000 A 
ATOM     23  C   UNL     1       7.206   6.738  16.841  0.00  0.00    +0.000 A 
ENDBRANCH  16  17
ENDBRANCH  15  16
ENDBRANCH  14  15
ENDBRANCH  12  14
TORSDOF 4
ENDMDL
MODEL 3
REMARK VINA RESULT:      -6.8      0.404      1.105
REMARK  Name = 
REMARK  6 active torsions:
REMARK  status: ('A' for Active; 'I' for Inactive)
REMARK    1  A    between atoms: C_1  and  C_2
REMARK    2  A    between atoms: N_8  and  C_9
REMARK    3  A    between atoms: N_12  and  C_13
REMARK    4  A    between atoms: C_13  and  C_14
REMARK    5  A    between atoms: C_14  and  O_15
REMARK    6  A    between atoms: O_15  and  C_16
REMARK                            x       y       z     vdW  Elec       q    Type
REMARK                         _______ _______ _______ _____ _____    ______ ____
ROOT
ATOM      1  C   UNL     1       1.475   2.756  20.825  0.00  0.00    +0.000 C 
ATOM      2  C   UNL     1       1.992   4.095  20.363  0.00  0.00    +0.000 A 
ATOM      3  C   UNL     1       1.282   5.247  20.775  0.00  0.00    +0.000 A 
ATOM      4  C   UNL     1       1.673   6.530  20.360  0.00  0.00    +0.000 A 
ATOM      5  C   UNL     1       2.779   6.703  19.522  0.00  0.00    +0.000 A 
ATOM      6  C   UNL     1       3.497   5.571  19.131  0.00  0.00    +0.000 A 
ATOM      7  C   UNL     1       3.129   4.294  19.533  0.00  0.00    +0.000 A 
ATOM      8  N   UNL     1       4.017   3.409  18.990  0.00  0.00    +0.000 N 
ATOM      9  C   UNL     1       4.108   1.946  19.078  0.00  0.00    +0.000 C 
ATOM     10  C   UNL     1       4.884   4.177  18.282  0.00  0.00    +0.000 A 
ATOM     11  N   UNL     1       5.875   3.713  17.605  0.00  0.00    +0.000 NA
ATOM     12  N   UNL     1       4.591   5.499  18.339  0.00  0.00    +0.000 N 
ATOM     13  H   UNL     1       6.096   2.710  17.554  0.00  0.00    +0.000 HD
ENDROOT
BRANCH  12  14
ATOM     14  C   UNL     1       5.315   6.558  17.615  0.00  0.00    +0.000 C 
BRANCH  14  15
ATOM     15  C   UNL     1       5.129   6.557  16.098  0.00  0.00    +0.000 C 
BRANCH  15  16
ATOM     16  O   UNL     1       6.269   6.186  15.408  0.00  0.00    +0.000 OA
BRANCH  16  17
ATOM     17  C   UNL     1       6.265   5.216  14.450  0.00  0.00    +0.000 A 
ATOM     18  C   UNL     1       7.366   5.099  13.587  0.00  0.00    +0.000 A 
ATOM     19  C   UNL     1       7.368   4.137  12.567  0.00  0.00    +0.000 A 
ATOM     20  C   UNL     1       6.278   3.273  12.411  0.00  0.00    +0.000 A 
ATOM     21 CL   UNL     1       6.270   2.075  11.131  0.00  0.00    +0.000 Cl
ATOM     22  C   UNL     1       5.187   3.368  13.275  0.00  0.00    +0.000 A 
ATOM     23  C   UNL     1       5.175   4.331  14.283  0.00  0.00    +0.000 A 
ENDBRANCH  16  17
ENDBRANCH  15  16
ENDBRANCH  14  15
ENDBRANCH  12  14
TORSDOF 4
ENDMDL
MODEL 4
REMARK VINA RESULT:      -6.8      4.797      7.288
REMARK  Name = 
REMARK  6 active torsions:
REMARK  status: ('A' for Active; 'I' for Inactive)
REMARK    1  A    between atoms: C_1  and  C_2
REMARK    2  A    between atoms: N_8  and  C_9
REMARK    3  A    between atoms: N_12  and  C_13
REMARK    4  A    between atoms: C_13  and  C_14
REMARK    5  A    between atoms: C_14  and  O_15
REMARK    6  A    between atoms: O_15  and  C_16
REMARK                            x       y       z     vdW  Elec       q    Type
REMARK                         _______ _______ _______ _____ _____    ______ ____
ROOT
ATOM      1  C   UNL     1       3.423   1.535  18.378  0.00  0.00    +0.000 C 
ATOM      2  C   UNL     1       2.794   2.746  19.019  0.00  0.00    +0.000 A 
ATOM      3  C   UNL     1       1.840   2.524  20.039  0.00  0.00    +0.000 A 
ATOM      4  C   UNL     1       1.178   3.593  20.663  0.00  0.00    +0.000 A 
ATOM      5  C   UNL     1       1.444   4.914  20.287  0.00  0.00    +0.000 A 
ATOM      6  C   UNL     1       2.402   5.141  19.296  0.00  0.00    +0.000 A 
ATOM      7  C   UNL     1       3.070   4.097  18.670  0.00  0.00    +0.000 A 
ATOM      8  N   UNL     1       3.931   4.636  17.756  0.00  0.00    +0.000 N 
ATOM      9  C   UNL     1       4.873   4.008  16.820  0.00  0.00    +0.000 C 
ATOM     10  C   UNL     1       3.753   5.978  17.861  0.00  0.00    +0.000 A 
ATOM     11  N   UNL     1       4.381   6.848  17.151  0.00  0.00    +0.000 NA
ATOM     12  N   UNL     1       2.822   6.320  18.785  0.00  0.00    +0.000 N 
ATOM     13  H   UNL     1       5.083   6.592  16.445  0.00  0.00    +0.000 HD
ENDROOT
BRANCH  12  14
ATOM     14  C   UNL     1       2.372   7.695  19.064  0.00  0.00    +0.000 C 
BRANCH  14  15
ATOM     15  C   UNL     1       1.782   8.445  17.870  0.00  0.00    +0.000 C 
BRANCH  15  16
ATOM     16  O   UNL     1       1.701   9.811  18.069  0.00  0.00    +0.000 OA
BRANCH  16  17
ATOM     17  C   UNL     1       0.581  10.417  18.558  0.00  0.00    +0.000 A 
ATOM     18  C   UNL     1      -0.667  10.104  17.998  0.00  0.00    +0.000 A 
ATOM     19  C   UNL     1      -1.829  10.743  18.454  0.00  0.00    +0.000 A 
ATOM     20  C   UNL     1      -1.755  11.689  19.483  0.00  0.00    +0.000 A 
ATOM     21 CL   UNL     1      -3.202  12.500  20.050  0.00  0.00    +0.000 Cl
ATOM     22  C   UNL     1      -0.522  11.994  20.059  0.00  0.00    +0.000 A 
ATOM     23  C   UNL     1       0.637  11.369  19.601  0.00  0.00    +0.000 A 
ENDBRANCH  16  17
ENDBRANCH  15  16
ENDBRANCH  14  15
ENDBRANCH  12  14
TORSDOF 4
ENDMDL
MODEL 5
REMARK VINA RESULT:      -6.6      5.068      8.188
REMARK  Name = 
REMARK  6 active torsions:
REMARK  status: ('A' for Active; 'I' for Inactive)
REMARK    1  A    between atoms: C_1  and  C_2
REMARK    2  A    between atoms: N_8  and  C_9
REMARK    3  A    between atoms: N_12  and  C_13
REMARK    4  A    between atoms: C_13  and  C_14
REMARK    5  A    between atoms: C_14  and  O_15
REMARK    6  A    between atoms: O_15  and  C_16
REMARK                            x       y       z     vdW  Elec       q    Type
REMARK                         _______ _______ _______ _____ _____    ______ ____
ROOT
ATOM      1  C   UNL     1       3.384   1.704  18.120  0.00  0.00    +0.000 C 
ATOM      2  C   UNL     1       2.748   2.798  18.938  0.00  0.00    +0.000 A 
ATOM      3  C   UNL     1       1.851   2.413  19.962  0.00  0.00    +0.000 A 
ATOM      4  C   UNL     1       1.187   3.368  20.746  0.00  0.00    +0.000 A 
ATOM      5  C   UNL     1       1.392   4.735  20.532  0.00  0.00    +0.000 A 
ATOM      6  C   UNL     1       2.293   5.122  19.538  0.00  0.00    +0.000 A 
ATOM      7  C   UNL     1       2.963   4.193  18.754  0.00  0.00    +0.000 A 
ATOM      8  N   UNL     1       3.762   4.875  17.880  0.00  0.00    +0.000 N 
ATOM      9  C   UNL     1       4.677   4.408  16.831  0.00  0.00    +0.000 C 
ATOM     10  C   UNL     1       3.546   6.186  18.165  0.00  0.00    +0.000 A 
ATOM     11  N   UNL     1       4.111   7.162  17.546  0.00  0.00    +0.000 NA
ATOM     12  N   UNL     1       2.650   6.371  19.164  0.00  0.00    +0.000 N 
ATOM     13  H   UNL     1       4.786   7.024  16.783  0.00  0.00    +0.000 HD
ENDROOT
BRANCH  12  14
ATOM     14  C   UNL     1       2.170   7.682  19.638  0.00  0.00    +0.000 C 
BRANCH  14  15
ATOM     15  C   UNL     1       1.203   7.636  20.820  0.00  0.00    +0.000 C 
BRANCH  15  16
ATOM     16  O   UNL     1       1.420   8.644  21.743  0.00  0.00    +0.000 OA
BRANCH  16  17
ATOM     17  C   UNL     1       0.563   9.694  21.897  0.00  0.00    +0.000 A 
ATOM     18  C   UNL     1      -0.249   9.753  23.041  0.00  0.00    +0.000 A 
ATOM     19  C   UNL     1      -1.167  10.799  23.204  0.00  0.00    +0.000 A 
ATOM     20  C   UNL     1      -1.272  11.803  22.235  0.00  0.00    +0.000 A 
ATOM     21 CL   UNL     1      -2.426  13.109  22.428  0.00  0.00    +0.000 Cl
ATOM     22  C   UNL     1      -0.456  11.764  21.104  0.00  0.00    +0.000 A 
ATOM     23  C   UNL     1       0.451  10.719  20.932  0.00  0.00    +0.000 A 
ENDBRANCH  16  17
ENDBRANCH  15  16
ENDBRANCH  14  15
ENDBRANCH  12  14
TORSDOF 4
ENDMDL
MODEL 6
REMARK VINA RESULT:      -6.6      4.965      7.520
REMARK  Name = 
REMARK  6 active torsions:
REMARK  status: ('A' for Active; 'I' for Inactive)
REMARK    1  A    between atoms: C_1  and  C_2
REMARK    2  A    between atoms: N_8  and  C_9
REMARK    3  A    between atoms: N_12  and  C_13
REMARK    4  A    between atoms: C_13  and  C_14
REMARK    5  A    between atoms: C_14  and  O_15
REMARK    6  A    between atoms: O_15  and  C_16
REMARK                            x       y       z     vdW  Elec       q    Type
REMARK                         _______ _______ _______ _____ _____    ______ ____
ROOT
ATOM      1  C   UNL     1       3.479   2.124  19.307  0.00  0.00    +0.000 C 
ATOM      2  C   UNL     1       3.665   3.386  18.502  0.00  0.00    +0.000 A 
ATOM      3  C   UNL     1       4.375   3.286  17.284  0.00  0.00    +0.000 A 
ATOM      4  C   UNL     1       4.626   4.417  16.491  0.00  0.00    +0.000 A 
ATOM      5  C   UNL     1       4.180   5.681  16.891  0.00  0.00    +0.000 A 
ATOM      6  C   UNL     1       3.459   5.783  18.083  0.00  0.00    +0.000 A 
ATOM      7  C   UNL     1       3.197   4.676  18.878  0.00  0.00    +0.000 A 
ATOM      8  N   UNL     1       2.483   5.096  19.964  0.00  0.00    +0.000 N 
ATOM      9  C   UNL     1       1.946   4.363  21.118  0.00  0.00    +0.000 C 
ATOM     10  C   UNL     1       2.340   6.435  19.788  0.00  0.00    +0.000 A 
ATOM     11  N   UNL     1       1.727   7.211  20.611  0.00  0.00    +0.000 NA
ATOM     12  N   UNL     1       2.930   6.888  18.655  0.00  0.00    +0.000 N 
ATOM     13  H   UNL     1       1.283   6.872  21.475  0.00  0.00    +0.000 HD
ENDROOT
BRANCH  12  14
ATOM     14  C   UNL     1       2.997   8.300  18.242  0.00  0.00    +0.000 C 
BRANCH  14  15
ATOM     15  C   UNL     1       1.681   8.901  17.750  0.00  0.00    +0.000 C 
BRANCH  15  16
ATOM     16  O   UNL     1       1.068   9.715  18.686  0.00  0.00    +0.000 OA
BRANCH  16  17
ATOM     17  C   UNL     1      -0.193  10.205  18.517  0.00  0.00    +0.000 A 
ATOM     18  C   UNL     1      -0.655  11.216  19.374  0.00  0.00    +0.000 A 
ATOM     19  C   UNL     1      -1.962  11.709  19.250  0.00  0.00    +0.000 A 
ATOM     20  C   UNL     1      -2.813  11.207  18.259  0.00  0.00    +0.000 A 
ATOM     21 CL   UNL     1      -4.452  11.811  18.104  0.00  0.00    +0.000 Cl
ATOM     22  C   UNL     1      -2.358  10.216  17.389  0.00  0.00    +0.000 A 
ATOM     23  C   UNL     1      -1.063   9.715  17.517  0.00  0.00    +0.000 A 
ENDBRANCH  16  17
ENDBRANCH  15  16
ENDBRANCH  14  15
ENDBRANCH  12  14
TORSDOF 4
ENDMDL
MODEL 7
REMARK VINA RESULT:      -6.5      4.888      7.318
REMARK  Name = 
REMARK  6 active torsions:
REMARK  status: ('A' for Active; 'I' for Inactive)
REMARK    1  A    between atoms: C_1  and  C_2
REMARK    2  A    between atoms: N_8  and  C_9
REMARK    3  A    between atoms: N_12  and  C_13
REMARK    4  A    between atoms: C_13  and  C_14
REMARK    5  A    between atoms: C_14  and  O_15
REMARK    6  A    between atoms: O_15  and  C_16
REMARK                            x       y       z     vdW  Elec       q    Type
REMARK                         _______ _______ _______ _____ _____    ______ ____
ROOT
ATOM      1  C   UNL     1       3.456   1.655  18.112  0.00  0.00    +0.000 C 
ATOM      2  C   UNL     1       2.904   2.916  18.726  0.00  0.00    +0.000 A 
ATOM      3  C   UNL     1       1.968   2.777  19.777  0.00  0.00    +0.000 A 
ATOM      4  C   UNL     1       1.378   3.898  20.381  0.00  0.00    +0.000 A 
ATOM      5  C   UNL     1       1.699   5.190  19.953  0.00  0.00    +0.000 A 
ATOM      6  C   UNL     1       2.639   5.336  18.931  0.00  0.00    +0.000 A 
ATOM      7  C   UNL     1       3.237   4.240  18.324  0.00  0.00    +0.000 A 
ATOM      8  N   UNL     1       4.099   4.704  17.370  0.00  0.00    +0.000 N 
ATOM      9  C   UNL     1       4.983   3.999  16.434  0.00  0.00    +0.000 C 
ATOM     10  C   UNL     1       3.990   6.056  17.434  0.00  0.00    +0.000 A 
ATOM     11  N   UNL     1       4.642   6.869  16.678  0.00  0.00    +0.000 NA
ATOM     12  N   UNL     1       3.103   6.474  18.368  0.00  0.00    +0.000 N 
ATOM     13  H   UNL     1       5.311   6.555  15.964  0.00  0.00    +0.000 HD
ENDROOT
BRANCH  12  14
ATOM     14  C   UNL     1       2.729   7.879  18.611  0.00  0.00    +0.000 C 
BRANCH  14  15
ATOM     15  C   UNL     1       1.453   8.346  17.913  0.00  0.00    +0.000 C 
BRANCH  15  16
ATOM     16  O   UNL     1       1.259   9.714  17.987  0.00  0.00    +0.000 OA
BRANCH  16  17
ATOM     17  C   UNL     1       0.037  10.269  18.228  0.00  0.00    +0.000 A 
ATOM     18  C   UNL     1      -0.094  11.216  19.255  0.00  0.00    +0.000 A 
ATOM     19  C   UNL     1      -1.347  11.772  19.551  0.00  0.00    +0.000 A 
ATOM     20  C   UNL     1      -2.476  11.397  18.814  0.00  0.00    +0.000 A 
ATOM     21 CL   UNL     1      -4.048  12.081  19.185  0.00  0.00    +0.000 Cl
ATOM     22  C   UNL     1      -2.353  10.472  17.778  0.00  0.00    +0.000 A 
ATOM     23  C   UNL     1      -1.112   9.908  17.488  0.00  0.00    +0.000 A 
ENDBRANCH  16  17
ENDBRANCH  15  16
ENDBRANCH  14  15
ENDBRANCH  12  14
TORSDOF 4
ENDMDL
MODEL 8
REMARK VINA RESULT:      -6.5      4.593      5.928
REMARK  Name = 
REMARK  6 active torsions:
REMARK  status: ('A' for Active; 'I' for Inactive)
REMARK    1  A    between atoms: C_1  and  C_2
REMARK    2  A    between atoms: N_8  and  C_9
REMARK    3  A    between atoms: N_12  and  C_13
REMARK    4  A    between atoms: C_13  and  C_14
REMARK    5  A    between atoms: C_14  and  O_15
REMARK    6  A    between atoms: O_15  and  C_16
REMARK                            x       y       z     vdW  Elec       q    Type
REMARK                         _______ _______ _______ _____ _____    ______ ____
ROOT
ATOM      1  C   UNL     1       1.934   4.343  19.948  0.00  0.00    +0.000 C 
ATOM      2  C   UNL     1       2.645   5.428  19.179  0.00  0.00    +0.000 A 
ATOM      3  C   UNL     1       1.904   6.583  18.840  0.00  0.00    +0.000 A 
ATOM      4  C   UNL     1       2.477   7.625  18.094  0.00  0.00    +0.000 A 
ATOM      5  C   UNL     1       3.805   7.544  17.660  0.00  0.00    +0.000 A 
ATOM      6  C   UNL     1       4.549   6.416  18.010  0.00  0.00    +0.000 A 
ATOM      7  C   UNL     1       4.001   5.377  18.751  0.00  0.00    +0.000 A 
ATOM      8  N   UNL     1       4.969   4.428  18.926  0.00  0.00    +0.000 N 
ATOM      9  C   UNL     1       4.946   3.134  19.620  0.00  0.00    +0.000 C 
ATOM     10  C   UNL     1       6.060   4.923  18.288  0.00  0.00    +0.000 A 
ATOM     11  N   UNL     1       7.191   4.315  18.212  0.00  0.00    +0.000 NA
ATOM     12  N   UNL     1       5.836   6.129  17.711  0.00  0.00    +0.000 N 
ATOM     13  H   UNL     1       7.362   3.397  18.643  0.00  0.00    +0.000 HD
ENDROOT
BRANCH  12  14
ATOM     14  C   UNL     1       6.813   6.871  16.895  0.00  0.00    +0.000 C 
BRANCH  14  15
ATOM     15  C   UNL     1       7.811   7.720  17.681  0.00  0.00    +0.000 C 
BRANCH  15  16
ATOM     16  O   UNL     1       7.434   9.046  17.792  0.00  0.00    +0.000 OA
BRANCH  16  17
ATOM     17  C   UNL     1       8.300  10.027  18.176  0.00  0.00    +0.000 A 
ATOM     18  C   UNL     1       9.199   9.775  19.224  0.00  0.00    +0.000 A 
ATOM     19  C   UNL     1      10.071  10.780  19.666  0.00  0.00    +0.000 A 
ATOM     20  C   UNL     1      10.064  12.039  19.054  0.00  0.00    +0.000 A 
ATOM     21 CL   UNL     1      11.145  13.303  19.609  0.00  0.00    +0.000 Cl
ATOM     22  C   UNL     1       9.189  12.293  17.999  0.00  0.00    +0.000 A 
ATOM     23  C   UNL     1       8.311  11.301  17.564  0.00  0.00    +0.000 A 
ENDBRANCH  16  17
ENDBRANCH  15  16
ENDBRANCH  14  15
ENDBRANCH  12  14
TORSDOF 4
ENDMDL
MODEL 9
REMARK VINA RESULT:      -6.4      3.203      6.351
REMARK  Name = 
REMARK  6 active torsions:
REMARK  status: ('A' for Active; 'I' for Inactive)
REMARK    1  A    between atoms: C_1  and  C_2
REMARK    2  A    between atoms: N_8  and  C_9
REMARK    3  A    between atoms: N_12  and  C_13
REMARK    4  A    between atoms: C_13  and  C_14
REMARK    5  A    between atoms: C_14  and  O_15
REMARK    6  A    between atoms: O_15  and  C_16
REMARK                            x       y       z     vdW  Elec       q    Type
REMARK                         _______ _______ _______ _____ _____    ______ ____
ROOT
ATOM      1  C   UNL     1       7.438   6.901  16.985  0.00  0.00    +0.000 C 
ATOM      2  C   UNL     1       6.575   5.773  16.481  0.00  0.00    +0.000 A 
ATOM      3  C   UNL     1       6.388   5.666  15.083  0.00  0.00    +0.000 A 
ATOM      4  C   UNL     1       5.570   4.668  14.531  0.00  0.00    +0.000 A 
ATOM      5  C   UNL     1       4.912   3.749  15.355  0.00  0.00    +0.000 A 
ATOM      6  C   UNL     1       5.111   3.834  16.734  0.00  0.00    +0.000 A 
ATOM      7  C   UNL     1       5.919   4.812  17.299  0.00  0.00    +0.000 A 
ATOM      8  N   UNL     1       5.909   4.636  18.654  0.00  0.00    +0.000 N 
ATOM      9  C   UNL     1       6.575   5.373  19.735  0.00  0.00    +0.000 C 
ATOM     10  C   UNL     1       5.099   3.565  18.859  0.00  0.00    +0.000 A 
ATOM     11  N   UNL     1       4.819   3.082  20.018  0.00  0.00    +0.000 NA
ATOM     12  N   UNL     1       4.589   3.057  17.710  0.00  0.00    +0.000 N 
ATOM     13  H   UNL     1       5.199   3.468  20.892  0.00  0.00    +0.000 HD
ENDROOT
BRANCH  12  14
ATOM     14  C   UNL     1       3.628   1.943  17.631  0.00  0.00    +0.000 C 
BRANCH  14  15
ATOM     15  C   UNL     1       2.177   2.308  17.940  0.00  0.00    +0.000 C 
BRANCH  15  16
ATOM     16  O   UNL     1       1.842   3.593  17.552  0.00  0.00    +0.000 OA
BRANCH  16  17
ATOM     17  C   UNL     1       1.867   4.650  18.413  0.00  0.00    +0.000 A 
ATOM     18  C   UNL     1       1.424   4.469  19.733  0.00  0.00    +0.000 A 
ATOM     19  C   UNL     1       1.400   5.549  20.627  0.00  0.00    +0.000 A 
ATOM     20  C   UNL     1       1.833   6.815  20.215  0.00  0.00    +0.000 A 
ATOM     21 CL   UNL     1       1.796   8.172  21.324  0.00  0.00    +0.000 Cl
ATOM     22  C   UNL     1       2.293   7.001  18.912  0.00  0.00    +0.000 A 
ATOM     23  C   UNL     1       2.308   5.933  18.016  0.00  0.00    +0.000 A 
ENDBRANCH  16  17
ENDBRANCH  15  16
ENDBRANCH  14  15
ENDBRANCH  12  14
TORSDOF 4
ENDMDL
