MODEL 1
REMARK VINA RESULT:      -6.4      0.000      0.000
REMARK  Name = 
REMARK  12 active torsions:
REMARK  status: ('A' for Active; 'I' for Inactive)
REMARK    1  A    between atoms: C_1  and  C_2
REMARK    2  A    between atoms: C_2  and  C_3
REMARK    3  A    between atoms: C_3  and  C_4
REMARK    4  A    between atoms: C_5  and  C_6
REMARK    5  A    between atoms: C_6  and  O_8
REMARK    6  A    between atoms: O_8  and  C_9
REMARK    7  A    between atoms: C_9  and  C_10
REMARK    8  A    between atoms: C_11  and  C_12
REMARK    9  A    between atoms: C_12  and  O_14
REMARK   10  A    between atoms: O_14  and  C_15
REMARK   11  A    between atoms: C_15  and  C_16
REMARK   12  A    between atoms: C_18  and  C_19
REMARK                            x       y       z     vdW  Elec       q    Type
REMARK                         _______ _______ _______ _____ _____    ______ ____
ROOT
ATOM      1  C   UNL     1      -4.047  11.513  18.515  0.00  0.00    +0.000 A 
ATOM      2  C   UNL     1      -5.327  11.848  18.946  0.00  0.00    +0.000 A 
ATOM      3  C   UNL     1      -5.161  12.657  20.138  0.00  0.00    +0.000 A 
ATOM      4  C   UNL     1      -3.789  12.899  20.270  0.00  0.00    +0.000 A 
ATOM      5  C   UNL     1      -2.918  13.604  21.174  0.00  0.00    +0.000 A 
ATOM      6  N   UNL     1      -1.635  13.493  21.021  0.00  0.00    +0.000 NA
ATOM      7  C   UNL     1      -1.092  12.746  20.016  0.00  0.00    +0.000 A 
ATOM      8  N   UNL     1       0.285  12.692  19.945  0.00  0.00    +0.000 N 
ATOM      9  C   UNL     1       1.164  13.272  20.966  0.00  0.00    +0.000 C 
ATOM     10  C   UNL     1       2.254  14.109  20.284  0.00  0.00    +0.000 C 
ATOM     11  O   UNL     1       2.991  13.331  19.325  0.00  0.00    +0.000 OA
ATOM     12  C   UNL     1       2.105  12.813  18.316  0.00  0.00    +0.000 C 
ATOM     13  C   UNL     1       1.011  11.927  18.930  0.00  0.00    +0.000 C 
ATOM     14  N   UNL     1      -1.812  12.109  19.138  0.00  0.00    +0.000 NA
ATOM     15  N   UNL     1      -3.144  12.191  19.291  0.00  0.00    +0.000 N 
ENDROOT
BRANCH   5  16
ATOM     16  C   UNL     1      -3.374  14.465  22.296  0.00  0.00    +0.000 A 
ATOM     17  C   UNL     1      -3.110  14.038  23.608  0.00  0.00    +0.000 A 
ATOM     18  C   UNL     1      -3.542  14.793  24.698  0.00  0.00    +0.000 A 
ATOM     19  C   UNL     1      -4.249  15.972  24.482  0.00  0.00    +0.000 A 
ATOM     20  C   UNL     1      -4.468  16.429  23.182  0.00  0.00    +0.000 A 
ATOM     21  C   UNL     1      -3.997  15.698  22.089  0.00  0.00    +0.000 A 
ENDBRANCH   5  16
BRANCH   2  22
ATOM     22  C   UNL     1      -6.546  11.348  18.307  0.00  0.00    +0.000 C 
ATOM     23  O   UNL     1      -7.082  10.289  18.610  0.00  0.00    +0.000 OA
BRANCH  22  24
ATOM     24  O   UNL     1      -6.918  12.104  17.242  0.00  0.00    +0.000 OA
BRANCH  24  25
ATOM     25  C   UNL     1      -7.581  13.337  17.551  0.00  0.00    +0.000 C 
ATOM     26  C   UNL     1      -6.930  14.424  16.717  0.00  0.00    +0.000 C 
ENDBRANCH  24  25
ENDBRANCH  22  24
ENDBRANCH   2  22
BRANCH   3  27
ATOM     27  C   UNL     1      -6.210  12.984  21.105  0.00  0.00    +0.000 C 
ATOM     28  O   UNL     1      -6.914  13.983  20.996  0.00  0.00    +0.000 OA
BRANCH  27  29
ATOM     29  O   UNL     1      -6.280  12.125  22.156  0.00  0.00    +0.000 OA
BRANCH  29  30
ATOM     30  C   UNL     1      -7.393  12.302  23.051  0.00  0.00    +0.000 C 
ATOM     31  C   UNL     1      -7.023  13.139  24.258  0.00  0.00    +0.000 C 
ENDBRANCH  29  30
ENDBRANCH  27  29
ENDBRANCH   3  27
BRANCH   1  32
ATOM     32  C   UNL     1      -3.596  10.548  17.455  0.00  0.00    +0.000 C 
BRANCH  32  34
ATOM     33  C   UNL     1      -2.932  10.251  15.054  0.00  0.00    +0.000 C 
ATOM     34  C   UNL     1      -3.700  11.119  16.042  0.00  0.00    +0.000 C 
ENDBRANCH  32  34
ENDBRANCH   1  32
TORSDOF 9
ENDMDL
MODEL 2
REMARK VINA RESULT:      -6.2      8.046     12.251
REMARK  Name = 
REMARK  12 active torsions:
REMARK  status: ('A' for Active; 'I' for Inactive)
REMARK    1  A    between atoms: C_1  and  C_2
REMARK    2  A    between atoms: C_2  and  C_3
REMARK    3  A    between atoms: C_3  and  C_4
REMARK    4  A    between atoms: C_5  and  C_6
REMARK    5  A    between atoms: C_6  and  O_8
REMARK    6  A    between atoms: O_8  and  C_9
REMARK    7  A    between atoms: C_9  and  C_10
REMARK    8  A    between atoms: C_11  and  C_12
REMARK    9  A    between atoms: C_12  and  O_14
REMARK   10  A    between atoms: O_14  and  C_15
REMARK   11  A    between atoms: C_15  and  C_16
REMARK   12  A    between atoms: C_18  and  C_19
REMARK                            x       y       z     vdW  Elec       q    Type
REMARK                         _______ _______ _______ _____ _____    ______ ____
ROOT
ATOM      1  C   UNL     1       5.658   6.653  17.122  0.00  0.00    +0.000 A 
ATOM      2  C   UNL     1       5.924   5.289  17.043  0.00  0.00    +0.000 A 
ATOM      3  C   UNL     1       4.830   4.617  17.716  0.00  0.00    +0.000 A 
ATOM      4  C   UNL     1       3.884   5.601  18.024  0.00  0.00    +0.000 A 
ATOM      5  C   UNL     1       2.594   5.671  18.660  0.00  0.00    +0.000 A 
ATOM      6  N   UNL     1       2.062   6.835  18.871  0.00  0.00    +0.000 NA
ATOM      7  C   UNL     1       2.683   7.989  18.490  0.00  0.00    +0.000 A 
ATOM      8  N   UNL     1       2.032   9.174  18.766  0.00  0.00    +0.000 N 
ATOM      9  C   UNL     1       0.802   9.247  19.561  0.00  0.00    +0.000 C 
ATOM     10  C   UNL     1      -0.225  10.123  18.832  0.00  0.00    +0.000 C 
ATOM     11  O   UNL     1       0.305  11.429  18.547  0.00  0.00    +0.000 OA
ATOM     12  C   UNL     1       1.485  11.322  17.731  0.00  0.00    +0.000 C 
ATOM     13  C   UNL     1       2.575  10.490  18.424  0.00  0.00    +0.000 C 
ATOM     14  N   UNL     1       3.832   8.007  17.878  0.00  0.00    +0.000 NA
ATOM     15  N   UNL     1       4.412   6.813  17.669  0.00  0.00    +0.000 N 
ENDROOT
BRANCH   5  16
ATOM     16  C   UNL     1       1.802   4.496  19.108  0.00  0.00    +0.000 A 
ATOM     17  C   UNL     1       1.608   4.315  20.487  0.00  0.00    +0.000 A 
ATOM     18  C   UNL     1       0.899   3.212  20.964  0.00  0.00    +0.000 A 
ATOM     19  C   UNL     1       0.389   2.281  20.064  0.00  0.00    +0.000 A 
ATOM     20  C   UNL     1       0.532   2.483  18.691  0.00  0.00    +0.000 A 
ATOM     21  C   UNL     1       1.203   3.609  18.210  0.00  0.00    +0.000 A 
ENDBRANCH   5  16
BRANCH   2  22
ATOM     22  C   UNL     1       7.150   4.743  16.458  0.00  0.00    +0.000 C 
ATOM     23  O   UNL     1       8.116   4.388  17.123  0.00  0.00    +0.000 OA
BRANCH  22  24
ATOM     24  O   UNL     1       7.158   4.827  15.103  0.00  0.00    +0.000 OA
BRANCH  24  25
ATOM     25  C   UNL     1       6.162   4.054  14.422  0.00  0.00    +0.000 C 
ATOM     26  C   UNL     1       6.588   3.939  12.971  0.00  0.00    +0.000 C 
ENDBRANCH  24  25
ENDBRANCH  22  24
ENDBRANCH   2  22
BRANCH   3  27
ATOM     27  C   UNL     1       4.819   3.218  18.149  0.00  0.00    +0.000 C 
ATOM     28  O   UNL     1       4.421   2.311  17.426  0.00  0.00    +0.000 OA
BRANCH  27  29
ATOM     29  O   UNL     1       5.222   3.035  19.434  0.00  0.00    +0.000 OA
BRANCH  29  30
ATOM     30  C   UNL     1       4.440   2.121  20.223  0.00  0.00    +0.000 C 
ATOM     31  C   UNL     1       5.308   1.235  21.093  0.00  0.00    +0.000 C 
ENDBRANCH  29  30
ENDBRANCH  27  29
ENDBRANCH   3  27
BRANCH   1  32
ATOM     32  C   UNL     1       6.516   7.836  16.775  0.00  0.00    +0.000 C 
BRANCH  32  34
ATOM     33  C   UNL     1       8.146   9.389  17.880  0.00  0.00    +0.000 C 
ATOM     34  C   UNL     1       7.777   7.932  17.630  0.00  0.00    +0.000 C 
ENDBRANCH  32  34
ENDBRANCH   1  32
TORSDOF 9
ENDMDL
MODEL 3
REMARK VINA RESULT:      -6.2      1.004      2.129
REMARK  Name = 
REMARK  12 active torsions:
REMARK  status: ('A' for Active; 'I' for Inactive)
REMARK    1  A    between atoms: C_1  and  C_2
REMARK    2  A    between atoms: C_2  and  C_3
REMARK    3  A    between atoms: C_3  and  C_4
REMARK    4  A    between atoms: C_5  and  C_6
REMARK    5  A    between atoms: C_6  and  O_8
REMARK    6  A    between atoms: O_8  and  C_9
REMARK    7  A    between atoms: C_9  and  C_10
REMARK    8  A    between atoms: C_11  and  C_12
REMARK    9  A    between atoms: C_12  and  O_14
REMARK   10  A    between atoms: O_14  and  C_15
REMARK   11  A    between atoms: C_15  and  C_16
REMARK   12  A    between atoms: C_18  and  C_19
REMARK                            x       y       z     vdW  Elec       q    Type
REMARK                         _______ _______ _______ _____ _____    ______ ____
ROOT
ATOM      1  C   UNL     1      -3.833  11.504  18.583  0.00  0.00    +0.000 A 
ATOM      2  C   UNL     1      -5.105  11.758  19.085  0.00  0.00    +0.000 A 
ATOM      3  C   UNL     1      -4.924  12.568  20.274  0.00  0.00    +0.000 A 
ATOM      4  C   UNL     1      -3.564  12.891  20.336  0.00  0.00    +0.000 A 
ATOM      5  C   UNL     1      -2.689  13.641  21.199  0.00  0.00    +0.000 A 
ATOM      6  N   UNL     1      -1.412  13.609  20.977  0.00  0.00    +0.000 NA
ATOM      7  C   UNL     1      -0.880  12.903  19.937  0.00  0.00    +0.000 A 
ATOM      8  N   UNL     1       0.492  12.932  19.793  0.00  0.00    +0.000 N 
ATOM      9  C   UNL     1       1.388  13.558  20.771  0.00  0.00    +0.000 C 
ATOM     10  C   UNL     1       2.388  14.463  20.040  0.00  0.00    +0.000 C 
ATOM     11  O   UNL     1       3.118  13.737  19.036  0.00  0.00    +0.000 OA
ATOM     12  C   UNL     1       2.212  13.174  18.070  0.00  0.00    +0.000 C 
ATOM     13  C   UNL     1       1.207  12.219  18.733  0.00  0.00    +0.000 C 
ATOM     14  N   UNL     1      -1.607  12.230  19.093  0.00  0.00    +0.000 NA
ATOM     15  N   UNL     1      -2.932  12.230  19.317  0.00  0.00    +0.000 N 
ENDROOT
BRANCH   5  16
ATOM     16  C   UNL     1      -3.135  14.466  22.352  0.00  0.00    +0.000 A 
ATOM     17  C   UNL     1      -3.637  15.752  22.091  0.00  0.00    +0.000 A 
ATOM     18  C   UNL     1      -4.040  16.580  23.138  0.00  0.00    +0.000 A 
ATOM     19  C   UNL     1      -3.937  16.130  24.451  0.00  0.00    +0.000 A 
ATOM     20  C   UNL     1      -3.490  14.834  24.713  0.00  0.00    +0.000 A 
ATOM     21  C   UNL     1      -3.127  13.988  23.664  0.00  0.00    +0.000 A 
ENDBRANCH   5  16
BRANCH   2  22
ATOM     22  C   UNL     1      -6.324  11.190  18.507  0.00  0.00    +0.000 C 
ATOM     23  O   UNL     1      -7.105  11.830  17.813  0.00  0.00    +0.000 OA
BRANCH  22  24
ATOM     24  O   UNL     1      -6.573   9.933  18.958  0.00  0.00    +0.000 OA
BRANCH  24  25
ATOM     25  C   UNL     1      -7.545   9.826  20.006  0.00  0.00    +0.000 C 
ATOM     26  C   UNL     1      -7.517   8.394  20.506  0.00  0.00    +0.000 C 
ENDBRANCH  24  25
ENDBRANCH  22  24
ENDBRANCH   2  22
BRANCH   3  27
ATOM     27  C   UNL     1      -5.938  12.825  21.299  0.00  0.00    +0.000 C 
ATOM     28  O   UNL     1      -6.217  12.002  22.165  0.00  0.00    +0.000 OA
BRANCH  27  29
ATOM     29  O   UNL     1      -6.576  14.017  21.158  0.00  0.00    +0.000 OA
BRANCH  29  30
ATOM     30  C   UNL     1      -7.854  13.980  20.499  0.00  0.00    +0.000 C 
ATOM     31  C   UNL     1      -7.916  14.938  19.326  0.00  0.00    +0.000 C 
ENDBRANCH  29  30
ENDBRANCH  27  29
ENDBRANCH   3  27
BRANCH   1  32
ATOM     32  C   UNL     1      -3.382  10.575  17.491  0.00  0.00    +0.000 C 
BRANCH  32  34
ATOM     33  C   UNL     1      -2.939  10.249  15.044  0.00  0.00    +0.000 C 
ATOM     34  C   UNL     1      -3.552  11.167  16.094  0.00  0.00    +0.000 C 
ENDBRANCH  32  34
ENDBRANCH   1  32
TORSDOF 9
ENDMDL
MODEL 4
REMARK VINA RESULT:      -6.2      0.724      1.247
REMARK  Name = 
REMARK  12 active torsions:
REMARK  status: ('A' for Active; 'I' for Inactive)
REMARK    1  A    between atoms: C_1  and  C_2
REMARK    2  A    between atoms: C_2  and  C_3
REMARK    3  A    between atoms: C_3  and  C_4
REMARK    4  A    between atoms: C_5  and  C_6
REMARK    5  A    between atoms: C_6  and  O_8
REMARK    6  A    between atoms: O_8  and  C_9
REMARK    7  A    between atoms: C_9  and  C_10
REMARK    8  A    between atoms: C_11  and  C_12
REMARK    9  A    between atoms: C_12  and  O_14
REMARK   10  A    between atoms: O_14  and  C_15
REMARK   11  A    between atoms: C_15  and  C_16
REMARK   12  A    between atoms: C_18  and  C_19
REMARK                            x       y       z     vdW  Elec       q    Type
REMARK                         _______ _______ _______ _____ _____    ______ ____
ROOT
ATOM      1  C   UNL     1      -3.797  11.457  18.431  0.00  0.00    +0.000 A 
ATOM      2  C   UNL     1      -5.068  11.731  18.929  0.00  0.00    +0.000 A 
ATOM      3  C   UNL     1      -4.876  12.471  20.161  0.00  0.00    +0.000 A 
ATOM      4  C   UNL     1      -3.507  12.742  20.257  0.00  0.00    +0.000 A 
ATOM      5  C   UNL     1      -2.620  13.415  21.169  0.00  0.00    +0.000 A 
ATOM      6  N   UNL     1      -1.341  13.349  20.963  0.00  0.00    +0.000 NA
ATOM      7  C   UNL     1      -0.818  12.678  19.896  0.00  0.00    +0.000 A 
ATOM      8  N   UNL     1       0.556  12.666  19.771  0.00  0.00    +0.000 N 
ATOM      9  C   UNL     1       1.458  13.208  20.792  0.00  0.00    +0.000 C 
ATOM     10  C   UNL     1       2.501  14.113  20.123  0.00  0.00    +0.000 C 
ATOM     11  O   UNL     1       3.219  13.414  19.092  0.00  0.00    +0.000 OA
ATOM     12  C   UNL     1       2.309  12.933  18.086  0.00  0.00    +0.000 C 
ATOM     13  C   UNL     1       1.261  11.983  18.686  0.00  0.00    +0.000 C 
ATOM     14  N   UNL     1      -1.555  12.075  19.008  0.00  0.00    +0.000 NA
ATOM     15  N   UNL     1      -2.883  12.112  19.214  0.00  0.00    +0.000 N 
ENDROOT
BRANCH   5  16
ATOM     16  C   UNL     1      -3.054  14.196  22.357  0.00  0.00    +0.000 A 
ATOM     17  C   UNL     1      -3.318  15.565  22.189  0.00  0.00    +0.000 A 
ATOM     18  C   UNL     1      -3.699  16.351  23.276  0.00  0.00    +0.000 A 
ATOM     19  C   UNL     1      -3.809  15.774  24.538  0.00  0.00    +0.000 A 
ATOM     20  C   UNL     1      -3.601  14.404  24.701  0.00  0.00    +0.000 A 
ATOM     21  C   UNL     1      -3.262  13.607  23.606  0.00  0.00    +0.000 A 
ENDBRANCH   5  16
BRANCH   2  22
ATOM     22  C   UNL     1      -6.297  11.237  18.306  0.00  0.00    +0.000 C 
ATOM     23  O   UNL     1      -6.812  10.160  18.587  0.00  0.00    +0.000 OA
BRANCH  22  24
ATOM     24  O   UNL     1      -6.707  12.023  17.278  0.00  0.00    +0.000 OA
BRANCH  24  25
ATOM     25  C   UNL     1      -7.369  13.240  17.647  0.00  0.00    +0.000 C 
ATOM     26  C   UNL     1      -6.966  14.300  16.639  0.00  0.00    +0.000 C 
ENDBRANCH  24  25
ENDBRANCH  22  24
ENDBRANCH   2  22
BRANCH   3  27
ATOM     27  C   UNL     1      -5.896  12.712  21.184  0.00  0.00    +0.000 C 
ATOM     28  O   UNL     1      -6.315  11.819  21.914  0.00  0.00    +0.000 OA
BRANCH  27  29
ATOM     29  O   UNL     1      -6.374  13.984  21.198  0.00  0.00    +0.000 OA
BRANCH  29  30
ATOM     30  C   UNL     1      -6.891  14.456  22.455  0.00  0.00    +0.000 C 
ATOM     31  C   UNL     1      -7.243  15.929  22.408  0.00  0.00    +0.000 C 
ENDBRANCH  29  30
ENDBRANCH  27  29
ENDBRANCH   3  27
BRANCH   1  32
ATOM     32  C   UNL     1      -3.363  10.569  17.299  0.00  0.00    +0.000 C 
BRANCH  32  34
ATOM     33  C   UNL     1      -3.226  10.302  14.809  0.00  0.00    +0.000 C 
ATOM     34  C   UNL     1      -3.296  11.298  15.959  0.00  0.00    +0.000 C 
ENDBRANCH  32  34
ENDBRANCH   1  32
TORSDOF 9
ENDMDL
MODEL 5
REMARK VINA RESULT:      -6.2      0.915      1.615
REMARK  Name = 
REMARK  12 active torsions:
REMARK  status: ('A' for Active; 'I' for Inactive)
REMARK    1  A    between atoms: C_1  and  C_2
REMARK    2  A    between atoms: C_2  and  C_3
REMARK    3  A    between atoms: C_3  and  C_4
REMARK    4  A    between atoms: C_5  and  C_6
REMARK    5  A    between atoms: C_6  and  O_8
REMARK    6  A    between atoms: O_8  and  C_9
REMARK    7  A    between atoms: C_9  and  C_10
REMARK    8  A    between atoms: C_11  and  C_12
REMARK    9  A    between atoms: C_12  and  O_14
REMARK   10  A    between atoms: O_14  and  C_15
REMARK   11  A    between atoms: C_15  and  C_16
REMARK   12  A    between atoms: C_18  and  C_19
REMARK                            x       y       z     vdW  Elec       q    Type
REMARK                         _______ _______ _______ _____ _____    ______ ____
ROOT
ATOM      1  C   UNL     1      -4.281  11.585  18.873  0.00  0.00    +0.000 A 
ATOM      2  C   UNL     1      -5.536  11.950  19.349  0.00  0.00    +0.000 A 
ATOM      3  C   UNL     1      -5.309  12.803  20.499  0.00  0.00    +0.000 A 
ATOM      4  C   UNL     1      -3.930  13.036  20.558  0.00  0.00    +0.000 A 
ATOM      5  C   UNL     1      -3.012  13.766  21.393  0.00  0.00    +0.000 A 
ATOM      6  N   UNL     1      -1.738  13.636  21.186  0.00  0.00    +0.000 NA
ATOM      7  C   UNL     1      -1.249  12.844  20.189  0.00  0.00    +0.000 A 
ATOM      8  N   UNL     1       0.123  12.773  20.057  0.00  0.00    +0.000 N 
ATOM      9  C   UNL     1       1.053  13.383  21.013  0.00  0.00    +0.000 C 
ATOM     10  C   UNL     1       2.118  14.181  20.250  0.00  0.00    +0.000 C 
ATOM     11  O   UNL     1       2.803  13.358  19.289  0.00  0.00    +0.000 OA
ATOM     12  C   UNL     1       1.868  12.811  18.343  0.00  0.00    +0.000 C 
ATOM     13  C   UNL     1       0.795  11.961  19.041  0.00  0.00    +0.000 C 
ATOM     14  N   UNL     1      -2.014  12.181  19.370  0.00  0.00    +0.000 NA
ATOM     15  N   UNL     1      -3.337  12.283  19.580  0.00  0.00    +0.000 N 
ENDROOT
BRANCH   5  16
ATOM     16  C   UNL     1      -3.408  14.675  22.500  0.00  0.00    +0.000 A 
ATOM     17  C   UNL     1      -3.132  14.274  23.817  0.00  0.00    +0.000 A 
ATOM     18  C   UNL     1      -3.510  15.075  24.895  0.00  0.00    +0.000 A 
ATOM     19  C   UNL     1      -4.174  16.276  24.661  0.00  0.00    +0.000 A 
ATOM     20  C   UNL     1      -4.403  16.705  23.352  0.00  0.00    +0.000 A 
ATOM     21  C   UNL     1      -3.986  15.926  22.272  0.00  0.00    +0.000 A 
ENDBRANCH   5  16
BRANCH   2  22
ATOM     22  C   UNL     1      -6.787  11.439  18.786  0.00  0.00    +0.000 C 
ATOM     23  O   UNL     1      -7.239  11.797  17.705  0.00  0.00    +0.000 OA
BRANCH  22  24
ATOM     24  O   UNL     1      -7.465  10.653  19.663  0.00  0.00    +0.000 OA
BRANCH  24  25
ATOM     25  C   UNL     1      -7.092   9.269  19.680  0.00  0.00    +0.000 C 
ATOM     26  C   UNL     1      -7.914   8.590  20.759  0.00  0.00    +0.000 C 
ENDBRANCH  24  25
ENDBRANCH  22  24
ENDBRANCH   2  22
BRANCH   3  27
ATOM     27  C   UNL     1      -6.309  13.179  21.499  0.00  0.00    +0.000 C 
ATOM     28  O   UNL     1      -6.991  14.194  21.394  0.00  0.00    +0.000 OA
BRANCH  27  29
ATOM     29  O   UNL     1      -6.359  12.346  22.571  0.00  0.00    +0.000 OA
BRANCH  29  30
ATOM     30  C   UNL     1      -7.547  12.417  23.379  0.00  0.00    +0.000 C 
ATOM     31  C   UNL     1      -7.437  13.474  24.459  0.00  0.00    +0.000 C 
ENDBRANCH  29  30
ENDBRANCH  27  29
ENDBRANCH   3  27
BRANCH   1  32
ATOM     32  C   UNL     1      -3.887  10.575  17.833  0.00  0.00    +0.000 C 
BRANCH  32  34
ATOM     33  C   UNL     1      -2.794  10.923  15.602  0.00  0.00    +0.000 C 
ATOM     34  C   UNL     1      -4.079  11.080  16.405  0.00  0.00    +0.000 C 
ENDBRANCH  32  34
ENDBRANCH   1  32
TORSDOF 9
ENDMDL
MODEL 6
REMARK VINA RESULT:      -6.0      1.078      1.915
REMARK  Name = 
REMARK  12 active torsions:
REMARK  status: ('A' for Active; 'I' for Inactive)
REMARK    1  A    between atoms: C_1  and  C_2
REMARK    2  A    between atoms: C_2  and  C_3
REMARK    3  A    between atoms: C_3  and  C_4
REMARK    4  A    between atoms: C_5  and  C_6
REMARK    5  A    between atoms: C_6  and  O_8
REMARK    6  A    between atoms: O_8  and  C_9
REMARK    7  A    between atoms: C_9  and  C_10
REMARK    8  A    between atoms: C_11  and  C_12
REMARK    9  A    between atoms: C_12  and  O_14
REMARK   10  A    between atoms: O_14  and  C_15
REMARK   11  A    between atoms: C_15  and  C_16
REMARK   12  A    between atoms: C_18  and  C_19
REMARK                            x       y       z     vdW  Elec       q    Type
REMARK                         _______ _______ _______ _____ _____    ______ ____
ROOT
ATOM      1  C   UNL     1      -3.684  11.613  18.769  0.00  0.00    +0.000 A 
ATOM      2  C   UNL     1      -4.933  11.933  19.289  0.00  0.00    +0.000 A 
ATOM      3  C   UNL     1      -4.695  12.799  20.428  0.00  0.00    +0.000 A 
ATOM      4  C   UNL     1      -3.325  13.083  20.435  0.00  0.00    +0.000 A 
ATOM      5  C   UNL     1      -2.404  13.851  21.233  0.00  0.00    +0.000 A 
ATOM      6  N   UNL     1      -1.135  13.767  20.979  0.00  0.00    +0.000 NA
ATOM      7  C   UNL     1      -0.654  12.989  19.966  0.00  0.00    +0.000 A 
ATOM      8  N   UNL     1       0.714  12.968  19.784  0.00  0.00    +0.000 N 
ATOM      9  C   UNL     1       1.655  13.617  20.702  0.00  0.00    +0.000 C 
ATOM     10  C   UNL     1       2.661  14.450  19.898  0.00  0.00    +0.000 C 
ATOM     11  O   UNL     1       3.340  13.649  18.915  0.00  0.00    +0.000 OA
ATOM     12  C   UNL     1       2.391  13.063  18.006  0.00  0.00    +0.000 C 
ATOM     13  C   UNL     1       1.377  12.177  18.746  0.00  0.00    +0.000 C 
ATOM     14  N   UNL     1      -1.424  12.295  19.179  0.00  0.00    +0.000 NA
ATOM     15  N   UNL     1      -2.741  12.348  19.438  0.00  0.00    +0.000 N 
ENDROOT
BRANCH   5  16
ATOM     16  C   UNL     1      -2.793  14.749  22.350  0.00  0.00    +0.000 A 
ATOM     17  C   UNL     1      -3.558  15.888  22.049  0.00  0.00    +0.000 A 
ATOM     18  C   UNL     1      -3.924  16.782  23.054  0.00  0.00    +0.000 A 
ATOM     19  C   UNL     1      -3.520  16.547  24.365  0.00  0.00    +0.000 A 
ATOM     20  C   UNL     1      -2.806  15.390  24.680  0.00  0.00    +0.000 A 
ATOM     21  C   UNL     1      -2.476  14.471  23.682  0.00  0.00    +0.000 A 
ENDBRANCH   5  16
BRANCH   2  22
ATOM     22  C   UNL     1      -6.185  11.373  18.776  0.00  0.00    +0.000 C 
ATOM     23  O   UNL     1      -6.677  11.692  17.700  0.00  0.00    +0.000 OA
BRANCH  22  24
ATOM     24  O   UNL     1      -6.815  10.592  19.691  0.00  0.00    +0.000 OA
BRANCH  24  25
ATOM     25  C   UNL     1      -6.921   9.201  19.358  0.00  0.00    +0.000 C 
ATOM     26  C   UNL     1      -7.622   8.510  20.512  0.00  0.00    +0.000 C 
ENDBRANCH  24  25
ENDBRANCH  22  24
ENDBRANCH   2  22
BRANCH   3  27
ATOM     27  C   UNL     1      -5.671  13.143  21.463  0.00  0.00    +0.000 C 
ATOM     28  O   UNL     1      -6.397  14.128  21.379  0.00  0.00    +0.000 OA
BRANCH  27  29
ATOM     29  O   UNL     1      -5.646  12.316  22.542  0.00  0.00    +0.000 OA
BRANCH  29  30
ATOM     30  C   UNL     1      -5.752  12.946  23.830  0.00  0.00    +0.000 C 
ATOM     31  C   UNL     1      -4.851  12.292  24.859  0.00  0.00    +0.000 C 
ENDBRANCH  29  30
ENDBRANCH  27  29
ENDBRANCH   3  27
BRANCH   1  32
ATOM     32  C   UNL     1      -3.292  10.613  17.717  0.00  0.00    +0.000 C 
BRANCH  32  34
ATOM     33  C   UNL     1      -3.197  10.054  15.274  0.00  0.00    +0.000 C 
ATOM     34  C   UNL     1      -3.402  11.163  16.297  0.00  0.00    +0.000 C 
ENDBRANCH  32  34
ENDBRANCH   1  32
TORSDOF 9
ENDMDL
MODEL 7
REMARK VINA RESULT:      -6.0      0.859      1.794
REMARK  Name = 
REMARK  12 active torsions:
REMARK  status: ('A' for Active; 'I' for Inactive)
REMARK    1  A    between atoms: C_1  and  C_2
REMARK    2  A    between atoms: C_2  and  C_3
REMARK    3  A    between atoms: C_3  and  C_4
REMARK    4  A    between atoms: C_5  and  C_6
REMARK    5  A    between atoms: C_6  and  O_8
REMARK    6  A    between atoms: O_8  and  C_9
REMARK    7  A    between atoms: C_9  and  C_10
REMARK    8  A    between atoms: C_11  and  C_12
REMARK    9  A    between atoms: C_12  and  O_14
REMARK   10  A    between atoms: O_14  and  C_15
REMARK   11  A    between atoms: C_15  and  C_16
REMARK   12  A    between atoms: C_18  and  C_19
REMARK                            x       y       z     vdW  Elec       q    Type
REMARK                         _______ _______ _______ _____ _____    ______ ____
ROOT
ATOM      1  C   UNL     1      -4.179  11.859  18.504  0.00  0.00    +0.000 A 
ATOM      2  C   UNL     1      -5.443  12.167  18.997  0.00  0.00    +0.000 A 
ATOM      3  C   UNL     1      -5.238  12.864  20.252  0.00  0.00    +0.000 A 
ATOM      4  C   UNL     1      -3.860  13.080  20.369  0.00  0.00    +0.000 A 
ATOM      5  C   UNL     1      -2.959  13.693  21.309  0.00  0.00    +0.000 A 
ATOM      6  N   UNL     1      -1.682  13.585  21.114  0.00  0.00    +0.000 NA
ATOM      7  C   UNL     1      -1.173  12.925  20.033  0.00  0.00    +0.000 A 
ATOM      8  N   UNL     1       0.201  12.865  19.922  0.00  0.00    +0.000 N 
ATOM      9  C   UNL     1       1.112  13.344  20.966  0.00  0.00    +0.000 C 
ATOM     10  C   UNL     1       2.195  14.227  20.334  0.00  0.00    +0.000 C 
ATOM     11  O   UNL     1       2.898  13.531  19.290  0.00  0.00    +0.000 OA
ATOM     12  C   UNL     1       1.982  13.114  18.263  0.00  0.00    +0.000 C 
ATOM     13  C   UNL     1       0.893  12.187  18.824  0.00  0.00    +0.000 C 
ATOM     14  N   UNL     1      -1.922  12.376  19.121  0.00  0.00    +0.000 NA
ATOM     15  N   UNL     1      -3.249  12.457  19.315  0.00  0.00    +0.000 N 
ENDROOT
BRANCH   5  16
ATOM     16  C   UNL     1      -3.377  14.455  22.515  0.00  0.00    +0.000 A 
ATOM     17  C   UNL     1      -3.988  15.706  22.328  0.00  0.00    +0.000 A 
ATOM     18  C   UNL     1      -4.373  16.477  23.425  0.00  0.00    +0.000 A 
ATOM     19  C   UNL     1      -4.139  16.005  24.714  0.00  0.00    +0.000 A 
ATOM     20  C   UNL     1      -3.581  14.740  24.905  0.00  0.00    +0.000 A 
ATOM     21  C   UNL     1      -3.236  13.948  23.808  0.00  0.00    +0.000 A 
ENDBRANCH   5  16
BRANCH   2  22
ATOM     22  C   UNL     1      -6.684  11.737  18.348  0.00  0.00    +0.000 C 
ATOM     23  O   UNL     1      -7.489  12.513  17.848  0.00  0.00    +0.000 OA
BRANCH  22  24
ATOM     24  O   UNL     1      -6.916  10.409  18.506  0.00  0.00    +0.000 OA
BRANCH  24  25
ATOM     25  C   UNL     1      -7.251   9.986  19.835  0.00  0.00    +0.000 C 
ATOM     26  C   UNL     1      -7.103   8.477  19.883  0.00  0.00    +0.000 C 
ENDBRANCH  24  25
ENDBRANCH  22  24
ENDBRANCH   2  22
BRANCH   3  27
ATOM     27  C   UNL     1      -6.259  13.114  21.271  0.00  0.00    +0.000 C 
ATOM     28  O   UNL     1      -7.070  14.029  21.176  0.00  0.00    +0.000 OA
BRANCH  27  29
ATOM     29  O   UNL     1      -6.177  12.289  22.348  0.00  0.00    +0.000 OA
BRANCH  29  30
ATOM     30  C   UNL     1      -7.293  12.313  23.255  0.00  0.00    +0.000 C 
ATOM     31  C   UNL     1      -7.119  13.352  24.344  0.00  0.00    +0.000 C 
ENDBRANCH  29  30
ENDBRANCH  27  29
ENDBRANCH   3  27
BRANCH   1  32
ATOM     32  C   UNL     1      -3.765  10.989  17.351  0.00  0.00    +0.000 C 
BRANCH  32  34
ATOM     33  C   UNL     1      -1.633   9.679  17.188  0.00  0.00    +0.000 C 
ATOM     34  C   UNL     1      -3.031   9.724  17.790  0.00  0.00    +0.000 C 
ENDBRANCH  32  34
ENDBRANCH   1  32
TORSDOF 9
ENDMDL
MODEL 8
REMARK VINA RESULT:      -5.8      2.168      5.871
REMARK  Name = 
REMARK  12 active torsions:
REMARK  status: ('A' for Active; 'I' for Inactive)
REMARK    1  A    between atoms: C_1  and  C_2
REMARK    2  A    between atoms: C_2  and  C_3
REMARK    3  A    between atoms: C_3  and  C_4
REMARK    4  A    between atoms: C_5  and  C_6
REMARK    5  A    between atoms: C_6  and  O_8
REMARK    6  A    between atoms: O_8  and  C_9
REMARK    7  A    between atoms: C_9  and  C_10
REMARK    8  A    between atoms: C_11  and  C_12
REMARK    9  A    between atoms: C_12  and  O_14
REMARK   10  A    between atoms: O_14  and  C_15
REMARK   11  A    between atoms: C_15  and  C_16
REMARK   12  A    between atoms: C_18  and  C_19
REMARK                            x       y       z     vdW  Elec       q    Type
REMARK                         _______ _______ _______ _____ _____    ______ ____
ROOT
ATOM      1  C   UNL     1      -5.463  13.337  19.705  0.00  0.00    +0.000 A 
ATOM      2  C   UNL     1      -5.367  12.305  18.778  0.00  0.00    +0.000 A 
ATOM      3  C   UNL     1      -4.003  11.818  18.843  0.00  0.00    +0.000 A 
ATOM      4  C   UNL     1      -3.394  12.476  19.918  0.00  0.00    +0.000 A 
ATOM      5  C   UNL     1      -2.105  12.493  20.559  0.00  0.00    +0.000 A 
ATOM      6  N   UNL     1      -1.883  13.362  21.496  0.00  0.00    +0.000 NA
ATOM      7  C   UNL     1      -2.843  14.243  21.902  0.00  0.00    +0.000 A 
ATOM      8  N   UNL     1      -2.502  15.129  22.903  0.00  0.00    +0.000 N 
ATOM      9  C   UNL     1      -1.140  15.254  23.434  0.00  0.00    +0.000 C 
ATOM     10  C   UNL     1      -1.187  15.236  24.967  0.00  0.00    +0.000 C 
ATOM     11  O   UNL     1      -2.055  16.263  25.478  0.00  0.00    +0.000 OA
ATOM     12  C   UNL     1      -3.390  16.085  24.972  0.00  0.00    +0.000 C 
ATOM     13  C   UNL     1      -3.421  16.136  23.437  0.00  0.00    +0.000 C 
ATOM     14  N   UNL     1      -4.043  14.267  21.396  0.00  0.00    +0.000 NA
ATOM     15  N   UNL     1      -4.288  13.390  20.408  0.00  0.00    +0.000 N 
ENDROOT
BRANCH   5  16
ATOM     16  C   UNL     1      -0.980  11.581  20.230  0.00  0.00    +0.000 A 
ATOM     17  C   UNL     1      -0.148  11.918  19.149  0.00  0.00    +0.000 A 
ATOM     18  C   UNL     1       0.904  11.081  18.777  0.00  0.00    +0.000 A 
ATOM     19  C   UNL     1       1.124   9.899  19.478  0.00  0.00    +0.000 A 
ATOM     20  C   UNL     1       0.335   9.585  20.586  0.00  0.00    +0.000 A 
ATOM     21  C   UNL     1      -0.691  10.443  20.987  0.00  0.00    +0.000 A 
ENDBRANCH   5  16
BRANCH   2  22
ATOM     22  C   UNL     1      -6.463  11.924  17.885  0.00  0.00    +0.000 C 
ATOM     23  O   UNL     1      -6.642  12.426  16.781  0.00  0.00    +0.000 OA
BRANCH  22  24
ATOM     24  O   UNL     1      -7.343  11.077  18.479  0.00  0.00    +0.000 OA
BRANCH  24  25
ATOM     25  C   UNL     1      -6.770   9.943  19.142  0.00  0.00    +0.000 C 
ATOM     26  C   UNL     1      -7.491   9.778  20.466  0.00  0.00    +0.000 C 
ENDBRANCH  24  25
ENDBRANCH  22  24
ENDBRANCH   2  22
BRANCH   3  27
ATOM     27  C   UNL     1      -3.352  10.956  17.856  0.00  0.00    +0.000 C 
ATOM     28  O   UNL     1      -2.817   9.895  18.164  0.00  0.00    +0.000 OA
BRANCH  27  29
ATOM     29  O   UNL     1      -3.337  11.469  16.597  0.00  0.00    +0.000 OA
BRANCH  29  30
ATOM     30  C   UNL     1      -2.609  10.717  15.611  0.00  0.00    +0.000 C 
ATOM     31  C   UNL     1      -3.517  10.168  14.529  0.00  0.00    +0.000 C 
ENDBRANCH  29  30
ENDBRANCH  27  29
ENDBRANCH   3  27
BRANCH   1  32
ATOM     32  C   UNL     1      -6.564  14.331  19.949  0.00  0.00    +0.000 C 
BRANCH  32  34
ATOM     33  C   UNL     1      -7.499  13.319  22.044  0.00  0.00    +0.000 C 
ATOM     34  C   UNL     1      -7.796  13.711  20.603  0.00  0.00    +0.000 C 
ENDBRANCH  32  34
ENDBRANCH   1  32
TORSDOF 9
ENDMDL
MODEL 9
REMARK VINA RESULT:      -5.7      1.203      1.931
REMARK  Name = 
REMARK  12 active torsions:
REMARK  status: ('A' for Active; 'I' for Inactive)
REMARK    1  A    between atoms: C_1  and  C_2
REMARK    2  A    between atoms: C_2  and  C_3
REMARK    3  A    between atoms: C_3  and  C_4
REMARK    4  A    between atoms: C_5  and  C_6
REMARK    5  A    between atoms: C_6  and  O_8
REMARK    6  A    between atoms: O_8  and  C_9
REMARK    7  A    between atoms: C_9  and  C_10
REMARK    8  A    between atoms: C_11  and  C_12
REMARK    9  A    between atoms: C_12  and  O_14
REMARK   10  A    between atoms: O_14  and  C_15
REMARK   11  A    between atoms: C_15  and  C_16
REMARK   12  A    between atoms: C_18  and  C_19
REMARK                            x       y       z     vdW  Elec       q    Type
REMARK                         _______ _______ _______ _____ _____    ______ ____
ROOT
ATOM      1  C   UNL     1      -3.899  11.954  18.690  0.00  0.00    +0.000 A 
ATOM      2  C   UNL     1      -5.127  12.220  19.287  0.00  0.00    +0.000 A 
ATOM      3  C   UNL     1      -4.839  12.881  20.545  0.00  0.00    +0.000 A 
ATOM      4  C   UNL     1      -3.460  13.120  20.565  0.00  0.00    +0.000 A 
ATOM      5  C   UNL     1      -2.500  13.720  21.454  0.00  0.00    +0.000 A 
ATOM      6  N   UNL     1      -1.239  13.643  21.159  0.00  0.00    +0.000 NA
ATOM      7  C   UNL     1      -0.803  13.028  20.021  0.00  0.00    +0.000 A 
ATOM      8  N   UNL     1       0.559  12.999  19.804  0.00  0.00    +0.000 N 
ATOM      9  C   UNL     1       1.539  13.461  20.793  0.00  0.00    +0.000 C 
ATOM     10  C   UNL     1       2.555  14.386  20.110  0.00  0.00    +0.000 C 
ATOM     11  O   UNL     1       3.188  13.738  18.994  0.00  0.00    +0.000 OA
ATOM     12  C   UNL     1       2.203  13.336  18.025  0.00  0.00    +0.000 C 
ATOM     13  C   UNL     1       1.176  12.370  18.635  0.00  0.00    +0.000 C 
ATOM     14  N   UNL     1      -1.610  12.495  19.150  0.00  0.00    +0.000 NA
ATOM     15  N   UNL     1      -2.920  12.543  19.447  0.00  0.00    +0.000 N 
ENDROOT
BRANCH   5  16
ATOM     16  C   UNL     1      -2.837  14.434  22.713  0.00  0.00    +0.000 A 
ATOM     17  C   UNL     1      -2.961  13.679  23.890  0.00  0.00    +0.000 A 
ATOM     18  C   UNL     1      -3.307  14.294  25.093  0.00  0.00    +0.000 A 
ATOM     19  C   UNL     1      -3.539  15.666  25.123  0.00  0.00    +0.000 A 
ATOM     20  C   UNL     1      -3.365  16.430  23.968  0.00  0.00    +0.000 A 
ATOM     21  C   UNL     1      -2.976  15.823  22.773  0.00  0.00    +0.000 A 
ENDBRANCH   5  16
BRANCH   2  22
ATOM     22  C   UNL     1      -6.405  11.788  18.720  0.00  0.00    +0.000 C 
ATOM     23  O   UNL     1      -6.890  12.266  17.700  0.00  0.00    +0.000 OA
BRANCH  22  24
ATOM     24  O   UNL     1      -7.064  10.921  19.531  0.00  0.00    +0.000 OA
BRANCH  24  25
ATOM     25  C   UNL     1      -6.866   9.529  19.252  0.00  0.00    +0.000 C 
ATOM     26  C   UNL     1      -7.495   8.743  20.387  0.00  0.00    +0.000 C 
ENDBRANCH  24  25
ENDBRANCH  22  24
ENDBRANCH   2  22
BRANCH   3  27
ATOM     27  C   UNL     1      -5.783  13.077  21.646  0.00  0.00    +0.000 C 
ATOM     28  O   UNL     1      -5.788  12.359  22.641  0.00  0.00    +0.000 OA
BRANCH  27  29
ATOM     29  O   UNL     1      -6.682  14.073  21.432  0.00  0.00    +0.000 OA
BRANCH  29  30
ATOM     30  C   UNL     1      -6.394  15.337  22.054  0.00  0.00    +0.000 C 
ATOM     31  C   UNL     1      -6.948  15.417  23.462  0.00  0.00    +0.000 C 
ENDBRANCH  29  30
ENDBRANCH  27  29
ENDBRANCH   3  27
BRANCH   1  32
ATOM     32  C   UNL     1      -3.559  11.129  17.480  0.00  0.00    +0.000 C 
BRANCH  32  34
ATOM     33  C   UNL     1      -1.520   9.682  17.284  0.00  0.00    +0.000 C 
ATOM     34  C   UNL     1      -2.938   9.779  17.832  0.00  0.00    +0.000 C 
ENDBRANCH  32  34
ENDBRANCH   1  32
TORSDOF 9
ENDMDL
