MODEL 1
REMARK VINA RESULT:      -6.7      0.000      0.000
REMARK  Name = 
REMARK  8 active torsions:
REMARK  status: ('A' for Active; 'I' for Inactive)
REMARK    1  A    between atoms: C_1  and  C_2
REMARK    2  A    between atoms: C_8  and  N_9
REMARK    3  A    between atoms: N_16  and  C_17
REMARK    4  A    between atoms: N_16  and  C_18
REMARK    5  A    between atoms: C_18  and  C_19
REMARK    6  A    between atoms: C_19  and  O_20
REMARK    7  A    between atoms: C_19  and  C_21
REMARK    8  A    between atoms: C_21  and  O_22
REMARK                            x       y       z     vdW  Elec       q    Type
REMARK                         _______ _______ _______ _____ _____    ______ ____
ROOT
ATOM      1  N   UNL     1       5.080   4.827  18.183  0.00  0.00    +0.000 N 
ATOM      2  C   UNL     1       4.086   5.707  18.546  0.00  0.00    +0.000 A 
ATOM      3  N   UNL     1       3.918   6.845  17.932  0.00  0.00    +0.000 NA
ATOM      4  C   UNL     1       2.882   7.720  18.320  0.00  0.00    +0.000 A 
ATOM      5  C   UNL     1       2.701   8.892  17.619  0.00  0.00    +0.000 A 
ATOM      6  C   UNL     1       1.690   9.776  17.995  0.00  0.00    +0.000 A 
ATOM      7  C   UNL     1       0.870   9.495  19.089  0.00  0.00    +0.000 A 
ATOM      8  N   UNL     1      -0.025  10.439  19.552  0.00  0.00    +0.000 N 
ATOM      9  C   UNL     1      -0.745  11.315  18.638  0.00  0.00    +0.000 C 
ATOM     10  N   UNL     1       1.037   8.351  19.795  0.00  0.00    +0.000 NA
ATOM     11  C   UNL     1       2.005   7.487  19.379  0.00  0.00    +0.000 A 
ATOM     12  N   UNL     1       2.206   6.263  20.029  0.00  0.00    +0.000 N 
ATOM     13  C   UNL     1       1.530   5.684  21.064  0.00  0.00    +0.000 A 
ATOM     14  N   UNL     1       2.042   4.511  21.382  0.00  0.00    +0.000 NA
ATOM     15  C   UNL     1       3.087   4.325  20.505  0.00  0.00    +0.000 A 
ATOM     16  C   UNL     1       3.207   5.398  19.651  0.00  0.00    +0.000 A 
ATOM     17  H   UNL     1       5.727   4.644  18.948  0.00  0.00    +0.000 HD
ENDROOT
BRANCH   1  25
ATOM     18  C   UNL     1       7.614   6.431  17.626  0.00  0.00    +0.000 C 
ATOM     19  C   UNL     1       6.920   5.529  16.640  0.00  0.00    +0.000 A 
ATOM     20  C   UNL     1       7.435   5.515  15.326  0.00  0.00    +0.000 A 
ATOM     21  C   UNL     1       6.836   4.767  14.314  0.00  0.00    +0.000 A 
ATOM     22  C   UNL     1       5.716   3.999  14.599  0.00  0.00    +0.000 A 
ATOM     23  C   UNL     1       5.185   4.005  15.889  0.00  0.00    +0.000 A 
ATOM     24 CL   UNL     1       3.773   3.041  16.183  0.00  0.00    +0.000 Cl
ATOM     25  C   UNL     1       5.757   4.777  16.933  0.00  0.00    +0.000 A 
ENDBRANCH   1  25
BRANCH   8  26
ATOM     26  C   UNL     1      -0.421  10.446  20.968  0.00  0.00    +0.000 C 
BRANCH  26  27
ATOM     27  C   UNL     1       0.241  11.594  21.771  0.00  0.00    +0.000 C 
BRANCH  27  28
ATOM     28  O   UNL     1       1.428  12.107  21.151  0.00  0.00    +0.000 OA
ATOM     29  H   UNL     1       1.473  11.703  20.262  0.00  0.00    +0.000 HD
ENDBRANCH  27  28
BRANCH  27  30
ATOM     30  C   UNL     1      -0.719  12.762  22.044  0.00  0.00    +0.000 C 
BRANCH  30  31
ATOM     31  O   UNL     1      -1.127  12.796  23.415  0.00  0.00    +0.000 OA
ATOM     32  H   UNL     1      -1.695  12.017  23.565  0.00  0.00    +0.000 HD
ENDBRANCH  30  31
ENDBRANCH  27  30
ENDBRANCH  26  27
ENDBRANCH   8  26
TORSDOF 6
ENDMDL
MODEL 2
REMARK VINA RESULT:      -6.6      0.870      1.033
REMARK  Name = 
REMARK  8 active torsions:
REMARK  status: ('A' for Active; 'I' for Inactive)
REMARK    1  A    between atoms: C_1  and  C_2
REMARK    2  A    between atoms: C_8  and  N_9
REMARK    3  A    between atoms: N_16  and  C_17
REMARK    4  A    between atoms: N_16  and  C_18
REMARK    5  A    between atoms: C_18  and  C_19
REMARK    6  A    between atoms: C_19  and  O_20
REMARK    7  A    between atoms: C_19  and  C_21
REMARK    8  A    between atoms: C_21  and  O_22
REMARK                            x       y       z     vdW  Elec       q    Type
REMARK                         _______ _______ _______ _____ _____    ______ ____
ROOT
ATOM      1  N   UNL     1       5.131   4.791  18.197  0.00  0.00    +0.000 N 
ATOM      2  C   UNL     1       4.099   5.640  18.527  0.00  0.00    +0.000 A 
ATOM      3  N   UNL     1       3.917   6.772  17.905  0.00  0.00    +0.000 NA
ATOM      4  C   UNL     1       2.843   7.616  18.259  0.00  0.00    +0.000 A 
ATOM      5  C   UNL     1       2.648   8.780  17.550  0.00  0.00    +0.000 A 
ATOM      6  C   UNL     1       1.600   9.635  17.892  0.00  0.00    +0.000 A 
ATOM      7  C   UNL     1       0.755   9.330  18.961  0.00  0.00    +0.000 A 
ATOM      8  N   UNL     1      -0.182  10.247  19.394  0.00  0.00    +0.000 N 
ATOM      9  C   UNL     1      -0.900  11.100  18.456  0.00  0.00    +0.000 C 
ATOM     10  N   UNL     1       0.935   8.193  19.674  0.00  0.00    +0.000 NA
ATOM     11  C   UNL     1       1.941   7.358  19.291  0.00  0.00    +0.000 A 
ATOM     12  N   UNL     1       2.159   6.142  19.950  0.00  0.00    +0.000 N 
ATOM     13  C   UNL     1       1.468   5.544  20.964  0.00  0.00    +0.000 A 
ATOM     14  N   UNL     1       2.006   4.388  21.301  0.00  0.00    +0.000 NA
ATOM     15  C   UNL     1       3.082   4.232  20.458  0.00  0.00    +0.000 A 
ATOM     16  C   UNL     1       3.196   5.307  19.605  0.00  0.00    +0.000 A 
ATOM     17  H   UNL     1       5.759   4.628  18.982  0.00  0.00    +0.000 HD
ENDROOT
BRANCH   1  25
ATOM     18  C   UNL     1       7.609   6.497  17.702  0.00  0.00    +0.000 C 
ATOM     19  C   UNL     1       6.985   5.558  16.704  0.00  0.00    +0.000 A 
ATOM     20  C   UNL     1       7.540   5.555  15.407  0.00  0.00    +0.000 A 
ATOM     21  C   UNL     1       7.006   4.773  14.384  0.00  0.00    +0.000 A 
ATOM     22  C   UNL     1       5.911   3.960  14.642  0.00  0.00    +0.000 A 
ATOM     23  C   UNL     1       5.341   3.955  15.916  0.00  0.00    +0.000 A 
ATOM     24 CL   UNL     1       3.963   2.933  16.175  0.00  0.00    +0.000 Cl
ATOM     25  C   UNL     1       5.846   4.759  16.969  0.00  0.00    +0.000 A 
ENDBRANCH   1  25
BRANCH   8  26
ATOM     26  C   UNL     1      -0.622  10.245  20.797  0.00  0.00    +0.000 C 
BRANCH  26  27
ATOM     27  C   UNL     1       0.469  10.761  21.769  0.00  0.00    +0.000 C 
BRANCH  27  28
ATOM     28  O   UNL     1       0.033  11.865  22.574  0.00  0.00    +0.000 OA
ATOM     29  H   UNL     1       0.766  12.067  23.188  0.00  0.00    +0.000 HD
ENDBRANCH  27  28
BRANCH  27  30
ATOM     30  C   UNL     1       1.014   9.661  22.692  0.00  0.00    +0.000 C 
BRANCH  30  31
ATOM     31  O   UNL     1       0.352   9.664  23.960  0.00  0.00    +0.000 OA
ATOM     32  H   UNL     1       0.720   8.923  24.478  0.00  0.00    +0.000 HD
ENDBRANCH  30  31
ENDBRANCH  27  30
ENDBRANCH  26  27
ENDBRANCH   8  26
TORSDOF 6
ENDMDL
MODEL 3
REMARK VINA RESULT:      -6.3      8.381      9.673
REMARK  Name = 
REMARK  8 active torsions:
REMARK  status: ('A' for Active; 'I' for Inactive)
REMARK    1  A    between atoms: C_1  and  C_2
REMARK    2  A    between atoms: C_8  and  N_9
REMARK    3  A    between atoms: N_16  and  C_17
REMARK    4  A    between atoms: N_16  and  C_18
REMARK    5  A    between atoms: C_18  and  C_19
REMARK    6  A    between atoms: C_19  and  O_20
REMARK    7  A    between atoms: C_19  and  C_21
REMARK    8  A    between atoms: C_21  and  O_22
REMARK                            x       y       z     vdW  Elec       q    Type
REMARK                         _______ _______ _______ _____ _____    ______ ____
ROOT
ATOM      1  N   UNL     1       8.024  14.476  18.815  0.00  0.00    +0.000 N 
ATOM      2  C   UNL     1       7.626  14.303  20.121  0.00  0.00    +0.000 A 
ATOM      3  N   UNL     1       8.342  13.621  20.972  0.00  0.00    +0.000 NA
ATOM      4  C   UNL     1       7.911  13.471  22.307  0.00  0.00    +0.000 A 
ATOM      5  C   UNL     1       8.714  12.787  23.193  0.00  0.00    +0.000 A 
ATOM      6  C   UNL     1       8.302  12.617  24.514  0.00  0.00    +0.000 A 
ATOM      7  C   UNL     1       7.072  13.118  24.946  0.00  0.00    +0.000 A 
ATOM      8  N   UNL     1       6.598  12.817  26.207  0.00  0.00    +0.000 N 
ATOM      9  C   UNL     1       7.494  12.722  27.352  0.00  0.00    +0.000 C 
ATOM     10  N   UNL     1       6.267  13.788  24.088  0.00  0.00    +0.000 NA
ATOM     11  C   UNL     1       6.714  13.974  22.814  0.00  0.00    +0.000 A 
ATOM     12  N   UNL     1       5.959  14.698  21.883  0.00  0.00    +0.000 N 
ATOM     13  C   UNL     1       4.773  15.360  22.022  0.00  0.00    +0.000 A 
ATOM     14  N   UNL     1       4.395  15.921  20.890  0.00  0.00    +0.000 NA
ATOM     15  C   UNL     1       5.389  15.615  19.987  0.00  0.00    +0.000 A 
ATOM     16  C   UNL     1       6.374  14.859  20.581  0.00  0.00    +0.000 A 
ATOM     17  H   UNL     1       7.347  14.097  18.155  0.00  0.00    +0.000 HD
ENDROOT
BRANCH   1  25
ATOM     18  C   UNL     1       9.957  16.830  18.668  0.00  0.00    +0.000 C 
ATOM     19  C   UNL     1      10.255  15.429  18.204  0.00  0.00    +0.000 A 
ATOM     20  C   UNL     1      11.492  15.228  17.556  0.00  0.00    +0.000 A 
ATOM     21  C   UNL     1      11.849  13.988  17.029  0.00  0.00    +0.000 A 
ATOM     22  C   UNL     1      10.980  12.913  17.154  0.00  0.00    +0.000 A 
ATOM     23  C   UNL     1       9.747  13.093  17.782  0.00  0.00    +0.000 A 
ATOM     24 CL   UNL     1       8.693  11.719  17.893  0.00  0.00    +0.000 Cl
ATOM     25  C   UNL     1       9.345  14.349  18.305  0.00  0.00    +0.000 A 
ENDBRANCH   1  25
BRANCH   8  26
ATOM     26  C   UNL     1       5.151  12.782  26.461  0.00  0.00    +0.000 C 
BRANCH  26  27
ATOM     27  C   UNL     1       4.741  11.663  27.451  0.00  0.00    +0.000 C 
BRANCH  27  28
ATOM     28  O   UNL     1       3.444  11.865  28.028  0.00  0.00    +0.000 OA
ATOM     29  H   UNL     1       3.094  10.977  28.240  0.00  0.00    +0.000 HD
ENDBRANCH  27  28
BRANCH  27  30
ATOM     30  C   UNL     1       4.791  10.262  26.823  0.00  0.00    +0.000 C 
BRANCH  30  31
ATOM     31  O   UNL     1       3.589   9.966  26.106  0.00  0.00    +0.000 OA
ATOM     32  H   UNL     1       3.270   9.101  26.425  0.00  0.00    +0.000 HD
ENDBRANCH  30  31
ENDBRANCH  27  30
ENDBRANCH  26  27
ENDBRANCH   8  26
TORSDOF 6
ENDMDL
MODEL 4
REMARK VINA RESULT:      -6.2      1.188      1.858
REMARK  Name = 
REMARK  8 active torsions:
REMARK  status: ('A' for Active; 'I' for Inactive)
REMARK    1  A    between atoms: C_1  and  C_2
REMARK    2  A    between atoms: C_8  and  N_9
REMARK    3  A    between atoms: N_16  and  C_17
REMARK    4  A    between atoms: N_16  and  C_18
REMARK    5  A    between atoms: C_18  and  C_19
REMARK    6  A    between atoms: C_19  and  O_20
REMARK    7  A    between atoms: C_19  and  C_21
REMARK    8  A    between atoms: C_21  and  O_22
REMARK                            x       y       z     vdW  Elec       q    Type
REMARK                         _______ _______ _______ _____ _____    ______ ____
ROOT
ATOM      1  N   UNL     1       5.018   5.000  18.021  0.00  0.00    +0.000 N 
ATOM      2  C   UNL     1       4.033   5.876  18.420  0.00  0.00    +0.000 A 
ATOM      3  N   UNL     1       3.831   7.007  17.803  0.00  0.00    +0.000 NA
ATOM      4  C   UNL     1       2.807   7.879  18.229  0.00  0.00    +0.000 A 
ATOM      5  C   UNL     1       2.587   9.043  17.526  0.00  0.00    +0.000 A 
ATOM      6  C   UNL     1       1.587   9.924  17.938  0.00  0.00    +0.000 A 
ATOM      7  C   UNL     1       0.817   9.647  19.069  0.00  0.00    +0.000 A 
ATOM      8  N   UNL     1      -0.064  10.589  19.563  0.00  0.00    +0.000 N 
ATOM      9  C   UNL     1      -0.829  11.452  18.674  0.00  0.00    +0.000 C 
ATOM     10  N   UNL     1       1.023   8.511  19.777  0.00  0.00    +0.000 NA
ATOM     11  C   UNL     1       1.978   7.650  19.327  0.00  0.00    +0.000 A 
ATOM     12  N   UNL     1       2.216   6.433  19.978  0.00  0.00    +0.000 N 
ATOM     13  C   UNL     1       1.590   5.859  21.047  0.00  0.00    +0.000 A 
ATOM     14  N   UNL     1       2.124   4.693  21.353  0.00  0.00    +0.000 NA
ATOM     15  C   UNL     1       3.131   4.505  20.433  0.00  0.00    +0.000 A 
ATOM     16  C   UNL     1       3.206   5.571  19.565  0.00  0.00    +0.000 A 
ATOM     17  H   UNL     1       5.698   4.828  18.759  0.00  0.00    +0.000 HD
ENDROOT
BRANCH   1  25
ATOM     18  C   UNL     1       3.878   3.359  15.717  0.00  0.00    +0.000 C 
ATOM     19  C   UNL     1       5.144   4.171  15.664  0.00  0.00    +0.000 A 
ATOM     20  C   UNL     1       5.909   4.073  14.482  0.00  0.00    +0.000 A 
ATOM     21  C   UNL     1       7.130   4.731  14.344  0.00  0.00    +0.000 A 
ATOM     22  C   UNL     1       7.607   5.518  15.382  0.00  0.00    +0.000 A 
ATOM     23  C   UNL     1       6.872   5.621  16.564  0.00  0.00    +0.000 A 
ATOM     24 CL   UNL     1       7.526   6.605  17.835  0.00  0.00    +0.000 Cl
ATOM     25  C   UNL     1       5.639   4.943  16.743  0.00  0.00    +0.000 A 
ENDBRANCH   1  25
BRANCH   8  26
ATOM     26  C   UNL     1      -0.397  10.607  20.994  0.00  0.00    +0.000 C 
BRANCH  26  27
ATOM     27  C   UNL     1      -0.349  12.030  21.605  0.00  0.00    +0.000 C 
BRANCH  27  28
ATOM     28  O   UNL     1      -0.489  12.038  23.033  0.00  0.00    +0.000 OA
ATOM     29  H   UNL     1       0.328  11.640  23.393  0.00  0.00    +0.000 HD
ENDBRANCH  27  28
BRANCH  27  30
ATOM     30  C   UNL     1       0.926  12.798  21.228  0.00  0.00    +0.000 C 
BRANCH  30  31
ATOM     31  O   UNL     1       1.101  13.958  22.047  0.00  0.00    +0.000 OA
ATOM     32  H   UNL     1       2.008  13.922  22.406  0.00  0.00    +0.000 HD
ENDBRANCH  30  31
ENDBRANCH  27  30
ENDBRANCH  26  27
ENDBRANCH   8  26
TORSDOF 6
ENDMDL
MODEL 5
REMARK VINA RESULT:      -6.1      3.795      8.308
REMARK  Name = 
REMARK  8 active torsions:
REMARK  status: ('A' for Active; 'I' for Inactive)
REMARK    1  A    between atoms: C_1  and  C_2
REMARK    2  A    between atoms: C_8  and  N_9
REMARK    3  A    between atoms: N_16  and  C_17
REMARK    4  A    between atoms: N_16  and  C_18
REMARK    5  A    between atoms: C_18  and  C_19
REMARK    6  A    between atoms: C_19  and  O_20
REMARK    7  A    between atoms: C_19  and  C_21
REMARK    8  A    between atoms: C_21  and  O_22
REMARK                            x       y       z     vdW  Elec       q    Type
REMARK                         _______ _______ _______ _____ _____    ______ ____
ROOT
ATOM      1  N   UNL     1      -0.063  12.847  20.709  0.00  0.00    +0.000 N 
ATOM      2  C   UNL     1       0.407  11.574  20.475  0.00  0.00    +0.000 A 
ATOM      3  N   UNL     1       0.989  11.253  19.353  0.00  0.00    +0.000 NA
ATOM      4  C   UNL     1       1.469   9.943  19.148  0.00  0.00    +0.000 A 
ATOM      5  C   UNL     1       2.124   9.649  17.971  0.00  0.00    +0.000 A 
ATOM      6  C   UNL     1       2.595   8.357  17.744  0.00  0.00    +0.000 A 
ATOM      7  C   UNL     1       2.396   7.350  18.690  0.00  0.00    +0.000 A 
ATOM      8  N   UNL     1       2.726   6.041  18.398  0.00  0.00    +0.000 N 
ATOM      9  C   UNL     1       3.903   5.714  17.606  0.00  0.00    +0.000 C 
ATOM     10  N   UNL     1       1.749   7.618  19.849  0.00  0.00    +0.000 NA
ATOM     11  C   UNL     1       1.336   8.898  20.062  0.00  0.00    +0.000 A 
ATOM     12  N   UNL     1       0.703   9.263  21.257  0.00  0.00    +0.000 N 
ATOM     13  C   UNL     1       0.435   8.534  22.380  0.00  0.00    +0.000 A 
ATOM     14  N   UNL     1      -0.182   9.258  23.292  0.00  0.00    +0.000 NA
ATOM     15  C   UNL     1      -0.307  10.511  22.735  0.00  0.00    +0.000 A 
ATOM     16  C   UNL     1       0.239  10.540  21.471  0.00  0.00    +0.000 A 
ATOM     17  H   UNL     1      -1.065  12.858  20.887  0.00  0.00    +0.000 HD
ENDROOT
BRANCH   1  25
ATOM     18  C   UNL     1       1.710  14.943  22.038  0.00  0.00    +0.000 C 
ATOM     19  C   UNL     1       1.144  15.037  20.646  0.00  0.00    +0.000 A 
ATOM     20  C   UNL     1       1.373  16.244  19.951  0.00  0.00    +0.000 A 
ATOM     21  C   UNL     1       0.845  16.469  18.681  0.00  0.00    +0.000 A 
ATOM     22  C   UNL     1       0.086  15.482  18.069  0.00  0.00    +0.000 A 
ATOM     23  C   UNL     1      -0.162  14.285  18.742  0.00  0.00    +0.000 A 
ATOM     24 CL   UNL     1      -1.132  13.094  17.935  0.00  0.00    +0.000 Cl
ATOM     25  C   UNL     1       0.341  14.037  20.045  0.00  0.00    +0.000 A 
ENDBRANCH   1  25
BRANCH   8  26
ATOM     26  C   UNL     1       2.005   4.937  19.049  0.00  0.00    +0.000 C 
BRANCH  26  27
ATOM     27  C   UNL     1       2.736   4.401  20.306  0.00  0.00    +0.000 C 
BRANCH  27  28
ATOM     28  O   UNL     1       2.537   5.218  21.467  0.00  0.00    +0.000 OA
ATOM     29  H   UNL     1       3.157   4.889  22.148  0.00  0.00    +0.000 HD
ENDBRANCH  27  28
BRANCH  27  30
ATOM     30  C   UNL     1       2.352   2.954  20.647  0.00  0.00    +0.000 C 
BRANCH  30  31
ATOM     31  O   UNL     1       1.921   2.831  22.006  0.00  0.00    +0.000 OA
ATOM     32  H   UNL     1       2.671   2.468  22.513  0.00  0.00    +0.000 HD
ENDBRANCH  30  31
ENDBRANCH  27  30
ENDBRANCH  26  27
ENDBRANCH   8  26
TORSDOF 6
ENDMDL
MODEL 6
REMARK VINA RESULT:      -6.0      1.378      2.069
REMARK  Name = 
REMARK  8 active torsions:
REMARK  status: ('A' for Active; 'I' for Inactive)
REMARK    1  A    between atoms: C_1  and  C_2
REMARK    2  A    between atoms: C_8  and  N_9
REMARK    3  A    between atoms: N_16  and  C_17
REMARK    4  A    between atoms: N_16  and  C_18
REMARK    5  A    between atoms: C_18  and  C_19
REMARK    6  A    between atoms: C_19  and  O_20
REMARK    7  A    between atoms: C_19  and  C_21
REMARK    8  A    between atoms: C_21  and  O_22
REMARK                            x       y       z     vdW  Elec       q    Type
REMARK                         _______ _______ _______ _____ _____    ______ ____
ROOT
ATOM      1  N   UNL     1       5.061   4.920  18.078  0.00  0.00    +0.000 N 
ATOM      2  C   UNL     1       4.024   5.744  18.453  0.00  0.00    +0.000 A 
ATOM      3  N   UNL     1       3.786   6.870  17.839  0.00  0.00    +0.000 NA
ATOM      4  C   UNL     1       2.708   7.687  18.240  0.00  0.00    +0.000 A 
ATOM      5  C   UNL     1       2.453   8.846  17.540  0.00  0.00    +0.000 A 
ATOM      6  C   UNL     1       1.400   9.674  17.929  0.00  0.00    +0.000 A 
ATOM      7  C   UNL     1       0.610   9.349  19.033  0.00  0.00    +0.000 A 
ATOM      8  N   UNL     1      -0.330  10.243  19.507  0.00  0.00    +0.000 N 
ATOM      9  C   UNL     1      -1.108  11.076  18.601  0.00  0.00    +0.000 C 
ATOM     10  N   UNL     1       0.849   8.217  19.737  0.00  0.00    +0.000 NA
ATOM     11  C   UNL     1       1.858   7.408  19.310  0.00  0.00    +0.000 A 
ATOM     12  N   UNL     1       2.135   6.197  19.959  0.00  0.00    +0.000 N 
ATOM     13  C   UNL     1       1.505   5.583  21.002  0.00  0.00    +0.000 A 
ATOM     14  N   UNL     1       2.085   4.441  21.315  0.00  0.00    +0.000 NA
ATOM     15  C   UNL     1       3.128   4.312  20.425  0.00  0.00    +0.000 A 
ATOM     16  C   UNL     1       3.177   5.388  19.569  0.00  0.00    +0.000 A 
ATOM     17  H   UNL     1       5.726   4.774  18.834  0.00  0.00    +0.000 HD
ENDROOT
BRANCH   1  25
ATOM     18  C   UNL     1       4.036   3.300  15.706  0.00  0.00    +0.000 C 
ATOM     19  C   UNL     1       5.282   4.145  15.710  0.00  0.00    +0.000 A 
ATOM     20  C   UNL     1       6.086   4.091  14.551  0.00  0.00    +0.000 A 
ATOM     21  C   UNL     1       7.293   4.781  14.465  0.00  0.00    +0.000 A 
ATOM     22  C   UNL     1       7.718   5.558  15.533  0.00  0.00    +0.000 A 
ATOM     23  C   UNL     1       6.943   5.618  16.693  0.00  0.00    +0.000 A 
ATOM     24 CL   UNL     1       7.532   6.590  18.004  0.00  0.00    +0.000 Cl
ATOM     25  C   UNL     1       5.723   4.906  16.819  0.00  0.00    +0.000 A 
ENDBRANCH   1  25
BRANCH   8  26
ATOM     26  C   UNL     1      -0.707  10.230  20.927  0.00  0.00    +0.000 C 
BRANCH  26  27
ATOM     27  C   UNL     1       0.435  10.712  21.857  0.00  0.00    +0.000 C 
BRANCH  27  28
ATOM     28  O   UNL     1       0.129  11.934  22.542  0.00  0.00    +0.000 OA
ATOM     29  H   UNL     1       0.965  12.438  22.596  0.00  0.00    +0.000 HD
ENDBRANCH  27  28
BRANCH  27  30
ATOM     30  C   UNL     1       0.847   9.654  22.892  0.00  0.00    +0.000 C 
BRANCH  30  31
ATOM     31  O   UNL     1       1.973   8.894  22.445  0.00  0.00    +0.000 OA
ATOM     32  H   UNL     1       2.303   8.391  23.214  0.00  0.00    +0.000 HD
ENDBRANCH  30  31
ENDBRANCH  27  30
ENDBRANCH  26  27
ENDBRANCH   8  26
TORSDOF 6
ENDMDL
MODEL 7
REMARK VINA RESULT:      -6.0      4.094      9.643
REMARK  Name = 
REMARK  8 active torsions:
REMARK  status: ('A' for Active; 'I' for Inactive)
REMARK    1  A    between atoms: C_1  and  C_2
REMARK    2  A    between atoms: C_8  and  N_9
REMARK    3  A    between atoms: N_16  and  C_17
REMARK    4  A    between atoms: N_16  and  C_18
REMARK    5  A    between atoms: C_18  and  C_19
REMARK    6  A    between atoms: C_19  and  O_20
REMARK    7  A    between atoms: C_19  and  C_21
REMARK    8  A    between atoms: C_21  and  O_22
REMARK                            x       y       z     vdW  Elec       q    Type
REMARK                         _______ _______ _______ _____ _____    ______ ____
ROOT
ATOM      1  N   UNL     1      -1.047  13.165  20.935  0.00  0.00    +0.000 N 
ATOM      2  C   UNL     1      -0.378  12.005  20.613  0.00  0.00    +0.000 A 
ATOM      3  N   UNL     1      -0.582  10.893  21.264  0.00  0.00    +0.000 NA
ATOM      4  C   UNL     1       0.111   9.718  20.902  0.00  0.00    +0.000 A 
ATOM      5  C   UNL     1      -0.163   8.548  21.576  0.00  0.00    +0.000 A 
ATOM      6  C   UNL     1       0.520   7.379  21.243  0.00  0.00    +0.000 A 
ATOM      7  C   UNL     1       1.493   7.385  20.242  0.00  0.00    +0.000 A 
ATOM      8  N   UNL     1       2.273   6.267  20.019  0.00  0.00    +0.000 N 
ATOM      9  C   UNL     1       1.724   4.923  20.132  0.00  0.00    +0.000 C 
ATOM     10  N   UNL     1       1.781   8.526  19.572  0.00  0.00    +0.000 NA
ATOM     11  C   UNL     1       1.069   9.643  19.892  0.00  0.00    +0.000 A 
ATOM     12  N   UNL     1       1.277  10.849  19.211  0.00  0.00    +0.000 N 
ATOM     13  C   UNL     1       2.092  11.146  18.156  0.00  0.00    +0.000 A 
ATOM     14  N   UNL     1       1.990  12.414  17.808  0.00  0.00    +0.000 NA
ATOM     15  C   UNL     1       1.061  12.952  18.669  0.00  0.00    +0.000 A 
ATOM     16  C   UNL     1       0.599  11.998  19.548  0.00  0.00    +0.000 A 
ATOM     17  H   UNL     1      -0.409  13.912  21.202  0.00  0.00    +0.000 HD
ENDROOT
BRANCH   1  25
ATOM     18  C   UNL     1      -1.184  14.221  23.792  0.00  0.00    +0.000 C 
ATOM     19  C   UNL     1      -2.359  13.735  22.986  0.00  0.00    +0.000 A 
ATOM     20  C   UNL     1      -3.600  13.670  23.655  0.00  0.00    +0.000 A 
ATOM     21  C   UNL     1      -4.743  13.176  23.030  0.00  0.00    +0.000 A 
ATOM     22  C   UNL     1      -4.675  12.751  21.711  0.00  0.00    +0.000 A 
ATOM     23  C   UNL     1      -3.456  12.797  21.034  0.00  0.00    +0.000 A 
ATOM     24 CL   UNL     1      -3.425  12.235  19.392  0.00  0.00    +0.000 Cl
ATOM     25  C   UNL     1      -2.270  13.270  21.652  0.00  0.00    +0.000 A 
ENDBRANCH   1  25
BRANCH   8  26
ATOM     26  C   UNL     1       3.628   6.413  19.468  0.00  0.00    +0.000 C 
BRANCH  26  27
ATOM     27  C   UNL     1       4.060   5.200  18.606  0.00  0.00    +0.000 C 
BRANCH  27  28
ATOM     28  O   UNL     1       4.144   5.503  17.206  0.00  0.00    +0.000 OA
ATOM     29  H   UNL     1       3.665   6.345  17.076  0.00  0.00    +0.000 HD
ENDBRANCH  27  28
BRANCH  27  30
ATOM     30  C   UNL     1       5.393   4.588  19.060  0.00  0.00    +0.000 C 
BRANCH  30  31
ATOM     31  O   UNL     1       5.262   3.191  19.337  0.00  0.00    +0.000 OA
ATOM     32  H   UNL     1       6.139   2.787  19.195  0.00  0.00    +0.000 HD
ENDBRANCH  30  31
ENDBRANCH  27  30
ENDBRANCH  26  27
ENDBRANCH   8  26
TORSDOF 6
ENDMDL
MODEL 8
REMARK VINA RESULT:      -5.9      4.130     10.095
REMARK  Name = 
REMARK  8 active torsions:
REMARK  status: ('A' for Active; 'I' for Inactive)
REMARK    1  A    between atoms: C_1  and  C_2
REMARK    2  A    between atoms: C_8  and  N_9
REMARK    3  A    between atoms: N_16  and  C_17
REMARK    4  A    between atoms: N_16  and  C_18
REMARK    5  A    between atoms: C_18  and  C_19
REMARK    6  A    between atoms: C_19  and  O_20
REMARK    7  A    between atoms: C_19  and  C_21
REMARK    8  A    between atoms: C_21  and  O_22
REMARK                            x       y       z     vdW  Elec       q    Type
REMARK                         _______ _______ _______ _____ _____    ______ ____
ROOT
ATOM      1  N   UNL     1      -1.845  13.454  21.362  0.00  0.00    +0.000 N 
ATOM      2  C   UNL     1      -1.234  12.289  20.955  0.00  0.00    +0.000 A 
ATOM      3  N   UNL     1      -0.473  11.597  21.757  0.00  0.00    +0.000 NA
ATOM      4  C   UNL     1       0.129  10.401  21.313  0.00  0.00    +0.000 A 
ATOM      5  C   UNL     1       0.887   9.667  22.199  0.00  0.00    +0.000 A 
ATOM      6  C   UNL     1       1.502   8.489  21.777  0.00  0.00    +0.000 A 
ATOM      7  C   UNL     1       1.372   8.052  20.457  0.00  0.00    +0.000 A 
ATOM      8  N   UNL     1       2.103   6.972  20.003  0.00  0.00    +0.000 N 
ATOM      9  C   UNL     1       2.365   5.821  20.855  0.00  0.00    +0.000 C 
ATOM     10  N   UNL     1       0.636   8.763  19.570  0.00  0.00    +0.000 NA
ATOM     11  C   UNL     1       0.014   9.888  20.021  0.00  0.00    +0.000 A 
ATOM     12  N   UNL     1      -0.802  10.650  19.175  0.00  0.00    +0.000 N 
ATOM     13  C   UNL     1      -1.175  10.444  17.878  0.00  0.00    +0.000 A 
ATOM     14  N   UNL     1      -1.963  11.408  17.442  0.00  0.00    +0.000 NA
ATOM     15  C   UNL     1      -2.111  12.263  18.510  0.00  0.00    +0.000 A 
ATOM     16  C   UNL     1      -1.402  11.812  19.601  0.00  0.00    +0.000 A 
ATOM     17  H   UNL     1      -1.559  14.252  20.799  0.00  0.00    +0.000 HD
ENDROOT
BRANCH   1  25
ATOM     18  C   UNL     1      -4.462  12.802  22.784  0.00  0.00    +0.000 C 
ATOM     19  C   UNL     1      -3.320  13.585  23.377  0.00  0.00    +0.000 A 
ATOM     20  C   UNL     1      -3.534  14.144  24.655  0.00  0.00    +0.000 A 
ATOM     21  C   UNL     1      -2.573  14.940  25.275  0.00  0.00    +0.000 A 
ATOM     22  C   UNL     1      -1.365  15.181  24.637  0.00  0.00    +0.000 A 
ATOM     23  C   UNL     1      -1.136  14.645  23.368  0.00  0.00    +0.000 A 
ATOM     24 CL   UNL     1       0.385  14.994  22.610  0.00  0.00    +0.000 Cl
ATOM     25  C   UNL     1      -2.106  13.853  22.701  0.00  0.00    +0.000 A 
ENDBRANCH   1  25
BRANCH   8  26
ATOM     26  C   UNL     1       2.466   6.874  18.582  0.00  0.00    +0.000 C 
BRANCH  26  27
ATOM     27  C   UNL     1       2.947   5.457  18.181  0.00  0.00    +0.000 C 
BRANCH  27  28
ATOM     28  O   UNL     1       1.916   4.657  17.587  0.00  0.00    +0.000 OA
ATOM     29  H   UNL     1       2.049   4.706  16.620  0.00  0.00    +0.000 HD
ENDBRANCH  27  28
BRANCH  27  30
ATOM     30  C   UNL     1       4.159   5.483  17.238  0.00  0.00    +0.000 C 
BRANCH  30  31
ATOM     31  O   UNL     1       4.540   6.822  16.909  0.00  0.00    +0.000 OA
ATOM     32  H   UNL     1       4.301   7.383  17.671  0.00  0.00    +0.000 HD
ENDBRANCH  30  31
ENDBRANCH  27  30
ENDBRANCH  26  27
ENDBRANCH   8  26
TORSDOF 6
ENDMDL
MODEL 9
REMARK VINA RESULT:      -5.9      4.093      8.480
REMARK  Name = 
REMARK  8 active torsions:
REMARK  status: ('A' for Active; 'I' for Inactive)
REMARK    1  A    between atoms: C_1  and  C_2
REMARK    2  A    between atoms: C_8  and  N_9
REMARK    3  A    between atoms: N_16  and  C_17
REMARK    4  A    between atoms: N_16  and  C_18
REMARK    5  A    between atoms: C_18  and  C_19
REMARK    6  A    between atoms: C_19  and  O_20
REMARK    7  A    between atoms: C_19  and  C_21
REMARK    8  A    between atoms: C_21  and  O_22
REMARK                            x       y       z     vdW  Elec       q    Type
REMARK                         _______ _______ _______ _____ _____    ______ ____
ROOT
ATOM      1  N   UNL     1      -0.099  12.733  20.685  0.00  0.00    +0.000 N 
ATOM      2  C   UNL     1       0.390  11.459  20.509  0.00  0.00    +0.000 A 
ATOM      3  N   UNL     1       0.992  11.101  19.408  0.00  0.00    +0.000 NA
ATOM      4  C   UNL     1       1.492   9.791  19.262  0.00  0.00    +0.000 A 
ATOM      5  C   UNL     1       2.167   9.459  18.108  0.00  0.00    +0.000 A 
ATOM      6  C   UNL     1       2.659   8.165  17.938  0.00  0.00    +0.000 A 
ATOM      7  C   UNL     1       2.458   7.194  18.921  0.00  0.00    +0.000 A 
ATOM      8  N   UNL     1       2.809   5.879  18.686  0.00  0.00    +0.000 N 
ATOM      9  C   UNL     1       4.001   5.536  17.924  0.00  0.00    +0.000 C 
ATOM     10  N   UNL     1       1.791   7.499  20.059  0.00  0.00    +0.000 NA
ATOM     11  C   UNL     1       1.359   8.781  20.215  0.00  0.00    +0.000 A 
ATOM     12  N   UNL     1       0.703   9.184  21.385  0.00  0.00    +0.000 N 
ATOM     13  C   UNL     1       0.429   8.496  22.532  0.00  0.00    +0.000 A 
ATOM     14  N   UNL     1      -0.212   9.248  23.406  0.00  0.00    +0.000 NA
ATOM     15  C   UNL     1      -0.343  10.476  22.798  0.00  0.00    +0.000 A 
ATOM     16  C   UNL     1       0.221  10.463  21.542  0.00  0.00    +0.000 A 
ATOM     17  H   UNL     1      -1.104  12.738  20.848  0.00  0.00    +0.000 HD
ENDROOT
BRANCH   1  25
ATOM     18  C   UNL     1       1.728  14.844  21.913  0.00  0.00    +0.000 C 
ATOM     19  C   UNL     1       1.127  14.908  20.534  0.00  0.00    +0.000 A 
ATOM     20  C   UNL     1       1.351  16.094  19.802  0.00  0.00    +0.000 A 
ATOM     21  C   UNL     1       0.792  16.292  18.541  0.00  0.00    +0.000 A 
ATOM     22  C   UNL     1       0.007  15.297  17.974  0.00  0.00    +0.000 A 
ATOM     23  C   UNL     1      -0.235  14.121  18.684  0.00  0.00    +0.000 A 
ATOM     24 CL   UNL     1      -1.238  12.920  17.934  0.00  0.00    +0.000 Cl
ATOM     25  C   UNL     1       0.299  13.902  19.980  0.00  0.00    +0.000 A 
ENDBRANCH   1  25
BRANCH   8  26
ATOM     26  C   UNL     1       2.093   4.792  19.370  0.00  0.00    +0.000 C 
BRANCH  26  27
ATOM     27  C   UNL     1       1.392   3.821  18.386  0.00  0.00    +0.000 C 
BRANCH  27  28
ATOM     28  O   UNL     1       1.023   4.441  17.147  0.00  0.00    +0.000 OA
ATOM     29  H   UNL     1       0.060   4.604  17.194  0.00  0.00    +0.000 HD
ENDBRANCH  27  28
BRANCH  27  30
ATOM     30  C   UNL     1       2.231   2.571  18.084  0.00  0.00    +0.000 C 
BRANCH  30  31
ATOM     31  O   UNL     1       1.715   1.418  18.756  0.00  0.00    +0.000 OA
ATOM     32  H   UNL     1       2.241   1.301  19.570  0.00  0.00    +0.000 HD
ENDBRANCH  30  31
ENDBRANCH  27  30
ENDBRANCH  26  27
ENDBRANCH   8  26
TORSDOF 6
ENDMDL
