MODEL 1
REMARK VINA RESULT:      -6.9      0.000      0.000
REMARK  Name = 
REMARK  6 active torsions:
REMARK  status: ('A' for Active; 'I' for Inactive)
REMARK    1  A    between atoms: C_1  and  C_2
REMARK    2  A    between atoms: C_2  and  C_3
REMARK    3  A    between atoms: C_2  and  O_4
REMARK    4  A    between atoms: C_2  and  C_5
REMARK    5  A    between atoms: C_5  and  N_6
REMARK    6  A    between atoms: C_9  and  C_10
REMARK                            x       y       z     vdW  Elec       q    Type
REMARK                         _______ _______ _______ _____ _____    ______ ____
ROOT
ATOM      1  N   UNL     1       6.136   4.612  17.545  0.00  0.00    +0.000 N 
ATOM      2  C   UNL     1       6.241   5.409  18.638  0.00  0.00    +0.000 A 
ATOM      3  N   UNL     1       5.160   5.290  19.370  0.00  0.00    +0.000 NA
ATOM      4  C   UNL     1       4.393   4.377  18.672  0.00  0.00    +0.000 A 
ATOM      5  N   UNL     1       4.979   3.923  17.551  0.00  0.00    +0.000 NA
ENDROOT
BRANCH   4   6
ATOM      6  C   UNL     1       3.084   3.939  19.150  0.00  0.00    +0.000 A 
ATOM      7  C   UNL     1       2.627   4.328  20.418  0.00  0.00    +0.000 A 
ATOM      8  C   UNL     1       1.394   3.880  20.900  0.00  0.00    +0.000 A 
ATOM      9  C   UNL     1       0.601   3.045  20.116  0.00  0.00    +0.000 A 
ATOM     10  C   UNL     1       1.033   2.667  18.846  0.00  0.00    +0.000 A 
ATOM     11  C   UNL     1       2.266   3.114  18.364  0.00  0.00    +0.000 A 
ENDBRANCH   4   6
BRANCH   1  12
ATOM     12  C   UNL     1       7.110   4.427  16.492  0.00  0.00    +0.000 C 
BRANCH  12  14
ATOM     13  C   UNL     1       5.518   6.001  15.260  0.00  0.00    +0.000 C 
ATOM     14  C   UNL     1       6.660   4.988  15.129  0.00  0.00    +0.000 C 
ATOM     15  C   UNL     1       6.226   3.833  14.221  0.00  0.00    +0.000 C 
BRANCH  14  16
ATOM     16  O   UNL     1       7.781   5.615  14.493  0.00  0.00    +0.000 OA
ATOM     17  H   UNL     1       8.428   5.852  15.181  0.00  0.00    +0.000 HD
ENDBRANCH  14  16
ENDBRANCH  12  14
ENDBRANCH   1  12
TORSDOF 4
ENDMDL
MODEL 2
REMARK VINA RESULT:      -6.9      0.113      1.211
REMARK  Name = 
REMARK  6 active torsions:
REMARK  status: ('A' for Active; 'I' for Inactive)
REMARK    1  A    between atoms: C_1  and  C_2
REMARK    2  A    between atoms: C_2  and  C_3
REMARK    3  A    between atoms: C_2  and  O_4
REMARK    4  A    between atoms: C_2  and  C_5
REMARK    5  A    between atoms: C_5  and  N_6
REMARK    6  A    between atoms: C_9  and  C_10
REMARK                            x       y       z     vdW  Elec       q    Type
REMARK                         _______ _______ _______ _____ _____    ______ ____
ROOT
ATOM      1  N   UNL     1       6.089   4.629  17.622  0.00  0.00    +0.000 N 
ATOM      2  C   UNL     1       6.137   5.453  18.699  0.00  0.00    +0.000 A 
ATOM      3  N   UNL     1       5.050   5.297  19.415  0.00  0.00    +0.000 NA
ATOM      4  C   UNL     1       4.339   4.335  18.725  0.00  0.00    +0.000 A 
ATOM      5  N   UNL     1       4.965   3.885  17.623  0.00  0.00    +0.000 NA
ENDROOT
BRANCH   4   6
ATOM      6  C   UNL     1       3.044   3.845  19.190  0.00  0.00    +0.000 A 
ATOM      7  C   UNL     1       2.243   3.055  18.352  0.00  0.00    +0.000 A 
ATOM      8  C   UNL     1       0.985   2.618  18.773  0.00  0.00    +0.000 A 
ATOM      9  C   UNL     1       0.516   2.960  20.040  0.00  0.00    +0.000 A 
ATOM     10  C   UNL     1       1.309   3.727  20.892  0.00  0.00    +0.000 A 
ATOM     11  C   UNL     1       2.567   4.166  20.470  0.00  0.00    +0.000 A 
ENDBRANCH   4   6
BRANCH   1  12
ATOM     12  C   UNL     1       7.088   4.468  16.589  0.00  0.00    +0.000 C 
BRANCH  12  14
ATOM     13  C   UNL     1       5.510   6.021  15.314  0.00  0.00    +0.000 C 
ATOM     14  C   UNL     1       6.643   4.995  15.211  0.00  0.00    +0.000 C 
ATOM     15  C   UNL     1       6.198   3.818  14.336  0.00  0.00    +0.000 C 
BRANCH  14  16
ATOM     16  O   UNL     1       7.769   5.592  14.557  0.00  0.00    +0.000 OA
ATOM     17  H   UNL     1       8.031   5.017  13.815  0.00  0.00    +0.000 HD
ENDBRANCH  14  16
ENDBRANCH  12  14
ENDBRANCH   1  12
TORSDOF 4
ENDMDL
MODEL 3
REMARK VINA RESULT:      -6.8      1.680      2.657
REMARK  Name = 
REMARK  6 active torsions:
REMARK  status: ('A' for Active; 'I' for Inactive)
REMARK    1  A    between atoms: C_1  and  C_2
REMARK    2  A    between atoms: C_2  and  C_3
REMARK    3  A    between atoms: C_2  and  O_4
REMARK    4  A    between atoms: C_2  and  C_5
REMARK    5  A    between atoms: C_5  and  N_6
REMARK    6  A    between atoms: C_9  and  C_10
REMARK                            x       y       z     vdW  Elec       q    Type
REMARK                         _______ _______ _______ _____ _____    ______ ____
ROOT
ATOM      1  N   UNL     1       4.944   5.818  17.401  0.00  0.00    +0.000 N 
ATOM      2  C   UNL     1       4.736   4.754  16.585  0.00  0.00    +0.000 A 
ATOM      3  N   UNL     1       3.969   3.882  17.194  0.00  0.00    +0.000 NA
ATOM      4  C   UNL     1       3.715   4.470  18.418  0.00  0.00    +0.000 A 
ATOM      5  N   UNL     1       4.286   5.677  18.568  0.00  0.00    +0.000 NA
ENDROOT
BRANCH   4   6
ATOM      6  C   UNL     1       2.873   3.829  19.426  0.00  0.00    +0.000 A 
ATOM      7  C   UNL     1       1.475   3.878  19.315  0.00  0.00    +0.000 A 
ATOM      8  C   UNL     1       0.662   3.304  20.296  0.00  0.00    +0.000 A 
ATOM      9  C   UNL     1       1.237   2.668  21.394  0.00  0.00    +0.000 A 
ATOM     10  C   UNL     1       2.624   2.594  21.507  0.00  0.00    +0.000 A 
ATOM     11  C   UNL     1       3.438   3.169  20.527  0.00  0.00    +0.000 A 
ENDBRANCH   4   6
BRANCH   1  12
ATOM     12  C   UNL     1       5.713   7.010  17.117  0.00  0.00    +0.000 C 
BRANCH  12  14
ATOM     13  C   UNL     1       7.564   5.833  18.426  0.00  0.00    +0.000 C 
ATOM     14  C   UNL     1       7.230   6.826  17.309  0.00  0.00    +0.000 C 
ATOM     15  C   UNL     1       7.873   8.184  17.614  0.00  0.00    +0.000 C 
BRANCH  14  16
ATOM     16  O   UNL     1       7.802   6.367  16.078  0.00  0.00    +0.000 OA
ATOM     17  H   UNL     1       8.639   6.844  15.934  0.00  0.00    +0.000 HD
ENDBRANCH  14  16
ENDBRANCH  12  14
ENDBRANCH   1  12
TORSDOF 4
ENDMDL
MODEL 4
REMARK VINA RESULT:      -6.7      1.514      1.788
REMARK  Name = 
REMARK  6 active torsions:
REMARK  status: ('A' for Active; 'I' for Inactive)
REMARK    1  A    between atoms: C_1  and  C_2
REMARK    2  A    between atoms: C_2  and  C_3
REMARK    3  A    between atoms: C_2  and  O_4
REMARK    4  A    between atoms: C_2  and  C_5
REMARK    5  A    between atoms: C_5  and  N_6
REMARK    6  A    between atoms: C_9  and  C_10
REMARK                            x       y       z     vdW  Elec       q    Type
REMARK                         _______ _______ _______ _____ _____    ______ ____
ROOT
ATOM      1  N   UNL     1       4.530   5.829  16.664  0.00  0.00    +0.000 N 
ATOM      2  C   UNL     1       4.244   6.938  17.393  0.00  0.00    +0.000 A 
ATOM      3  N   UNL     1       3.479   6.607  18.405  0.00  0.00    +0.000 NA
ATOM      4  C   UNL     1       3.318   5.243  18.261  0.00  0.00    +0.000 A 
ATOM      5  N   UNL     1       3.973   4.729  17.206  0.00  0.00    +0.000 NA
ENDROOT
BRANCH   4   6
ATOM      6  C   UNL     1       2.527   4.453  19.202  0.00  0.00    +0.000 A 
ATOM      7  C   UNL     1       2.776   4.535  20.580  0.00  0.00    +0.000 A 
ATOM      8  C   UNL     1       2.054   3.752  21.483  0.00  0.00    +0.000 A 
ATOM      9  C   UNL     1       1.070   2.882  21.020  0.00  0.00    +0.000 A 
ATOM     10  C   UNL     1       0.797   2.804  19.655  0.00  0.00    +0.000 A 
ATOM     11  C   UNL     1       1.520   3.587  18.751  0.00  0.00    +0.000 A 
ENDBRANCH   4   6
BRANCH   1  12
ATOM     12  C   UNL     1       5.357   5.742  15.480  0.00  0.00    +0.000 C 
BRANCH  12  14
ATOM     13  C   UNL     1       7.407   4.999  16.811  0.00  0.00    +0.000 C 
ATOM     14  C   UNL     1       6.506   4.723  15.603  0.00  0.00    +0.000 C 
ATOM     15  C   UNL     1       7.342   4.741  14.319  0.00  0.00    +0.000 C 
BRANCH  14  16
ATOM     16  O   UNL     1       5.950   3.407  15.715  0.00  0.00    +0.000 OA
ATOM     17  H   UNL     1       4.981   3.478  15.634  0.00  0.00    +0.000 HD
ENDBRANCH  14  16
ENDBRANCH  12  14
ENDBRANCH   1  12
TORSDOF 4
ENDMDL
MODEL 5
REMARK VINA RESULT:      -6.6      1.510      2.128
REMARK  Name = 
REMARK  6 active torsions:
REMARK  status: ('A' for Active; 'I' for Inactive)
REMARK    1  A    between atoms: C_1  and  C_2
REMARK    2  A    between atoms: C_2  and  C_3
REMARK    3  A    between atoms: C_2  and  O_4
REMARK    4  A    between atoms: C_2  and  C_5
REMARK    5  A    between atoms: C_5  and  N_6
REMARK    6  A    between atoms: C_9  and  C_10
REMARK                            x       y       z     vdW  Elec       q    Type
REMARK                         _______ _______ _______ _____ _____    ______ ____
ROOT
ATOM      1  N   UNL     1       4.514   5.826  16.678  0.00  0.00    +0.000 N 
ATOM      2  C   UNL     1       4.197   6.931  17.400  0.00  0.00    +0.000 A 
ATOM      3  N   UNL     1       3.444   6.585  18.416  0.00  0.00    +0.000 NA
ATOM      4  C   UNL     1       3.322   5.216  18.281  0.00  0.00    +0.000 A 
ATOM      5  N   UNL     1       3.990   4.714  17.229  0.00  0.00    +0.000 NA
ENDROOT
BRANCH   4   6
ATOM      6  C   UNL     1       2.558   4.409  19.230  0.00  0.00    +0.000 A 
ATOM      7  C   UNL     1       1.515   3.586  18.779  0.00  0.00    +0.000 A 
ATOM      8  C   UNL     1       0.752   2.843  19.683  0.00  0.00    +0.000 A 
ATOM      9  C   UNL     1       1.026   2.910  21.048  0.00  0.00    +0.000 A 
ATOM     10  C   UNL     1       2.072   3.708  21.508  0.00  0.00    +0.000 A 
ATOM     11  C   UNL     1       2.835   4.452  20.604  0.00  0.00    +0.000 A 
ENDBRANCH   4   6
BRANCH   1  12
ATOM     12  C   UNL     1       5.339   5.754  15.492  0.00  0.00    +0.000 C 
BRANCH  12  14
ATOM     13  C   UNL     1       7.383   4.993  16.823  0.00  0.00    +0.000 C 
ATOM     14  C   UNL     1       6.492   4.738  15.603  0.00  0.00    +0.000 C 
ATOM     15  C   UNL     1       7.337   4.786  14.326  0.00  0.00    +0.000 C 
BRANCH  14  16
ATOM     16  O   UNL     1       5.941   3.418  15.684  0.00  0.00    +0.000 OA
ATOM     17  H   UNL     1       6.678   2.781  15.702  0.00  0.00    +0.000 HD
ENDBRANCH  14  16
ENDBRANCH  12  14
ENDBRANCH   1  12
TORSDOF 4
ENDMDL
MODEL 6
REMARK VINA RESULT:      -6.6      0.840      1.082
REMARK  Name = 
REMARK  6 active torsions:
REMARK  status: ('A' for Active; 'I' for Inactive)
REMARK    1  A    between atoms: C_1  and  C_2
REMARK    2  A    between atoms: C_2  and  C_3
REMARK    3  A    between atoms: C_2  and  O_4
REMARK    4  A    between atoms: C_2  and  C_5
REMARK    5  A    between atoms: C_5  and  N_6
REMARK    6  A    between atoms: C_9  and  C_10
REMARK                            x       y       z     vdW  Elec       q    Type
REMARK                         _______ _______ _______ _____ _____    ______ ____
ROOT
ATOM      1  N   UNL     1       6.217   4.498  17.124  0.00  0.00    +0.000 N 
ATOM      2  C   UNL     1       6.563   5.153  18.261  0.00  0.00    +0.000 A 
ATOM      3  N   UNL     1       5.551   5.141  19.094  0.00  0.00    +0.000 NA
ATOM      4  C   UNL     1       4.574   4.442  18.412  0.00  0.00    +0.000 A 
ATOM      5  N   UNL     1       4.963   4.013  17.199  0.00  0.00    +0.000 NA
ENDROOT
BRANCH   4   6
ATOM      6  C   UNL     1       3.259   4.182  18.993  0.00  0.00    +0.000 A 
ATOM      7  C   UNL     1       2.875   4.812  20.186  0.00  0.00    +0.000 A 
ATOM      8  C   UNL     1       1.637   4.537  20.771  0.00  0.00    +0.000 A 
ATOM      9  C   UNL     1       0.765   3.634  20.166  0.00  0.00    +0.000 A 
ATOM     10  C   UNL     1       1.125   3.015  18.970  0.00  0.00    +0.000 A 
ATOM     11  C   UNL     1       2.364   3.289  18.385  0.00  0.00    +0.000 A 
ENDBRANCH   4   6
BRANCH   1  12
ATOM     12  C   UNL     1       7.040   4.261  15.958  0.00  0.00    +0.000 C 
BRANCH  12  14
ATOM     13  C   UNL     1       5.594   3.889  13.884  0.00  0.00    +0.000 C 
ATOM     14  C   UNL     1       6.469   4.875  14.665  0.00  0.00    +0.000 C 
ATOM     15  C   UNL     1       7.622   5.357  13.778  0.00  0.00    +0.000 C 
BRANCH  14  16
ATOM     16  O   UNL     1       5.696   6.033  15.002  0.00  0.00    +0.000 OA
ATOM     17  H   UNL     1       5.774   6.674  14.273  0.00  0.00    +0.000 HD
ENDBRANCH  14  16
ENDBRANCH  12  14
ENDBRANCH   1  12
TORSDOF 4
ENDMDL
MODEL 7
REMARK VINA RESULT:      -6.6      3.076      6.195
REMARK  Name = 
REMARK  6 active torsions:
REMARK  status: ('A' for Active; 'I' for Inactive)
REMARK    1  A    between atoms: C_1  and  C_2
REMARK    2  A    between atoms: C_2  and  C_3
REMARK    3  A    between atoms: C_2  and  O_4
REMARK    4  A    between atoms: C_2  and  C_5
REMARK    5  A    between atoms: C_5  and  N_6
REMARK    6  A    between atoms: C_9  and  C_10
REMARK                            x       y       z     vdW  Elec       q    Type
REMARK                         _______ _______ _______ _____ _____    ______ ____
ROOT
ATOM      1  N   UNL     1       3.243   3.302  18.684  0.00  0.00    +0.000 N 
ATOM      2  C   UNL     1       3.095   3.575  17.362  0.00  0.00    +0.000 A 
ATOM      3  N   UNL     1       4.007   4.440  16.991  0.00  0.00    +0.000 NA
ATOM      4  C   UNL     1       4.722   4.677  18.149  0.00  0.00    +0.000 A 
ATOM      5  N   UNL     1       4.288   3.972  19.208  0.00  0.00    +0.000 NA
ENDROOT
BRANCH   4   6
ATOM      6  C   UNL     1       5.862   5.591  18.182  0.00  0.00    +0.000 A 
ATOM      7  C   UNL     1       5.920   6.683  17.303  0.00  0.00    +0.000 A 
ATOM      8  C   UNL     1       7.024   7.537  17.300  0.00  0.00    +0.000 A 
ATOM      9  C   UNL     1       8.081   7.315  18.180  0.00  0.00    +0.000 A 
ATOM     10  C   UNL     1       8.029   6.246  19.073  0.00  0.00    +0.000 A 
ATOM     11  C   UNL     1       6.924   5.390  19.076  0.00  0.00    +0.000 A 
ENDBRANCH   4   6
BRANCH   1  12
ATOM     12  C   UNL     1       2.462   2.390  19.489  0.00  0.00    +0.000 C 
BRANCH  12  14
ATOM     13  C   UNL     1       1.421   4.600  20.235  0.00  0.00    +0.000 C 
ATOM     14  C   UNL     1       1.317   3.072  20.261  0.00  0.00    +0.000 C 
ATOM     15  C   UNL     1       1.317   2.578  21.712  0.00  0.00    +0.000 C 
BRANCH  14  16
ATOM     16  O   UNL     1       0.067   2.670  19.688  0.00  0.00    +0.000 OA
ATOM     17  H   UNL     1      -0.493   3.462  19.595  0.00  0.00    +0.000 HD
ENDBRANCH  14  16
ENDBRANCH  12  14
ENDBRANCH   1  12
TORSDOF 4
ENDMDL
MODEL 8
REMARK VINA RESULT:      -6.6      2.230      6.197
REMARK  Name = 
REMARK  6 active torsions:
REMARK  status: ('A' for Active; 'I' for Inactive)
REMARK    1  A    between atoms: C_1  and  C_2
REMARK    2  A    between atoms: C_2  and  C_3
REMARK    3  A    between atoms: C_2  and  O_4
REMARK    4  A    between atoms: C_2  and  C_5
REMARK    5  A    between atoms: C_5  and  N_6
REMARK    6  A    between atoms: C_9  and  C_10
REMARK                            x       y       z     vdW  Elec       q    Type
REMARK                         _______ _______ _______ _____ _____    ______ ____
ROOT
ATOM      1  N   UNL     1       4.454   4.195  17.622  0.00  0.00    +0.000 N 
ATOM      2  C   UNL     1       4.643   5.535  17.525  0.00  0.00    +0.000 A 
ATOM      3  N   UNL     1       5.234   5.810  16.387  0.00  0.00    +0.000 NA
ATOM      4  C   UNL     1       5.391   4.573  15.793  0.00  0.00    +0.000 A 
ATOM      5  N   UNL     1       4.899   3.556  16.522  0.00  0.00    +0.000 NA
ENDROOT
BRANCH   4   6
ATOM      6  C   UNL     1       6.009   4.417  14.479  0.00  0.00    +0.000 A 
ATOM      7  C   UNL     1       7.170   5.133  14.153  0.00  0.00    +0.000 A 
ATOM      8  C   UNL     1       7.745   5.023  12.885  0.00  0.00    +0.000 A 
ATOM      9  C   UNL     1       7.169   4.188  11.929  0.00  0.00    +0.000 A 
ATOM     10  C   UNL     1       6.027   3.454  12.245  0.00  0.00    +0.000 A 
ATOM     11  C   UNL     1       5.451   3.566  13.514  0.00  0.00    +0.000 A 
ENDBRANCH   4   6
BRANCH   1  12
ATOM     12  C   UNL     1       3.822   3.469  18.702  0.00  0.00    +0.000 C 
BRANCH  12  14
ATOM     13  C   UNL     1       1.518   4.433  19.240  0.00  0.00    +0.000 C 
ATOM     14  C   UNL     1       2.298   3.318  18.536  0.00  0.00    +0.000 C 
ATOM     15  C   UNL     1       1.859   1.955  19.081  0.00  0.00    +0.000 C 
BRANCH  14  16
ATOM     16  O   UNL     1       1.981   3.325  17.138  0.00  0.00    +0.000 OA
ATOM     17  H   UNL     1       1.564   2.474  16.916  0.00  0.00    +0.000 HD
ENDBRANCH  14  16
ENDBRANCH  12  14
ENDBRANCH   1  12
TORSDOF 4
ENDMDL
MODEL 9
REMARK VINA RESULT:      -6.6      2.129      6.136
REMARK  Name = 
REMARK  6 active torsions:
REMARK  status: ('A' for Active; 'I' for Inactive)
REMARK    1  A    between atoms: C_1  and  C_2
REMARK    2  A    between atoms: C_2  and  C_3
REMARK    3  A    between atoms: C_2  and  O_4
REMARK    4  A    between atoms: C_2  and  C_5
REMARK    5  A    between atoms: C_5  and  N_6
REMARK    6  A    between atoms: C_9  and  C_10
REMARK                            x       y       z     vdW  Elec       q    Type
REMARK                         _______ _______ _______ _____ _____    ______ ____
ROOT
ATOM      1  N   UNL     1       5.738   5.071  17.973  0.00  0.00    +0.000 N 
ATOM      2  C   UNL     1       7.067   4.831  18.106  0.00  0.00    +0.000 A 
ATOM      3  N   UNL     1       7.588   4.604  16.925  0.00  0.00    +0.000 NA
ATOM      4  C   UNL     1       6.514   4.723  16.065  0.00  0.00    +0.000 A 
ATOM      5  N   UNL     1       5.360   5.033  16.681  0.00  0.00    +0.000 NA
ENDROOT
BRANCH   4   6
ATOM      6  C   UNL     1       6.654   4.553  14.621  0.00  0.00    +0.000 A 
ATOM      7  C   UNL     1       5.838   3.644  13.932  0.00  0.00    +0.000 A 
ATOM      8  C   UNL     1       5.993   3.445  12.558  0.00  0.00    +0.000 A 
ATOM      9  C   UNL     1       6.962   4.158  11.856  0.00  0.00    +0.000 A 
ATOM     10  C   UNL     1       7.767   5.080  12.523  0.00  0.00    +0.000 A 
ATOM     11  C   UNL     1       7.613   5.279  13.898  0.00  0.00    +0.000 A 
ENDBRANCH   4   6
BRANCH   1  12
ATOM     12  C   UNL     1       4.790   5.385  19.019  0.00  0.00    +0.000 C 
BRANCH  12  14
ATOM     13  C   UNL     1       2.708   4.674  20.318  0.00  0.00    +0.000 C 
ATOM     14  C   UNL     1       3.692   4.320  19.199  0.00  0.00    +0.000 C 
ATOM     15  C   UNL     1       4.342   2.963  19.490  0.00  0.00    +0.000 C 
BRANCH  14  16
ATOM     16  O   UNL     1       2.977   4.178  17.965  0.00  0.00    +0.000 OA
ATOM     17  H   UNL     1       3.580   4.407  17.235  0.00  0.00    +0.000 HD
ENDBRANCH  14  16
ENDBRANCH  12  14
ENDBRANCH   1  12
TORSDOF 4
ENDMDL
