MODEL 1
REMARK VINA RESULT:      -8.0      0.000      0.000
REMARK  Name = 
REMARK  4 active torsions:
REMARK  status: ('A' for Active; 'I' for Inactive)
REMARK    1  A    between atoms: C_1  and  C_2
REMARK    2  A    between atoms: C_5  and  C_6
REMARK    3  A    between atoms: C_11  and  C_13
REMARK    4  A    between atoms: C_20  and  C_21
REMARK                            x       y       z     vdW  Elec       q    Type
REMARK                         _______ _______ _______ _____ _____    ______ ____
ROOT
ATOM      1  C   UNL     1       3.047   6.458  18.480  0.00  0.00    +0.000 A 
ATOM      2  C   UNL     1       2.835   5.963  19.747  0.00  0.00    +0.000 A 
ATOM      3  O   UNL     1       2.064   6.851  20.421  0.00  0.00    +0.000 OA
ATOM      4  C   UNL     1       1.832   7.848  19.521  0.00  0.00    +0.000 A 
ATOM      5  N   UNL     1       1.085   8.931  19.889  0.00  0.00    +0.000 N 
ATOM      6  C   UNL     1       0.725   9.156  21.195  0.00  0.00    +0.000 C 
ATOM      7  O   UNL     1       1.084   8.499  22.167  0.00  0.00    +0.000 OA
ATOM      8  N   UNL     1       2.351   7.642  18.330  0.00  0.00    +0.000 NA
ATOM      9  H   UNL     1       0.835   9.544  19.130  0.00  0.00    +0.000 HD
ENDROOT
BRANCH   1  14
ATOM     10  C   UNL     1       6.430   4.158  14.392  0.00  0.00    +0.000 C 
ATOM     11  C   UNL     1       5.555   4.748  15.457  0.00  0.00    +0.000 A 
ATOM     12  C   UNL     1       5.651   6.095  15.800  0.00  0.00    +0.000 A 
ATOM     13  C   UNL     1       4.831   6.624  16.798  0.00  0.00    +0.000 A 
ATOM     14  C   UNL     1       3.884   5.828  17.473  0.00  0.00    +0.000 A 
ATOM     15  C   UNL     1       3.766   4.470  17.116  0.00  0.00    +0.000 A 
ATOM     16  C   UNL     1       2.772   3.513  17.719  0.00  0.00    +0.000 C 
ATOM     17  C   UNL     1       4.618   3.948  16.119  0.00  0.00    +0.000 A 
ENDBRANCH   1  14
BRANCH   6  18
ATOM     18  C   UNL     1      -0.202  10.298  21.442  0.00  0.00    +0.000 A 
ATOM     19  C   UNL     1      -0.663  10.473  22.756  0.00  0.00    +0.000 A 
ATOM     20  C   UNL     1      -1.553  11.501  23.064  0.00  0.00    +0.000 A 
ATOM     21  C   UNL     1      -1.979  12.368  22.062  0.00  0.00    +0.000 A 
ATOM     22  C   UNL     1      -1.509  12.218  20.757  0.00  0.00    +0.000 A 
ATOM     23  C   UNL     1      -0.616  11.188  20.442  0.00  0.00    +0.000 A 
ENDBRANCH   6  18
TORSDOF 2
ENDMDL
MODEL 2
REMARK VINA RESULT:      -8.0      0.166      1.041
REMARK  Name = 
REMARK  4 active torsions:
REMARK  status: ('A' for Active; 'I' for Inactive)
REMARK    1  A    between atoms: C_1  and  C_2
REMARK    2  A    between atoms: C_5  and  C_6
REMARK    3  A    between atoms: C_11  and  C_13
REMARK    4  A    between atoms: C_20  and  C_21
REMARK                            x       y       z     vdW  Elec       q    Type
REMARK                         _______ _______ _______ _____ _____    ______ ____
ROOT
ATOM      1  C   UNL     1       3.058   6.488  18.520  0.00  0.00    +0.000 A 
ATOM      2  C   UNL     1       2.868   6.018  19.800  0.00  0.00    +0.000 A 
ATOM      3  O   UNL     1       2.108   6.919  20.470  0.00  0.00    +0.000 OA
ATOM      4  C   UNL     1       1.861   7.898  19.554  0.00  0.00    +0.000 A 
ATOM      5  N   UNL     1       1.119   8.988  19.913  0.00  0.00    +0.000 N 
ATOM      6  C   UNL     1       0.782   9.239  21.220  0.00  0.00    +0.000 C 
ATOM      7  O   UNL     1       1.158   8.602  22.199  0.00  0.00    +0.000 OA
ATOM      8  N   UNL     1       2.359   7.668  18.358  0.00  0.00    +0.000 NA
ATOM      9  H   UNL     1       0.856   9.586  19.146  0.00  0.00    +0.000 HD
ENDROOT
BRANCH   1  14
ATOM     10  C   UNL     1       6.372   4.106  14.422  0.00  0.00    +0.000 C 
ATOM     11  C   UNL     1       5.515   4.717  15.490  0.00  0.00    +0.000 A 
ATOM     12  C   UNL     1       5.624   6.068  15.811  0.00  0.00    +0.000 A 
ATOM     13  C   UNL     1       4.820   6.617  16.812  0.00  0.00    +0.000 A 
ATOM     14  C   UNL     1       3.878   5.837  17.511  0.00  0.00    +0.000 A 
ATOM     15  C   UNL     1       3.746   4.475  17.176  0.00  0.00    +0.000 A 
ATOM     16  C   UNL     1       2.755   3.533  17.806  0.00  0.00    +0.000 C 
ATOM     17  C   UNL     1       4.582   3.933  16.176  0.00  0.00    +0.000 A 
ENDBRANCH   1  14
BRANCH   6  18
ATOM     18  C   UNL     1      -0.141  10.386  21.460  0.00  0.00    +0.000 A 
ATOM     19  C   UNL     1      -0.514  11.150  20.343  0.00  0.00    +0.000 A 
ATOM     20  C   UNL     1      -1.351  12.254  20.487  0.00  0.00    +0.000 A 
ATOM     21  C   UNL     1      -1.831  12.596  21.748  0.00  0.00    +0.000 A 
ATOM     22  C   UNL     1      -1.486  11.830  22.863  0.00  0.00    +0.000 A 
ATOM     23  C   UNL     1      -0.645  10.721  22.724  0.00  0.00    +0.000 A 
ENDBRANCH   6  18
TORSDOF 2
ENDMDL
MODEL 3
REMARK VINA RESULT:      -7.7      1.179      8.613
REMARK  Name = 
REMARK  4 active torsions:
REMARK  status: ('A' for Active; 'I' for Inactive)
REMARK    1  A    between atoms: C_1  and  C_2
REMARK    2  A    between atoms: C_5  and  C_6
REMARK    3  A    between atoms: C_11  and  C_13
REMARK    4  A    between atoms: C_20  and  C_21
REMARK                            x       y       z     vdW  Elec       q    Type
REMARK                         _______ _______ _______ _____ _____    ______ ____
ROOT
ATOM      1  C   UNL     1       1.159   8.328  20.601  0.00  0.00    +0.000 A 
ATOM      2  C   UNL     1       1.267   7.056  21.115  0.00  0.00    +0.000 A 
ATOM      3  O   UNL     1       2.046   6.329  20.277  0.00  0.00    +0.000 OA
ATOM      4  C   UNL     1       2.387   7.205  19.290  0.00  0.00    +0.000 A 
ATOM      5  N   UNL     1       3.172   6.783  18.254  0.00  0.00    +0.000 N 
ATOM      6  C   UNL     1       3.466   5.456  18.057  0.00  0.00    +0.000 C 
ATOM      7  O   UNL     1       3.013   4.513  18.699  0.00  0.00    +0.000 OA
ATOM      8  N   UNL     1       1.929   8.426  19.459  0.00  0.00    +0.000 NA
ATOM      9  H   UNL     1       3.501   7.520  17.651  0.00  0.00    +0.000 HD
ENDROOT
BRANCH   1  14
ATOM     10  C   UNL     1      -2.090  12.420  23.080  0.00  0.00    +0.000 C 
ATOM     11  C   UNL     1      -1.243  11.366  22.433  0.00  0.00    +0.000 A 
ATOM     12  C   UNL     1      -0.655  10.354  23.190  0.00  0.00    +0.000 A 
ATOM     13  C   UNL     1       0.134   9.385  22.569  0.00  0.00    +0.000 A 
ATOM     14  C   UNL     1       0.349   9.389  21.177  0.00  0.00    +0.000 A 
ATOM     15  C   UNL     1      -0.261  10.395  20.402  0.00  0.00    +0.000 A 
ATOM     16  C   UNL     1      -0.157  10.500  18.904  0.00  0.00    +0.000 C 
ATOM     17  C   UNL     1      -1.039  11.380  21.049  0.00  0.00    +0.000 A 
ENDBRANCH   1  14
BRANCH   6  18
ATOM     18  C   UNL     1       4.439   5.144  16.972  0.00  0.00    +0.000 A 
ATOM     19  C   UNL     1       4.955   6.229  16.246  0.00  0.00    +0.000 A 
ATOM     20  C   UNL     1       5.850   6.019  15.198  0.00  0.00    +0.000 A 
ATOM     21  C   UNL     1       6.243   4.724  14.875  0.00  0.00    +0.000 A 
ATOM     22  C   UNL     1       5.756   3.639  15.605  0.00  0.00    +0.000 A 
ATOM     23  C   UNL     1       4.857   3.844  16.658  0.00  0.00    +0.000 A 
ENDBRANCH   6  18
TORSDOF 2
ENDMDL
MODEL 4
REMARK VINA RESULT:      -7.7      6.957     10.165
REMARK  Name = 
REMARK  4 active torsions:
REMARK  status: ('A' for Active; 'I' for Inactive)
REMARK    1  A    between atoms: C_1  and  C_2
REMARK    2  A    between atoms: C_5  and  C_6
REMARK    3  A    between atoms: C_11  and  C_13
REMARK    4  A    between atoms: C_20  and  C_21
REMARK                            x       y       z     vdW  Elec       q    Type
REMARK                         _______ _______ _______ _____ _____    ______ ____
ROOT
ATOM      1  C   UNL     1       9.149  11.502  18.639  0.00  0.00    +0.000 A 
ATOM      2  C   UNL     1       9.761  10.532  19.400  0.00  0.00    +0.000 A 
ATOM      3  O   UNL     1       9.266   9.327  19.024  0.00  0.00    +0.000 OA
ATOM      4  C   UNL     1       8.376   9.623  18.035  0.00  0.00    +0.000 A 
ATOM      5  N   UNL     1       7.673   8.617  17.434  0.00  0.00    +0.000 N 
ATOM      6  C   UNL     1       7.676   7.334  17.925  0.00  0.00    +0.000 C 
ATOM      7  O   UNL     1       8.208   6.960  18.966  0.00  0.00    +0.000 OA
ATOM      8  N   UNL     1       8.303  10.900  17.727  0.00  0.00    +0.000 NA
ATOM      9  H   UNL     1       7.154   8.898  16.618  0.00  0.00    +0.000 HD
ENDROOT
BRANCH   1  14
ATOM     10  C   UNL     1       9.791  17.205  19.350  0.00  0.00    +0.000 C 
ATOM     11  C   UNL     1       9.633  15.726  19.166  0.00  0.00    +0.000 A 
ATOM     12  C   UNL     1       8.705  15.005  19.915  0.00  0.00    +0.000 A 
ATOM     13  C   UNL     1       8.577  13.627  19.733  0.00  0.00    +0.000 A 
ATOM     14  C   UNL     1       9.361  12.931  18.791  0.00  0.00    +0.000 A 
ATOM     15  C   UNL     1      10.286  13.657  18.014  0.00  0.00    +0.000 A 
ATOM     16  C   UNL     1      11.157  13.057  16.942  0.00  0.00    +0.000 C 
ATOM     17  C   UNL     1      10.416  15.047  18.226  0.00  0.00    +0.000 A 
ENDBRANCH   1  14
BRANCH   6  18
ATOM     18  C   UNL     1       6.978   6.305  17.102  0.00  0.00    +0.000 A 
ATOM     19  C   UNL     1       5.796   6.699  16.456  0.00  0.00    +0.000 A 
ATOM     20  C   UNL     1       5.070   5.789  15.689  0.00  0.00    +0.000 A 
ATOM     21  C   UNL     1       5.527   4.482  15.555  0.00  0.00    +0.000 A 
ATOM     22  C   UNL     1       6.714   4.085  16.173  0.00  0.00    +0.000 A 
ATOM     23  C   UNL     1       7.446   4.994  16.945  0.00  0.00    +0.000 A 
ENDBRANCH   6  18
TORSDOF 2
ENDMDL
MODEL 5
REMARK VINA RESULT:      -7.6      1.146      8.611
REMARK  Name = 
REMARK  4 active torsions:
REMARK  status: ('A' for Active; 'I' for Inactive)
REMARK    1  A    between atoms: C_1  and  C_2
REMARK    2  A    between atoms: C_5  and  C_6
REMARK    3  A    between atoms: C_11  and  C_13
REMARK    4  A    between atoms: C_20  and  C_21
REMARK                            x       y       z     vdW  Elec       q    Type
REMARK                         _______ _______ _______ _____ _____    ______ ____
ROOT
ATOM      1  C   UNL     1       1.113   8.431  20.584  0.00  0.00    +0.000 A 
ATOM      2  C   UNL     1       1.243   7.162  21.099  0.00  0.00    +0.000 A 
ATOM      3  O   UNL     1       2.028   6.445  20.258  0.00  0.00    +0.000 OA
ATOM      4  C   UNL     1       2.350   7.324  19.267  0.00  0.00    +0.000 A 
ATOM      5  N   UNL     1       3.135   6.912  18.227  0.00  0.00    +0.000 N 
ATOM      6  C   UNL     1       3.448   5.589  18.032  0.00  0.00    +0.000 C 
ATOM      7  O   UNL     1       3.013   4.641  18.677  0.00  0.00    +0.000 OA
ATOM      8  N   UNL     1       1.875   8.538  19.437  0.00  0.00    +0.000 NA
ATOM      9  H   UNL     1       3.450   7.653  17.622  0.00  0.00    +0.000 HD
ENDROOT
BRANCH   1  14
ATOM     10  C   UNL     1      -2.189  12.475  23.071  0.00  0.00    +0.000 C 
ATOM     11  C   UNL     1      -1.329  11.434  22.422  0.00  0.00    +0.000 A 
ATOM     12  C   UNL     1      -0.745  10.416  23.174  0.00  0.00    +0.000 A 
ATOM     13  C   UNL     1       0.057   9.458  22.552  0.00  0.00    +0.000 A 
ATOM     14  C   UNL     1       0.290   9.480  21.162  0.00  0.00    +0.000 A 
ATOM     15  C   UNL     1      -0.316  10.494  20.392  0.00  0.00    +0.000 A 
ATOM     16  C   UNL     1      -0.193  10.617  18.897  0.00  0.00    +0.000 C 
ATOM     17  C   UNL     1      -1.107  11.466  21.042  0.00  0.00    +0.000 A 
ENDBRANCH   1  14
BRANCH   6  18
ATOM     18  C   UNL     1       4.420   5.290  16.941  0.00  0.00    +0.000 A 
ATOM     19  C   UNL     1       4.754   3.942  16.736  0.00  0.00    +0.000 A 
ATOM     20  C   UNL     1       5.675   3.582  15.754  0.00  0.00    +0.000 A 
ATOM     21  C   UNL     1       6.262   4.566  14.964  0.00  0.00    +0.000 A 
ATOM     22  C   UNL     1       5.921   5.907  15.143  0.00  0.00    +0.000 A 
ATOM     23  C   UNL     1       4.997   6.274  16.128  0.00  0.00    +0.000 A 
ENDBRANCH   6  18
TORSDOF 2
ENDMDL
MODEL 6
REMARK VINA RESULT:      -7.6      1.417      8.615
REMARK  Name = 
REMARK  4 active torsions:
REMARK  status: ('A' for Active; 'I' for Inactive)
REMARK    1  A    between atoms: C_1  and  C_2
REMARK    2  A    between atoms: C_5  and  C_6
REMARK    3  A    between atoms: C_11  and  C_13
REMARK    4  A    between atoms: C_20  and  C_21
REMARK                            x       y       z     vdW  Elec       q    Type
REMARK                         _______ _______ _______ _____ _____    ______ ____
ROOT
ATOM      1  C   UNL     1       1.605   7.827  20.257  0.00  0.00    +0.000 A 
ATOM      2  C   UNL     1       1.617   6.503  20.633  0.00  0.00    +0.000 A 
ATOM      3  O   UNL     1       2.420   5.830  19.773  0.00  0.00    +0.000 OA
ATOM      4  C   UNL     1       2.871   6.787  18.914  0.00  0.00    +0.000 A 
ATOM      5  N   UNL     1       3.708   6.437  17.891  0.00  0.00    +0.000 N 
ATOM      6  C   UNL     1       3.954   5.125  17.569  0.00  0.00    +0.000 C 
ATOM      7  O   UNL     1       3.413   4.144  18.071  0.00  0.00    +0.000 OA
ATOM      8  N   UNL     1       2.459   8.005  19.186  0.00  0.00    +0.000 NA
ATOM      9  H   UNL     1       4.113   7.216  17.397  0.00  0.00    +0.000 HD
ENDROOT
BRANCH   1  14
ATOM     10  C   UNL     1      -1.585  11.815  22.972  0.00  0.00    +0.000 C 
ATOM     11  C   UNL     1      -0.754  10.788  22.264  0.00  0.00    +0.000 A 
ATOM     12  C   UNL     1      -0.082   9.795  22.974  0.00  0.00    +0.000 A 
ATOM     13  C   UNL     1       0.691   8.851  22.296  0.00  0.00    +0.000 A 
ATOM     14  C   UNL     1       0.805   8.862  20.892  0.00  0.00    +0.000 A 
ATOM     15  C   UNL     1       0.110   9.849  20.165  0.00  0.00    +0.000 A 
ATOM     16  C   UNL     1       0.104   9.957  18.663  0.00  0.00    +0.000 C 
ATOM     17  C   UNL     1      -0.650  10.808  20.869  0.00  0.00    +0.000 A 
ENDBRANCH   1  14
BRANCH   6  18
ATOM     18  C   UNL     1       4.987   4.880  16.523  0.00  0.00    +0.000 A 
ATOM     19  C   UNL     1       6.326   5.095  16.885  0.00  0.00    +0.000 A 
ATOM     20  C   UNL     1       7.350   4.913  15.957  0.00  0.00    +0.000 A 
ATOM     21  C   UNL     1       7.043   4.506  14.662  0.00  0.00    +0.000 A 
ATOM     22  C   UNL     1       5.717   4.266  14.297  0.00  0.00    +0.000 A 
ATOM     23  C   UNL     1       4.686   4.447  15.225  0.00  0.00    +0.000 A 
ENDBRANCH   6  18
TORSDOF 2
ENDMDL
MODEL 7
REMARK VINA RESULT:      -7.5      6.068      7.898
REMARK  Name = 
REMARK  4 active torsions:
REMARK  status: ('A' for Active; 'I' for Inactive)
REMARK    1  A    between atoms: C_1  and  C_2
REMARK    2  A    between atoms: C_5  and  C_6
REMARK    3  A    between atoms: C_11  and  C_13
REMARK    4  A    between atoms: C_20  and  C_21
REMARK                            x       y       z     vdW  Elec       q    Type
REMARK                         _______ _______ _______ _____ _____    ______ ____
ROOT
ATOM      1  C   UNL     1       6.349   6.418  17.708  0.00  0.00    +0.000 A 
ATOM      2  C   UNL     1       6.059   7.412  16.801  0.00  0.00    +0.000 A 
ATOM      3  O   UNL     1       6.912   8.443  17.021  0.00  0.00    +0.000 OA
ATOM      4  C   UNL     1       7.694   8.018  18.053  0.00  0.00    +0.000 A 
ATOM      5  N   UNL     1       8.670   8.839  18.545  0.00  0.00    +0.000 N 
ATOM      6  C   UNL     1       8.763  10.159  18.177  0.00  0.00    +0.000 C 
ATOM      7  O   UNL     1       7.971  10.768  17.465  0.00  0.00    +0.000 OA
ATOM      8  N   UNL     1       7.437   6.797  18.469  0.00  0.00    +0.000 NA
ATOM      9  H   UNL     1       9.297   8.399  19.199  0.00  0.00    +0.000 HD
ENDROOT
BRANCH   1  14
ATOM     10  C   UNL     1       3.460   1.463  18.451  0.00  0.00    +0.000 C 
ATOM     11  C   UNL     1       4.203   2.750  18.252  0.00  0.00    +0.000 A 
ATOM     12  C   UNL     1       4.582   3.535  19.339  0.00  0.00    +0.000 A 
ATOM     13  C   UNL     1       5.268   4.732  19.133  0.00  0.00    +0.000 A 
ATOM     14  C   UNL     1       5.608   5.175  17.839  0.00  0.00    +0.000 A 
ATOM     15  C   UNL     1       5.248   4.375  16.736  0.00  0.00    +0.000 A 
ATOM     16  C   UNL     1       5.582   4.697  15.304  0.00  0.00    +0.000 C 
ATOM     17  C   UNL     1       4.536   3.177  16.962  0.00  0.00    +0.000 A 
ENDBRANCH   1  14
BRANCH   6  18
ATOM     18  C   UNL     1       9.950  10.908  18.681  0.00  0.00    +0.000 A 
ATOM     19  C   UNL     1      10.002  11.168  20.060  0.00  0.00    +0.000 A 
ATOM     20  C   UNL     1      11.065  11.885  20.606  0.00  0.00    +0.000 A 
ATOM     21  C   UNL     1      12.088  12.339  19.779  0.00  0.00    +0.000 A 
ATOM     22  C   UNL     1      12.059  12.066  18.411  0.00  0.00    +0.000 A 
ATOM     23  C   UNL     1      10.994  11.347  17.857  0.00  0.00    +0.000 A 
ENDBRANCH   6  18
TORSDOF 2
ENDMDL
MODEL 8
REMARK VINA RESULT:      -7.5      1.095      8.603
REMARK  Name = 
REMARK  4 active torsions:
REMARK  status: ('A' for Active; 'I' for Inactive)
REMARK    1  A    between atoms: C_1  and  C_2
REMARK    2  A    between atoms: C_5  and  C_6
REMARK    3  A    between atoms: C_11  and  C_13
REMARK    4  A    between atoms: C_20  and  C_21
REMARK                            x       y       z     vdW  Elec       q    Type
REMARK                         _______ _______ _______ _____ _____    ______ ____
ROOT
ATOM      1  C   UNL     1       0.730   9.579  20.036  0.00  0.00    +0.000 A 
ATOM      2  C   UNL     1       1.092   8.616  20.951  0.00  0.00    +0.000 A 
ATOM      3  O   UNL     1       1.886   7.716  20.322  0.00  0.00    +0.000 OA
ATOM      4  C   UNL     1       1.981   8.184  19.045  0.00  0.00    +0.000 A 
ATOM      5  N   UNL     1       2.712   7.491  18.123  0.00  0.00    +0.000 N 
ATOM      6  C   UNL     1       3.193   6.229  18.375  0.00  0.00    +0.000 C 
ATOM      7  O   UNL     1       2.964   5.555  19.375  0.00  0.00    +0.000 OA
ATOM      8  N   UNL     1       1.354   9.320  18.831  0.00  0.00    +0.000 NA
ATOM      9  H   UNL     1       2.857   7.976  17.252  0.00  0.00    +0.000 HD
ENDROOT
BRANCH   1  14
ATOM     10  C   UNL     1      -2.807  13.964  21.339  0.00  0.00    +0.000 C 
ATOM     11  C   UNL     1      -1.889  12.831  20.994  0.00  0.00    +0.000 A 
ATOM     12  C   UNL     1      -0.841  12.474  21.839  0.00  0.00    +0.000 A 
ATOM     13  C   UNL     1       0.006  11.418  21.496  0.00  0.00    +0.000 A 
ATOM     14  C   UNL     1      -0.176  10.682  20.309  0.00  0.00    +0.000 A 
ATOM     15  C   UNL     1      -1.248  11.023  19.460  0.00  0.00    +0.000 A 
ATOM     16  C   UNL     1      -1.590  10.299  18.185  0.00  0.00    +0.000 C 
ATOM     17  C   UNL     1      -2.082  12.106  19.813  0.00  0.00    +0.000 A 
ENDBRANCH   1  14
BRANCH   6  18
ATOM     18  C   UNL     1       4.087   5.638  17.339  0.00  0.00    +0.000 A 
ATOM     19  C   UNL     1       4.724   6.531  16.461  0.00  0.00    +0.000 A 
ATOM     20  C   UNL     1       5.555   6.056  15.448  0.00  0.00    +0.000 A 
ATOM     21  C   UNL     1       5.764   4.688  15.311  0.00  0.00    +0.000 A 
ATOM     22  C   UNL     1       5.155   3.792  16.192  0.00  0.00    +0.000 A 
ATOM     23  C   UNL     1       4.320   4.263  17.211  0.00  0.00    +0.000 A 
ENDBRANCH   6  18
TORSDOF 2
ENDMDL
MODEL 9
REMARK VINA RESULT:      -7.5      1.419      8.545
REMARK  Name = 
REMARK  4 active torsions:
REMARK  status: ('A' for Active; 'I' for Inactive)
REMARK    1  A    between atoms: C_1  and  C_2
REMARK    2  A    between atoms: C_5  and  C_6
REMARK    3  A    between atoms: C_11  and  C_13
REMARK    4  A    between atoms: C_20  and  C_21
REMARK                            x       y       z     vdW  Elec       q    Type
REMARK                         _______ _______ _______ _____ _____    ______ ____
ROOT
ATOM      1  C   UNL     1       0.904   9.343  19.663  0.00  0.00    +0.000 A 
ATOM      2  C   UNL     1       1.213   8.389  20.605  0.00  0.00    +0.000 A 
ATOM      3  O   UNL     1       2.131   7.549  20.067  0.00  0.00    +0.000 OA
ATOM      4  C   UNL     1       2.347   8.043  18.815  0.00  0.00    +0.000 A 
ATOM      5  N   UNL     1       3.224   7.410  17.980  0.00  0.00    +0.000 N 
ATOM      6  C   UNL     1       3.748   6.176  18.276  0.00  0.00    +0.000 C 
ATOM      7  O   UNL     1       3.444   5.473  19.235  0.00  0.00    +0.000 OA
ATOM      8  N   UNL     1       1.681   9.143  18.539  0.00  0.00    +0.000 NA
ATOM      9  H   UNL     1       3.440   7.918  17.138  0.00  0.00    +0.000 HD
ENDROOT
BRANCH   1  14
ATOM     10  C   UNL     1      -3.019  13.494  20.574  0.00  0.00    +0.000 C 
ATOM     11  C   UNL     1      -2.001  12.421  20.330  0.00  0.00    +0.000 A 
ATOM     12  C   UNL     1      -1.006  12.149  21.267  0.00  0.00    +0.000 A 
ATOM     13  C   UNL     1      -0.064  11.150  21.019  0.00  0.00    +0.000 A 
ATOM     14  C   UNL     1      -0.094  10.386  19.836  0.00  0.00    +0.000 A 
ATOM     15  C   UNL     1      -1.111  10.639  18.893  0.00  0.00    +0.000 A 
ATOM     16  C   UNL     1      -1.293   9.875  17.609  0.00  0.00    +0.000 C 
ATOM     17  C   UNL     1      -2.043  11.668  19.152  0.00  0.00    +0.000 A 
ENDBRANCH   1  14
BRANCH   6  18
ATOM     18  C   UNL     1       4.793   5.657  17.349  0.00  0.00    +0.000 A 
ATOM     19  C   UNL     1       4.514   4.455  16.679  0.00  0.00    +0.000 A 
ATOM     20  C   UNL     1       5.451   3.890  15.815  0.00  0.00    +0.000 A 
ATOM     21  C   UNL     1       6.669   4.529  15.607  0.00  0.00    +0.000 A 
ATOM     22  C   UNL     1       6.949   5.737  16.248  0.00  0.00    +0.000 A 
ATOM     23  C   UNL     1       6.012   6.307  17.117  0.00  0.00    +0.000 A 
ENDBRANCH   6  18
TORSDOF 2
ENDMDL
