MODEL 1
REMARK VINA RESULT:      -8.0      0.000      0.000
REMARK  Name = 
REMARK  6 active torsions:
REMARK  status: ('A' for Active; 'I' for Inactive)
REMARK    1  A    between atoms: C_1  and  O_2
REMARK    2  A    between atoms: O_2  and  C_3
REMARK    3  A    between atoms: C_6  and  N_7
REMARK    4  A    between atoms: C_8  and  C_10
REMARK    5  A    between atoms: C_10  and  C_12
REMARK    6  A    between atoms: C_17  and  C_18
REMARK                            x       y       z     vdW  Elec       q    Type
REMARK                         _______ _______ _______ _____ _____    ______ ____
ROOT
ATOM      1  C   UNL     1       7.649   6.331  18.503  0.00  0.00    +0.000 C 
ATOM      2  O   UNL     1       8.503   5.853  19.265  0.00  0.00    +0.000 OA
ENDROOT
BRANCH   1   3
ATOM      3  C   UNL     1       6.527   5.455  18.035  0.00  0.00    +0.000 A 
ATOM      4  C   UNL     1       6.771   4.637  16.930  0.00  0.00    +0.000 A 
ATOM      5  N   UNL     1       5.565   4.504  16.312  0.00  0.00    +0.000 N 
ATOM      6  C   UNL     1       4.631   4.349  17.300  0.00  0.00    +0.000 A 
ATOM      7  C   UNL     1       3.388   3.681  17.253  0.00  0.00    +0.000 A 
ATOM      8  C   UNL     1       2.595   3.687  18.403  0.00  0.00    +0.000 A 
ATOM      9  C   UNL     1       3.039   4.435  19.504  0.00  0.00    +0.000 A 
ATOM     10  C   UNL     1       4.282   5.146  19.510  0.00  0.00    +0.000 A 
ATOM     11  C   UNL     1       5.161   5.050  18.404  0.00  0.00    +0.000 A 
ATOM     12  H   UNL     1       5.411   4.389  15.318  0.00  0.00    +0.000 HD
BRANCH   8  13
ATOM     13  C   UNL     1       1.363   2.922  18.447  0.00  0.00    +0.000 C 
ATOM     14  N   UNL     1       0.369   2.303  18.505  0.00  0.00    +0.000 NA
ENDBRANCH   8  13
ENDBRANCH   1   3
BRANCH   1  16
ATOM     15  N   UNL     1       8.726   8.500  19.088  0.00  0.00    +0.000 N 
ATOM     16  C   UNL     1       7.941   7.796  18.133  0.00  0.00    +0.000 C 
ATOM     17  O   UNL     1       7.482   8.208  17.072  0.00  0.00    +0.000 OA
ATOM     18  H   UNL     1       9.051   7.939  19.877  0.00  0.00    +0.000 HD
BRANCH  15  22
ATOM     19  C   UNL     1       9.892  12.641  19.005  0.00  0.00    +0.000 A 
ATOM     20  C   UNL     1       9.522  11.960  17.848  0.00  0.00    +0.000 A 
ATOM     21  C   UNL     1       9.142  10.609  17.873  0.00  0.00    +0.000 A 
ATOM     22  C   UNL     1       9.120   9.879  19.057  0.00  0.00    +0.000 A 
ATOM     23  C   UNL     1       9.493  10.571  20.236  0.00  0.00    +0.000 A 
ATOM     24  C   UNL     1       9.877  11.944  20.209  0.00  0.00    +0.000 A 
BRANCH  19  26
ATOM     25  C   UNL     1      10.951  14.250  17.567  0.00  0.00    +0.000 C 
ATOM     26  O   UNL     1      10.292  13.929  18.783  0.00  0.00    +0.000 OA
ENDBRANCH  19  26
ENDBRANCH  15  22
ENDBRANCH   1  16
TORSDOF 5
ENDMDL
MODEL 2
REMARK VINA RESULT:      -7.8      1.483      1.790
REMARK  Name = 
REMARK  6 active torsions:
REMARK  status: ('A' for Active; 'I' for Inactive)
REMARK    1  A    between atoms: C_1  and  O_2
REMARK    2  A    between atoms: O_2  and  C_3
REMARK    3  A    between atoms: C_6  and  N_7
REMARK    4  A    between atoms: C_8  and  C_10
REMARK    5  A    between atoms: C_10  and  C_12
REMARK    6  A    between atoms: C_17  and  C_18
REMARK                            x       y       z     vdW  Elec       q    Type
REMARK                         _______ _______ _______ _____ _____    ______ ____
ROOT
ATOM      1  C   UNL     1       6.991   6.773  17.131  0.00  0.00    +0.000 C 
ATOM      2  O   UNL     1       7.598   6.353  16.134  0.00  0.00    +0.000 OA
ENDROOT
BRANCH   1   3
ATOM      3  C   UNL     1       5.554   6.394  17.316  0.00  0.00    +0.000 A 
ATOM      4  C   UNL     1       4.589   7.323  16.919  0.00  0.00    +0.000 A 
ATOM      5  N   UNL     1       3.529   7.110  17.744  0.00  0.00    +0.000 N 
ATOM      6  C   UNL     1       3.402   5.755  17.883  0.00  0.00    +0.000 A 
ATOM      7  C   UNL     1       2.247   4.992  18.159  0.00  0.00    +0.000 A 
ATOM      8  C   UNL     1       2.387   3.607  18.279  0.00  0.00    +0.000 A 
ATOM      9  C   UNL     1       3.680   3.069  18.210  0.00  0.00    +0.000 A 
ATOM     10  C   UNL     1       4.845   3.870  17.978  0.00  0.00    +0.000 A 
ATOM     11  C   UNL     1       4.714   5.257  17.727  0.00  0.00    +0.000 A 
ATOM     12  H   UNL     1       2.871   7.809  18.067  0.00  0.00    +0.000 HD
BRANCH   8  13
ATOM     13  C   UNL     1       1.218   2.765  18.449  0.00  0.00    +0.000 C 
ATOM     14  N   UNL     1       0.281   2.078  18.608  0.00  0.00    +0.000 NA
ENDBRANCH   8  13
ENDBRANCH   1   3
BRANCH   1  16
ATOM     15  N   UNL     1       7.826   9.062  17.657  0.00  0.00    +0.000 N 
ATOM     16  C   UNL     1       7.864   7.684  18.013  0.00  0.00    +0.000 C 
ATOM     17  O   UNL     1       8.493   7.149  18.921  0.00  0.00    +0.000 OA
ATOM     18  H   UNL     1       7.185   9.293  16.897  0.00  0.00    +0.000 HD
BRANCH  15  22
ATOM     19  C   UNL     1      10.020  12.304  19.442  0.00  0.00    +0.000 A 
ATOM     20  C   UNL     1       9.315  12.463  18.252  0.00  0.00    +0.000 A 
ATOM     21  C   UNL     1       8.600  11.406  17.667  0.00  0.00    +0.000 A 
ATOM     22  C   UNL     1       8.562  10.143  18.247  0.00  0.00    +0.000 A 
ATOM     23  C   UNL     1       9.274   9.979  19.461  0.00  0.00    +0.000 A 
ATOM     24  C   UNL     1       9.999  11.054  20.054  0.00  0.00    +0.000 A 
BRANCH  19  26
ATOM     25  C   UNL     1      12.010  13.646  19.308  0.00  0.00    +0.000 C 
ATOM     26  O   UNL     1      10.708  13.419  19.830  0.00  0.00    +0.000 OA
ENDBRANCH  19  26
ENDBRANCH  15  22
ENDBRANCH   1  16
TORSDOF 5
ENDMDL
MODEL 3
REMARK VINA RESULT:      -7.7      1.499      2.098
REMARK  Name = 
REMARK  6 active torsions:
REMARK  status: ('A' for Active; 'I' for Inactive)
REMARK    1  A    between atoms: C_1  and  O_2
REMARK    2  A    between atoms: O_2  and  C_3
REMARK    3  A    between atoms: C_6  and  N_7
REMARK    4  A    between atoms: C_8  and  C_10
REMARK    5  A    between atoms: C_10  and  C_12
REMARK    6  A    between atoms: C_17  and  C_18
REMARK                            x       y       z     vdW  Elec       q    Type
REMARK                         _______ _______ _______ _____ _____    ______ ____
ROOT
ATOM      1  C   UNL     1       7.000   6.757  17.124  0.00  0.00    +0.000 C 
ATOM      2  O   UNL     1       7.613   6.315  16.141  0.00  0.00    +0.000 OA
ENDROOT
BRANCH   1   3
ATOM      3  C   UNL     1       5.560   6.384  17.307  0.00  0.00    +0.000 A 
ATOM      4  C   UNL     1       4.601   7.315  16.901  0.00  0.00    +0.000 A 
ATOM      5  N   UNL     1       3.537   7.111  17.724  0.00  0.00    +0.000 N 
ATOM      6  C   UNL     1       3.405   5.757  17.871  0.00  0.00    +0.000 A 
ATOM      7  C   UNL     1       2.246   5.000  18.149  0.00  0.00    +0.000 A 
ATOM      8  C   UNL     1       2.380   3.616  18.278  0.00  0.00    +0.000 A 
ATOM      9  C   UNL     1       3.671   3.072  18.216  0.00  0.00    +0.000 A 
ATOM     10  C   UNL     1       4.840   3.867  17.983  0.00  0.00    +0.000 A 
ATOM     11  C   UNL     1       4.715   5.253  17.722  0.00  0.00    +0.000 A 
ATOM     12  H   UNL     1       2.881   7.815  18.041  0.00  0.00    +0.000 HD
BRANCH   8  13
ATOM     13  C   UNL     1       1.207   2.779  18.449  0.00  0.00    +0.000 C 
ATOM     14  N   UNL     1       0.273   2.085  18.595  0.00  0.00    +0.000 NA
ENDBRANCH   8  13
ENDBRANCH   1   3
BRANCH   1  16
ATOM     15  N   UNL     1       7.801   9.061  17.636  0.00  0.00    +0.000 N 
ATOM     16  C   UNL     1       7.868   7.685  17.993  0.00  0.00    +0.000 C 
ATOM     17  O   UNL     1       8.519   7.163  18.893  0.00  0.00    +0.000 OA
ATOM     18  H   UNL     1       7.146   9.279  16.885  0.00  0.00    +0.000 HD
BRANCH  15  22
ATOM     19  C   UNL     1       9.985  12.344  19.356  0.00  0.00    +0.000 A 
ATOM     20  C   UNL     1       9.995  11.076  19.930  0.00  0.00    +0.000 A 
ATOM     21  C   UNL     1       9.282  10.003  19.371  0.00  0.00    +0.000 A 
ATOM     22  C   UNL     1       8.526  10.155  18.214  0.00  0.00    +0.000 A 
ATOM     23  C   UNL     1       8.517  11.444  17.626  0.00  0.00    +0.000 A 
ATOM     24  C   UNL     1       9.243  12.532  18.194  0.00  0.00    +0.000 A 
BRANCH  19  26
ATOM     25  C   UNL     1      10.148  13.751  21.299  0.00  0.00    +0.000 C 
ATOM     26  O   UNL     1      10.681  13.279  20.070  0.00  0.00    +0.000 OA
ENDBRANCH  19  26
ENDBRANCH  15  22
ENDBRANCH   1  16
TORSDOF 5
ENDMDL
MODEL 4
REMARK VINA RESULT:      -7.7      5.409      7.706
REMARK  Name = 
REMARK  6 active torsions:
REMARK  status: ('A' for Active; 'I' for Inactive)
REMARK    1  A    between atoms: C_1  and  O_2
REMARK    2  A    between atoms: O_2  and  C_3
REMARK    3  A    between atoms: C_6  and  N_7
REMARK    4  A    between atoms: C_8  and  C_10
REMARK    5  A    between atoms: C_10  and  C_12
REMARK    6  A    between atoms: C_17  and  C_18
REMARK                            x       y       z     vdW  Elec       q    Type
REMARK                         _______ _______ _______ _____ _____    ______ ____
ROOT
ATOM      1  C   UNL     1       2.619   5.823  20.124  0.00  0.00    +0.000 C 
ATOM      2  O   UNL     1       2.171   5.114  21.038  0.00  0.00    +0.000 OA
ENDROOT
BRANCH   1   3
ATOM      3  C   UNL     1       3.669   5.257  19.218  0.00  0.00    +0.000 A 
ATOM      4  C   UNL     1       4.054   3.931  19.433  0.00  0.00    +0.000 A 
ATOM      5  N   UNL     1       5.355   3.870  19.039  0.00  0.00    +0.000 N 
ATOM      6  C   UNL     1       5.456   4.614  17.895  0.00  0.00    +0.000 A 
ATOM      7  C   UNL     1       6.368   4.483  16.826  0.00  0.00    +0.000 A 
ATOM      8  C   UNL     1       6.281   5.395  15.771  0.00  0.00    +0.000 A 
ATOM      9  C   UNL     1       5.354   6.442  15.883  0.00  0.00    +0.000 A 
ATOM     10  C   UNL     1       4.472   6.584  17.003  0.00  0.00    +0.000 A 
ATOM     11  C   UNL     1       4.455   5.600  18.022  0.00  0.00    +0.000 A 
ATOM     12  H   UNL     1       6.071   3.269  19.428  0.00  0.00    +0.000 HD
BRANCH   8  13
ATOM     13  C   UNL     1       7.116   5.239  14.596  0.00  0.00    +0.000 C 
ATOM     14  N   UNL     1       7.790   5.135  13.642  0.00  0.00    +0.000 NA
ENDBRANCH   8  13
ENDBRANCH   1   3
BRANCH   1  16
ATOM     15  N   UNL     1       1.464   7.648  21.369  0.00  0.00    +0.000 N 
ATOM     16  C   UNL     1       2.008   7.236  20.120  0.00  0.00    +0.000 C 
ATOM     17  O   UNL     1       2.050   7.861  19.064  0.00  0.00    +0.000 OA
ATOM     18  H   UNL     1       1.591   6.984  22.133  0.00  0.00    +0.000 HD
BRANCH  15  22
ATOM     19  C   UNL     1      -0.552  11.338  22.279  0.00  0.00    +0.000 A 
ATOM     20  C   UNL     1      -0.800  10.170  22.996  0.00  0.00    +0.000 A 
ATOM     21  C   UNL     1      -0.144   8.965  22.700  0.00  0.00    +0.000 A 
ATOM     22  C   UNL     1       0.786   8.876  21.670  0.00  0.00    +0.000 A 
ATOM     23  C   UNL     1       1.043  10.063  20.941  0.00  0.00    +0.000 A 
ATOM     24  C   UNL     1       0.377  11.287  21.244  0.00  0.00    +0.000 A 
BRANCH  19  26
ATOM     25  C   UNL     1      -2.595  12.150  23.251  0.00  0.00    +0.000 C 
ATOM     26  O   UNL     1      -1.326  12.397  22.663  0.00  0.00    +0.000 OA
ENDBRANCH  19  26
ENDBRANCH  15  22
ENDBRANCH   1  16
TORSDOF 5
ENDMDL
MODEL 5
REMARK VINA RESULT:      -7.7      0.547      1.153
REMARK  Name = 
REMARK  6 active torsions:
REMARK  status: ('A' for Active; 'I' for Inactive)
REMARK    1  A    between atoms: C_1  and  O_2
REMARK    2  A    between atoms: O_2  and  C_3
REMARK    3  A    between atoms: C_6  and  N_7
REMARK    4  A    between atoms: C_8  and  C_10
REMARK    5  A    between atoms: C_10  and  C_12
REMARK    6  A    between atoms: C_17  and  C_18
REMARK                            x       y       z     vdW  Elec       q    Type
REMARK                         _______ _______ _______ _____ _____    ______ ____
ROOT
ATOM      1  C   UNL     1       7.692   6.465  18.598  0.00  0.00    +0.000 C 
ATOM      2  O   UNL     1       8.535   5.996  19.378  0.00  0.00    +0.000 OA
ENDROOT
BRANCH   1   3
ATOM      3  C   UNL     1       6.578   5.584  18.123  0.00  0.00    +0.000 A 
ATOM      4  C   UNL     1       6.844   4.740  17.042  0.00  0.00    +0.000 A 
ATOM      5  N   UNL     1       5.654   4.598  16.399  0.00  0.00    +0.000 N 
ATOM      6  C   UNL     1       4.695   4.469  17.367  0.00  0.00    +0.000 A 
ATOM      7  C   UNL     1       3.451   3.806  17.305  0.00  0.00    +0.000 A 
ATOM      8  C   UNL     1       2.630   3.840  18.435  0.00  0.00    +0.000 A 
ATOM      9  C   UNL     1       3.051   4.610  19.530  0.00  0.00    +0.000 A 
ATOM     10  C   UNL     1       4.297   5.317  19.550  0.00  0.00    +0.000 A 
ATOM     11  C   UNL     1       5.202   5.192  18.468  0.00  0.00    +0.000 A 
ATOM     12  H   UNL     1       5.522   4.462  15.404  0.00  0.00    +0.000 HD
BRANCH   8  13
ATOM     13  C   UNL     1       1.394   3.082  18.466  0.00  0.00    +0.000 C 
ATOM     14  N   UNL     1       0.407   2.449  18.491  0.00  0.00    +0.000 NA
ENDBRANCH   8  13
ENDBRANCH   1   3
BRANCH   1  16
ATOM     15  N   UNL     1       8.781   8.634  19.164  0.00  0.00    +0.000 N 
ATOM     16  C   UNL     1       7.990   7.926  18.216  0.00  0.00    +0.000 C 
ATOM     17  O   UNL     1       7.529   8.332  17.153  0.00  0.00    +0.000 OA
ATOM     18  H   UNL     1       9.105   8.078  19.955  0.00  0.00    +0.000 HD
BRANCH  15  22
ATOM     19  C   UNL     1       9.998  12.759  19.028  0.00  0.00    +0.000 A 
ATOM     20  C   UNL     1       9.762  12.103  20.233  0.00  0.00    +0.000 A 
ATOM     21  C   UNL     1       9.364  10.757  20.280  0.00  0.00    +0.000 A 
ATOM     22  C   UNL     1       9.181  10.011  19.121  0.00  0.00    +0.000 A 
ATOM     23  C   UNL     1       9.424  10.675  17.893  0.00  0.00    +0.000 A 
ATOM     24  C   UNL     1       9.830  12.041  17.847  0.00  0.00    +0.000 A 
BRANCH  19  26
ATOM     25  C   UNL     1       9.534  14.890  20.038  0.00  0.00    +0.000 C 
ATOM     26  O   UNL     1      10.315  14.080  19.171  0.00  0.00    +0.000 OA
ENDBRANCH  19  26
ENDBRANCH  15  22
ENDBRANCH   1  16
TORSDOF 5
ENDMDL
MODEL 6
REMARK VINA RESULT:      -7.7      5.463      7.547
REMARK  Name = 
REMARK  6 active torsions:
REMARK  status: ('A' for Active; 'I' for Inactive)
REMARK    1  A    between atoms: C_1  and  O_2
REMARK    2  A    between atoms: O_2  and  C_3
REMARK    3  A    between atoms: C_6  and  N_7
REMARK    4  A    between atoms: C_8  and  C_10
REMARK    5  A    between atoms: C_10  and  C_12
REMARK    6  A    between atoms: C_17  and  C_18
REMARK                            x       y       z     vdW  Elec       q    Type
REMARK                         _______ _______ _______ _____ _____    ______ ____
ROOT
ATOM      1  C   UNL     1       2.806   5.765  19.964  0.00  0.00    +0.000 C 
ATOM      2  O   UNL     1       2.455   5.092  20.945  0.00  0.00    +0.000 OA
ENDROOT
BRANCH   1   3
ATOM      3  C   UNL     1       3.840   5.204  19.035  0.00  0.00    +0.000 A 
ATOM      4  C   UNL     1       4.276   3.899  19.274  0.00  0.00    +0.000 A 
ATOM      5  N   UNL     1       5.562   3.868  18.832  0.00  0.00    +0.000 N 
ATOM      6  C   UNL     1       5.596   4.579  17.664  0.00  0.00    +0.000 A 
ATOM      7  C   UNL     1       6.471   4.444  16.564  0.00  0.00    +0.000 A 
ATOM      8  C   UNL     1       6.313   5.319  15.487  0.00  0.00    +0.000 A 
ATOM      9  C   UNL     1       5.357   6.339  15.604  0.00  0.00    +0.000 A 
ATOM     10  C   UNL     1       4.514   6.487  16.752  0.00  0.00    +0.000 A 
ATOM     11  C   UNL     1       4.568   5.535  17.800  0.00  0.00    +0.000 A 
ATOM     12  H   UNL     1       6.313   3.303  19.211  0.00  0.00    +0.000 HD
BRANCH   8  13
ATOM     13  C   UNL     1       7.108   5.153  14.285  0.00  0.00    +0.000 C 
ATOM     14  N   UNL     1       7.738   5.034  13.303  0.00  0.00    +0.000 NA
ENDBRANCH   8  13
ENDBRANCH   1   3
BRANCH   1  16
ATOM     15  N   UNL     1       1.515   7.547  21.134  0.00  0.00    +0.000 N 
ATOM     16  C   UNL     1       2.107   7.135  19.907  0.00  0.00    +0.000 C 
ATOM     17  O   UNL     1       2.127   7.730  18.834  0.00  0.00    +0.000 OA
ATOM     18  H   UNL     1       1.671   6.916  21.920  0.00  0.00    +0.000 HD
BRANCH  15  22
ATOM     19  C   UNL     1      -0.780  11.105  21.898  0.00  0.00    +0.000 A 
ATOM     20  C   UNL     1      -0.343  10.774  20.618  0.00  0.00    +0.000 A 
ATOM     21  C   UNL     1       0.407   9.615  20.367  0.00  0.00    +0.000 A 
ATOM     22  C   UNL     1       0.755   8.737  21.387  0.00  0.00    +0.000 A 
ATOM     23  C   UNL     1       0.309   9.068  22.691  0.00  0.00    +0.000 A 
ATOM     24  C   UNL     1      -0.454  10.246  22.944  0.00  0.00    +0.000 A 
BRANCH  19  26
ATOM     25  C   UNL     1      -1.234  13.142  23.091  0.00  0.00    +0.000 C 
ATOM     26  O   UNL     1      -1.440  12.299  21.966  0.00  0.00    +0.000 OA
ENDBRANCH  19  26
ENDBRANCH  15  22
ENDBRANCH   1  16
TORSDOF 5
ENDMDL
MODEL 7
REMARK VINA RESULT:      -7.6      6.819      9.654
REMARK  Name = 
REMARK  6 active torsions:
REMARK  status: ('A' for Active; 'I' for Inactive)
REMARK    1  A    between atoms: C_1  and  O_2
REMARK    2  A    between atoms: O_2  and  C_3
REMARK    3  A    between atoms: C_6  and  N_7
REMARK    4  A    between atoms: C_8  and  C_10
REMARK    5  A    between atoms: C_10  and  C_12
REMARK    6  A    between atoms: C_17  and  C_18
REMARK                            x       y       z     vdW  Elec       q    Type
REMARK                         _______ _______ _______ _____ _____    ______ ____
ROOT
ATOM      1  C   UNL     1       1.441   9.520  18.275  0.00  0.00    +0.000 C 
ATOM      2  O   UNL     1       2.297   9.957  17.492  0.00  0.00    +0.000 OA
ENDROOT
BRANCH   1   3
ATOM      3  C   UNL     1       0.194  10.320  18.503  0.00  0.00    +0.000 A 
ATOM      4  C   UNL     1       0.282  11.408  19.373  0.00  0.00    +0.000 A 
ATOM      5  N   UNL     1      -0.954  11.520  19.930  0.00  0.00    +0.000 N 
ATOM      6  C   UNL     1      -1.859  11.299  18.927  0.00  0.00    +0.000 A 
ATOM      7  C   UNL     1      -3.180  11.780  18.798  0.00  0.00    +0.000 A 
ATOM      8  C   UNL     1      -3.918  11.384  17.680  0.00  0.00    +0.000 A 
ATOM      9  C   UNL     1      -3.334  10.459  16.802  0.00  0.00    +0.000 A 
ATOM     10  C   UNL     1      -2.009   9.946  16.981  0.00  0.00    +0.000 A 
ATOM     11  C   UNL     1      -1.197  10.430  18.035  0.00  0.00    +0.000 A 
ATOM     12  H   UNL     1      -1.164  11.852  20.863  0.00  0.00    +0.000 HD
BRANCH   8  13
ATOM     13  C   UNL     1      -5.237  11.938  17.439  0.00  0.00    +0.000 C 
ATOM     14  N   UNL     1      -6.303  12.376  17.223  0.00  0.00    +0.000 NA
ENDBRANCH   8  13
ENDBRANCH   1   3
BRANCH   1  16
ATOM     15  N   UNL     1       2.344   7.211  18.013  0.00  0.00    +0.000 N 
ATOM     16  C   UNL     1       1.860   8.190  18.927  0.00  0.00    +0.000 C 
ATOM     17  O   UNL     1       1.744   8.102  20.146  0.00  0.00    +0.000 OA
ATOM     18  H   UNL     1       2.409   7.523  17.044  0.00  0.00    +0.000 HD
BRANCH  15  22
ATOM     19  C   UNL     1       3.573   3.182  18.889  0.00  0.00    +0.000 A 
ATOM     20  C   UNL     1       4.326   4.283  19.290  0.00  0.00    +0.000 A 
ATOM     21  C   UNL     1       3.928   5.598  19.004  0.00  0.00    +0.000 A 
ATOM     22  C   UNL     1       2.759   5.869  18.301  0.00  0.00    +0.000 A 
ATOM     23  C   UNL     1       1.988   4.751  17.896  0.00  0.00    +0.000 A 
ATOM     24  C   UNL     1       2.394   3.416  18.188  0.00  0.00    +0.000 A 
BRANCH  19  26
ATOM     25  C   UNL     1       4.694   1.786  20.493  0.00  0.00    +0.000 C 
ATOM     26  O   UNL     1       4.144   1.980  19.197  0.00  0.00    +0.000 OA
ENDBRANCH  19  26
ENDBRANCH  15  22
ENDBRANCH   1  16
TORSDOF 5
ENDMDL
MODEL 8
REMARK VINA RESULT:      -7.5      1.322      1.875
REMARK  Name = 
REMARK  6 active torsions:
REMARK  status: ('A' for Active; 'I' for Inactive)
REMARK    1  A    between atoms: C_1  and  O_2
REMARK    2  A    between atoms: O_2  and  C_3
REMARK    3  A    between atoms: C_6  and  N_7
REMARK    4  A    between atoms: C_8  and  C_10
REMARK    5  A    between atoms: C_10  and  C_12
REMARK    6  A    between atoms: C_17  and  C_18
REMARK                            x       y       z     vdW  Elec       q    Type
REMARK                         _______ _______ _______ _____ _____    ______ ____
ROOT
ATOM      1  C   UNL     1       6.840   7.148  17.526  0.00  0.00    +0.000 C 
ATOM      2  O   UNL     1       6.568   7.679  16.439  0.00  0.00    +0.000 OA
ENDROOT
BRANCH   1   3
ATOM      3  C   UNL     1       6.047   5.955  17.966  0.00  0.00    +0.000 A 
ATOM      4  C   UNL     1       6.701   5.007  18.756  0.00  0.00    +0.000 A 
ATOM      5  N   UNL     1       6.101   3.822  18.460  0.00  0.00    +0.000 N 
ATOM      6  C   UNL     1       4.759   4.073  18.361  0.00  0.00    +0.000 A 
ATOM      7  C   UNL     1       3.671   3.203  18.589  0.00  0.00    +0.000 A 
ATOM      8  C   UNL     1       2.380   3.698  18.393  0.00  0.00    +0.000 A 
ATOM      9  C   UNL     1       2.246   5.001  17.891  0.00  0.00    +0.000 A 
ATOM     10  C   UNL     1       3.367   5.849  17.618  0.00  0.00    +0.000 A 
ATOM     11  C   UNL     1       4.679   5.414  17.931  0.00  0.00    +0.000 A 
ATOM     12  H   UNL     1       6.541   2.910  18.463  0.00  0.00    +0.000 HD
BRANCH   8  13
ATOM     13  C   UNL     1       1.225   2.884  18.722  0.00  0.00    +0.000 C 
ATOM     14  N   UNL     1       0.280   2.246  18.991  0.00  0.00    +0.000 NA
ENDBRANCH   8  13
ENDBRANCH   1   3
BRANCH   1  16
ATOM     15  N   UNL     1       8.067   9.267  17.987  0.00  0.00    +0.000 N 
ATOM     16  C   UNL     1       7.972   7.876  18.273  0.00  0.00    +0.000 C 
ATOM     17  O   UNL     1       8.667   7.204  19.029  0.00  0.00    +0.000 OA
ATOM     18  H   UNL     1       7.343   9.630  17.367  0.00  0.00    +0.000 HD
BRANCH  15  22
ATOM     19  C   UNL     1      10.994  12.056  19.459  0.00  0.00    +0.000 A 
ATOM     20  C   UNL     1      10.142  11.366  20.317  0.00  0.00    +0.000 A 
ATOM     21  C   UNL     1       9.186  10.456  19.839  0.00  0.00    +0.000 A 
ATOM     22  C   UNL     1       9.038  10.201  18.480  0.00  0.00    +0.000 A 
ATOM     23  C   UNL     1       9.907  10.899  17.605  0.00  0.00    +0.000 A 
ATOM     24  C   UNL     1      10.878  11.821  18.092  0.00  0.00    +0.000 A 
BRANCH  19  26
ATOM     25  C   UNL     1      11.621  14.337  19.886  0.00  0.00    +0.000 C 
ATOM     26  O   UNL     1      11.816  12.945  20.093  0.00  0.00    +0.000 OA
ENDBRANCH  19  26
ENDBRANCH  15  22
ENDBRANCH   1  16
TORSDOF 5
ENDMDL
MODEL 9
REMARK VINA RESULT:      -7.5      2.100      3.524
REMARK  Name = 
REMARK  6 active torsions:
REMARK  status: ('A' for Active; 'I' for Inactive)
REMARK    1  A    between atoms: C_1  and  O_2
REMARK    2  A    between atoms: O_2  and  C_3
REMARK    3  A    between atoms: C_6  and  N_7
REMARK    4  A    between atoms: C_8  and  C_10
REMARK    5  A    between atoms: C_10  and  C_12
REMARK    6  A    between atoms: C_17  and  C_18
REMARK                            x       y       z     vdW  Elec       q    Type
REMARK                         _______ _______ _______ _____ _____    ______ ____
ROOT
ATOM      1  C   UNL     1       7.758   6.661  18.312  0.00  0.00    +0.000 C 
ATOM      2  O   UNL     1       8.311   6.215  19.328  0.00  0.00    +0.000 OA
ENDROOT
BRANCH   1   3
ATOM      3  C   UNL     1       6.981   5.722  17.440  0.00  0.00    +0.000 A 
ATOM      4  C   UNL     1       5.842   5.132  17.990  0.00  0.00    +0.000 A 
ATOM      5  N   UNL     1       5.732   3.925  17.371  0.00  0.00    +0.000 N 
ATOM      6  C   UNL     1       6.036   4.129  16.052  0.00  0.00    +0.000 A 
ATOM      7  C   UNL     1       5.600   3.413  14.917  0.00  0.00    +0.000 A 
ATOM      8  C   UNL     1       6.080   3.808  13.666  0.00  0.00    +0.000 A 
ATOM      9  C   UNL     1       7.038   4.831  13.623  0.00  0.00    +0.000 A 
ATOM     10  C   UNL     1       7.503   5.511  14.795  0.00  0.00    +0.000 A 
ATOM     11  C   UNL     1       6.936   5.215  16.059  0.00  0.00    +0.000 A 
ATOM     12  H   UNL     1       5.352   3.077  17.774  0.00  0.00    +0.000 HD
BRANCH   8  13
ATOM     13  C   UNL     1       5.578   3.181  12.458  0.00  0.00    +0.000 C 
ATOM     14  N   UNL     1       5.177   2.654  11.490  0.00  0.00    +0.000 NA
ENDBRANCH   8  13
ENDBRANCH   1   3
BRANCH   1  16
ATOM     15  N   UNL     1       8.895   8.746  19.069  0.00  0.00    +0.000 N 
ATOM     16  C   UNL     1       8.023   8.164  18.107  0.00  0.00    +0.000 C 
ATOM     17  O   UNL     1       7.472   8.705  17.152  0.00  0.00    +0.000 OA
ATOM     18  H   UNL     1       9.287   8.091  19.747  0.00  0.00    +0.000 HD
BRANCH  15  22
ATOM     19  C   UNL     1      10.103  12.863  19.392  0.00  0.00    +0.000 A 
ATOM     20  C   UNL     1       9.757  12.109  20.511  0.00  0.00    +0.000 A 
ATOM     21  C   UNL     1       9.362  10.767  20.408  0.00  0.00    +0.000 A 
ATOM     22  C   UNL     1       9.292  10.120  19.178  0.00  0.00    +0.000 A 
ATOM     23  C   UNL     1       9.646  10.882  18.038  0.00  0.00    +0.000 A 
ATOM     24  C   UNL     1      10.049  12.246  18.145  0.00  0.00    +0.000 A 
BRANCH  19  26
ATOM     25  C   UNL     1      10.966  14.982  18.657  0.00  0.00    +0.000 C 
ATOM     26  O   UNL     1      10.399  14.167  19.673  0.00  0.00    +0.000 OA
ENDBRANCH  19  26
ENDBRANCH  15  22
ENDBRANCH   1  16
TORSDOF 5
ENDMDL
