MODEL 1
REMARK VINA RESULT:      -7.3      0.000      0.000
REMARK  Name = 
REMARK  5 active torsions:
REMARK  status: ('A' for Active; 'I' for Inactive)
REMARK    1  A    between atoms: C_1  and  S_2
REMARK    2  A    between atoms: S_2  and  N_5
REMARK    3  A    between atoms: N_5  and  C_6
REMARK    4  A    between atoms: C_7  and  O_8
REMARK    5  A    between atoms: C_16  and  C_17
REMARK                            x       y       z     vdW  Elec       q    Type
REMARK                         _______ _______ _______ _____ _____    ______ ____
ROOT
ATOM      1  C   UNL     1       5.813   4.262  17.141  0.00  0.00    +0.000 A 
ATOM      2  C   UNL     1       6.750   4.895  17.975  0.00  0.00    +0.000 A 
ATOM      3  C   UNL     1       6.373   5.465  19.183  0.00  0.00    +0.000 A 
ATOM      4  C   UNL     1       5.038   5.442  19.564  0.00  0.00    +0.000 A 
ATOM      5  C   UNL     1       4.055   4.881  18.727  0.00  0.00    +0.000 A 
ATOM      6  C   UNL     1       4.448   4.230  17.526  0.00  0.00    +0.000 A 
ATOM      7  C   UNL     1       3.397   3.580  16.649  0.00  0.00    +0.000 C 
ATOM      8  C   UNL     1       2.033   3.390  17.311  0.00  0.00    +0.000 C 
ATOM      9  C   UNL     1       1.610   4.651  18.041  0.00  0.00    +0.000 C 
ATOM     10  C   UNL     1       2.595   4.962  19.172  0.00  0.00    +0.000 C 
ENDROOT
BRANCH  10  11
ATOM     11  C   UNL     1       2.239   6.332  19.746  0.00  0.00    +0.000 C 
ATOM     12  N   UNL     1       2.204   7.401  18.990  0.00  0.00    +0.000 NA
ATOM     13  C   UNL     1       1.772   8.486  19.919  0.00  0.00    +0.000 C 
ATOM     14  C   UNL     1       1.217   7.785  21.162  0.00  0.00    +0.000 C 
ATOM     15  N   UNL     1       1.875   6.503  21.064  0.00  0.00    +0.000 N 
ATOM     16  H   UNL     1       1.433   5.713  21.522  0.00  0.00    +0.000 HD
ENDBRANCH  10  11
BRANCH   1  17
ATOM     17  N   UNL     1       6.274   3.668  15.891  0.00  0.00    +0.000 N 
ATOM     18  H   UNL     1       7.148   3.164  16.031  0.00  0.00    +0.000 HD
BRANCH  17  20
ATOM     19  C   UNL     1       6.213   3.700  13.200  0.00  0.00    +0.000 C 
ATOM     20  S   UNL     1       6.520   4.766  14.600  0.00  0.00    +0.000 S 
ATOM     21  O   UNL     1       7.918   5.108  14.589  0.00  0.00    +0.000 OA
ATOM     22  O   UNL     1       5.468   5.756  14.616  0.00  0.00    +0.000 OA
ENDBRANCH  17  20
ENDBRANCH   1  17
BRANCH   2  23
ATOM     23  O   UNL     1       8.070   5.017  17.636  0.00  0.00    +0.000 OA
ATOM     24  H   UNL     1       8.110   5.678  16.927  0.00  0.00    +0.000 HD
ENDBRANCH   2  23
TORSDOF 4
ENDMDL
MODEL 2
REMARK VINA RESULT:      -7.1      0.823      1.005
REMARK  Name = 
REMARK  5 active torsions:
REMARK  status: ('A' for Active; 'I' for Inactive)
REMARK    1  A    between atoms: C_1  and  S_2
REMARK    2  A    between atoms: S_2  and  N_5
REMARK    3  A    between atoms: N_5  and  C_6
REMARK    4  A    between atoms: C_7  and  O_8
REMARK    5  A    between atoms: C_16  and  C_17
REMARK                            x       y       z     vdW  Elec       q    Type
REMARK                         _______ _______ _______ _____ _____    ______ ____
ROOT
ATOM      1  C   UNL     1       5.765   4.134  17.174  0.00  0.00    +0.000 A 
ATOM      2  C   UNL     1       6.720   4.804  17.958  0.00  0.00    +0.000 A 
ATOM      3  C   UNL     1       6.365   5.444  19.138  0.00  0.00    +0.000 A 
ATOM      4  C   UNL     1       5.036   5.454  19.539  0.00  0.00    +0.000 A 
ATOM      5  C   UNL     1       4.036   4.857  18.748  0.00  0.00    +0.000 A 
ATOM      6  C   UNL     1       4.406   4.137  17.580  0.00  0.00    +0.000 A 
ATOM      7  C   UNL     1       3.336   3.450  16.756  0.00  0.00    +0.000 C 
ATOM      8  C   UNL     1       1.981   3.310  17.447  0.00  0.00    +0.000 C 
ATOM      9  C   UNL     1       1.579   4.613  18.111  0.00  0.00    +0.000 C 
ATOM     10  C   UNL     1       2.583   4.977  19.209  0.00  0.00    +0.000 C 
ENDROOT
BRANCH  10  11
ATOM     11  C   UNL     1       2.248   6.380  19.710  0.00  0.00    +0.000 C 
ATOM     12  N   UNL     1       2.205   7.404  18.895  0.00  0.00    +0.000 NA
ATOM     13  C   UNL     1       1.798   8.545  19.769  0.00  0.00    +0.000 C 
ATOM     14  C   UNL     1       1.265   7.920  21.061  0.00  0.00    +0.000 C 
ATOM     15  N   UNL     1       1.912   6.629  21.024  0.00  0.00    +0.000 N 
ATOM     16  H   UNL     1       1.476   5.870  21.535  0.00  0.00    +0.000 HD
ENDBRANCH  10  11
BRANCH   1  17
ATOM     17  N   UNL     1       6.202   3.467  15.953  0.00  0.00    +0.000 N 
ATOM     18  H   UNL     1       7.061   2.943  16.115  0.00  0.00    +0.000 HD
BRANCH  17  20
ATOM     19  C   UNL     1       5.306   5.799  14.954  0.00  0.00    +0.000 C 
ATOM     20  S   UNL     1       6.476   4.494  14.611  0.00  0.00    +0.000 S 
ATOM     21  O   UNL     1       6.019   3.797  13.437  0.00  0.00    +0.000 OA
ATOM     22  O   UNL     1       7.796   5.071  14.719  0.00  0.00    +0.000 OA
ENDBRANCH  17  20
ENDBRANCH   1  17
BRANCH   2  23
ATOM     23  O   UNL     1       8.035   4.894  17.595  0.00  0.00    +0.000 OA
ATOM     24  H   UNL     1       8.179   4.213  16.919  0.00  0.00    +0.000 HD
ENDBRANCH   2  23
TORSDOF 4
ENDMDL
MODEL 3
REMARK VINA RESULT:      -6.7      4.981      7.014
REMARK  Name = 
REMARK  5 active torsions:
REMARK  status: ('A' for Active; 'I' for Inactive)
REMARK    1  A    between atoms: C_1  and  S_2
REMARK    2  A    between atoms: S_2  and  N_5
REMARK    3  A    between atoms: N_5  and  C_6
REMARK    4  A    between atoms: C_7  and  O_8
REMARK    5  A    between atoms: C_16  and  C_17
REMARK                            x       y       z     vdW  Elec       q    Type
REMARK                         _______ _______ _______ _____ _____    ______ ____
ROOT
ATOM      1  C   UNL     1       0.804   9.766  19.442  0.00  0.00    +0.000 A 
ATOM      2  C   UNL     1       0.182   9.756  20.703  0.00  0.00    +0.000 A 
ATOM      3  C   UNL     1       0.429   8.745  21.621  0.00  0.00    +0.000 A 
ATOM      4  C   UNL     1       1.280   7.703  21.281  0.00  0.00    +0.000 A 
ATOM      5  C   UNL     1       1.869   7.636  20.004  0.00  0.00    +0.000 A 
ATOM      6  C   UNL     1       1.678   8.706  19.089  0.00  0.00    +0.000 A 
ATOM      7  C   UNL     1       2.353   8.660  17.734  0.00  0.00    +0.000 C 
ATOM      8  C   UNL     1       3.459   7.615  17.599  0.00  0.00    +0.000 C 
ATOM      9  C   UNL     1       3.011   6.283  18.169  0.00  0.00    +0.000 C 
ATOM     10  C   UNL     1       2.730   6.418  19.669  0.00  0.00    +0.000 C 
ENDROOT
BRANCH  10  11
ATOM     11  C   UNL     1       2.103   5.112  20.152  0.00  0.00    +0.000 C 
ATOM     12  N   UNL     1       1.312   4.408  19.380  0.00  0.00    +0.000 NA
ATOM     13  C   UNL     1       0.972   3.212  20.206  0.00  0.00    +0.000 C 
ATOM     14  C   UNL     1       1.981   3.190  21.357  0.00  0.00    +0.000 C 
ATOM     15  N   UNL     1       2.382   4.577  21.391  0.00  0.00    +0.000 N 
ATOM     16  H   UNL     1       3.290   4.794  21.786  0.00  0.00    +0.000 HD
ENDBRANCH  10  11
BRANCH   1  17
ATOM     17  N   UNL     1       0.516  10.864  18.526  0.00  0.00    +0.000 N 
ATOM     18  H   UNL     1       0.697  10.587  17.562  0.00  0.00    +0.000 HD
BRANCH  17  20
ATOM     19  C   UNL     1       0.158  13.527  18.364  0.00  0.00    +0.000 C 
ATOM     20  S   UNL     1       1.387  12.310  18.814  0.00  0.00    +0.000 S 
ATOM     21  O   UNL     1       2.443  12.376  17.838  0.00  0.00    +0.000 OA
ATOM     22  O   UNL     1       1.617  12.448  20.234  0.00  0.00    +0.000 OA
ENDBRANCH  17  20
ENDBRANCH   1  17
BRANCH   2  23
ATOM     23  O   UNL     1      -0.719  10.711  21.084  0.00  0.00    +0.000 OA
ATOM     24  H   UNL     1      -0.540  11.490  20.535  0.00  0.00    +0.000 HD
ENDBRANCH   2  23
TORSDOF 4
ENDMDL
MODEL 4
REMARK VINA RESULT:      -6.5      3.869      6.063
REMARK  Name = 
REMARK  5 active torsions:
REMARK  status: ('A' for Active; 'I' for Inactive)
REMARK    1  A    between atoms: C_1  and  S_2
REMARK    2  A    between atoms: S_2  and  N_5
REMARK    3  A    between atoms: N_5  and  C_6
REMARK    4  A    between atoms: C_7  and  O_8
REMARK    5  A    between atoms: C_16  and  C_17
REMARK                            x       y       z     vdW  Elec       q    Type
REMARK                         _______ _______ _______ _____ _____    ______ ____
ROOT
ATOM      1  C   UNL     1       2.555   6.827  19.604  0.00  0.00    +0.000 A 
ATOM      2  C   UNL     1       2.967   6.899  18.262  0.00  0.00    +0.000 A 
ATOM      3  C   UNL     1       2.655   7.995  17.469  0.00  0.00    +0.000 A 
ATOM      4  C   UNL     1       1.892   9.028  17.997  0.00  0.00    +0.000 A 
ATOM      5  C   UNL     1       1.399   8.964  19.314  0.00  0.00    +0.000 A 
ATOM      6  C   UNL     1       1.780   7.881  20.151  0.00  0.00    +0.000 A 
ATOM      7  C   UNL     1       1.293   7.838  21.585  0.00  0.00    +0.000 C 
ATOM      8  C   UNL     1       0.705   9.149  22.106  0.00  0.00    +0.000 C 
ATOM      9  C   UNL     1      -0.251   9.749  21.092  0.00  0.00    +0.000 C 
ATOM     10  C   UNL     1       0.498  10.099  19.803  0.00  0.00    +0.000 C 
ENDROOT
BRANCH  10  11
ATOM     11  C   UNL     1      -0.532  10.515  18.756  0.00  0.00    +0.000 C 
ATOM     12  N   UNL     1      -1.541   9.739  18.445  0.00  0.00    +0.000 NA
ATOM     13  C   UNL     1      -2.311  10.533  17.443  0.00  0.00    +0.000 C 
ATOM     14  C   UNL     1      -1.793  11.970  17.550  0.00  0.00    +0.000 C 
ATOM     15  N   UNL     1      -0.491  11.744  18.133  0.00  0.00    +0.000 N 
ATOM     16  H   UNL     1      -0.072  12.505  18.656  0.00  0.00    +0.000 HD
ENDBRANCH  10  11
BRANCH   1  17
ATOM     17  N   UNL     1       2.928   5.657  20.391  0.00  0.00    +0.000 N 
ATOM     18  H   UNL     1       3.894   5.390  20.206  0.00  0.00    +0.000 HD
BRANCH  17  20
ATOM     19  C   UNL     1       2.384   3.313  21.597  0.00  0.00    +0.000 C 
ATOM     20  S   UNL     1       1.959   4.267  20.148  0.00  0.00    +0.000 S 
ATOM     21  O   UNL     1       2.483   3.574  19.001  0.00  0.00    +0.000 OA
ATOM     22  O   UNL     1       0.567   4.634  20.278  0.00  0.00    +0.000 OA
ENDBRANCH  17  20
ENDBRANCH   1  17
BRANCH   2  23
ATOM     23  O   UNL     1       3.662   5.892  17.653  0.00  0.00    +0.000 OA
ATOM     24  H   UNL     1       3.444   5.940  16.709  0.00  0.00    +0.000 HD
ENDBRANCH   2  23
TORSDOF 4
ENDMDL
MODEL 5
REMARK VINA RESULT:      -6.5      2.174      3.621
REMARK  Name = 
REMARK  5 active torsions:
REMARK  status: ('A' for Active; 'I' for Inactive)
REMARK    1  A    between atoms: C_1  and  S_2
REMARK    2  A    between atoms: S_2  and  N_5
REMARK    3  A    between atoms: N_5  and  C_6
REMARK    4  A    between atoms: C_7  and  O_8
REMARK    5  A    between atoms: C_16  and  C_17
REMARK                            x       y       z     vdW  Elec       q    Type
REMARK                         _______ _______ _______ _____ _____    ______ ____
ROOT
ATOM      1  C   UNL     1       4.581   5.771  16.688  0.00  0.00    +0.000 A 
ATOM      2  C   UNL     1       4.686   4.434  16.268  0.00  0.00    +0.000 A 
ATOM      3  C   UNL     1       3.822   3.458  16.744  0.00  0.00    +0.000 A 
ATOM      4  C   UNL     1       2.854   3.796  17.679  0.00  0.00    +0.000 A 
ATOM      5  C   UNL     1       2.758   5.108  18.180  0.00  0.00    +0.000 A 
ATOM      6  C   UNL     1       3.591   6.125  17.640  0.00  0.00    +0.000 A 
ATOM      7  C   UNL     1       3.453   7.549  18.140  0.00  0.00    +0.000 C 
ATOM      8  C   UNL     1       2.188   7.827  18.950  0.00  0.00    +0.000 C 
ATOM      9  C   UNL     1       1.952   6.732  19.973  0.00  0.00    +0.000 C 
ATOM     10  C   UNL     1       1.722   5.392  19.268  0.00  0.00    +0.000 C 
ENDROOT
BRANCH  10  11
ATOM     11  C   UNL     1       1.683   4.298  20.332  0.00  0.00    +0.000 C 
ATOM     12  N   UNL     1       0.701   3.433  20.386  0.00  0.00    +0.000 NA
ATOM     13  C   UNL     1       1.077   2.531  21.515  0.00  0.00    +0.000 C 
ATOM     14  C   UNL     1       2.557   2.800  21.799  0.00  0.00    +0.000 C 
ATOM     15  N   UNL     1       2.702   4.125  21.245  0.00  0.00    +0.000 N 
ATOM     16  H   UNL     1       3.629   4.413  20.953  0.00  0.00    +0.000 HD
ENDBRANCH  10  11
BRANCH   1  17
ATOM     17  N   UNL     1       5.508   6.755  16.139  0.00  0.00    +0.000 N 
ATOM     18  H   UNL     1       5.561   6.675  15.125  0.00  0.00    +0.000 HD
BRANCH  17  20
ATOM     19  C   UNL     1       6.825   5.882  18.319  0.00  0.00    +0.000 C 
ATOM     20  S   UNL     1       7.109   6.672  16.741  0.00  0.00    +0.000 S 
ATOM     21  O   UNL     1       7.539   8.021  17.001  0.00  0.00    +0.000 OA
ATOM     22  O   UNL     1       7.870   5.745  15.936  0.00  0.00    +0.000 OA
ENDBRANCH  17  20
ENDBRANCH   1  17
BRANCH   2  23
ATOM     23  O   UNL     1       5.656   4.011  15.401  0.00  0.00    +0.000 OA
ATOM     24  H   UNL     1       5.248   3.995  14.521  0.00  0.00    +0.000 HD
ENDBRANCH   2  23
TORSDOF 4
ENDMDL
MODEL 6
REMARK VINA RESULT:      -6.4      5.418      7.062
REMARK  Name = 
REMARK  5 active torsions:
REMARK  status: ('A' for Active; 'I' for Inactive)
REMARK    1  A    between atoms: C_1  and  S_2
REMARK    2  A    between atoms: S_2  and  N_5
REMARK    3  A    between atoms: N_5  and  C_6
REMARK    4  A    between atoms: C_7  and  O_8
REMARK    5  A    between atoms: C_16  and  C_17
REMARK                            x       y       z     vdW  Elec       q    Type
REMARK                         _______ _______ _______ _____ _____    ______ ____
ROOT
ATOM      1  C   UNL     1       0.681   9.840  19.430  0.00  0.00    +0.000 A 
ATOM      2  C   UNL     1       0.062   9.825  20.692  0.00  0.00    +0.000 A 
ATOM      3  C   UNL     1       0.332   8.827  21.618  0.00  0.00    +0.000 A 
ATOM      4  C   UNL     1       1.205   7.801  21.283  0.00  0.00    +0.000 A 
ATOM      5  C   UNL     1       1.793   7.737  20.006  0.00  0.00    +0.000 A 
ATOM      6  C   UNL     1       1.577   8.797  19.083  0.00  0.00    +0.000 A 
ATOM      7  C   UNL     1       2.251   8.755  17.727  0.00  0.00    +0.000 C 
ATOM      8  C   UNL     1       3.379   7.733  17.598  0.00  0.00    +0.000 C 
ATOM      9  C   UNL     1       2.961   6.396  18.179  0.00  0.00    +0.000 C 
ATOM     10  C   UNL     1       2.680   6.536  19.678  0.00  0.00    +0.000 C 
ENDROOT
BRANCH  10  11
ATOM     11  C   UNL     1       2.082   5.221  20.172  0.00  0.00    +0.000 C 
ATOM     12  N   UNL     1       1.297   4.499  19.410  0.00  0.00    +0.000 NA
ATOM     13  C   UNL     1       0.987   3.300  20.244  0.00  0.00    +0.000 C 
ATOM     14  C   UNL     1       2.008   3.302  21.385  0.00  0.00    +0.000 C 
ATOM     15  N   UNL     1       2.383   4.696  21.410  0.00  0.00    +0.000 N 
ATOM     16  H   UNL     1       3.291   4.931  21.796  0.00  0.00    +0.000 HD
ENDBRANCH  10  11
BRANCH   1  17
ATOM     17  N   UNL     1       0.367  10.925  18.507  0.00  0.00    +0.000 N 
ATOM     18  H   UNL     1       0.652  10.685  17.558  0.00  0.00    +0.000 HD
BRANCH  17  20
ATOM     19  C   UNL     1       2.590  12.336  17.950  0.00  0.00    +0.000 C 
ATOM     20  S   UNL     1       1.071  12.439  18.884  0.00  0.00    +0.000 S 
ATOM     21  O   UNL     1       1.417  12.414  20.281  0.00  0.00    +0.000 OA
ATOM     22  O   UNL     1       0.279  13.490  18.288  0.00  0.00    +0.000 OA
ENDBRANCH  17  20
ENDBRANCH   1  17
BRANCH   2  23
ATOM     23  O   UNL     1      -0.859  10.764  21.068  0.00  0.00    +0.000 OA
ATOM     24  H   UNL     1      -0.768  11.501  20.445  0.00  0.00    +0.000 HD
ENDBRANCH   2  23
TORSDOF 4
ENDMDL
MODEL 7
REMARK VINA RESULT:      -6.3      3.739      5.373
REMARK  Name = 
REMARK  5 active torsions:
REMARK  status: ('A' for Active; 'I' for Inactive)
REMARK    1  A    between atoms: C_1  and  S_2
REMARK    2  A    between atoms: S_2  and  N_5
REMARK    3  A    between atoms: N_5  and  C_6
REMARK    4  A    between atoms: C_7  and  O_8
REMARK    5  A    between atoms: C_16  and  C_17
REMARK                            x       y       z     vdW  Elec       q    Type
REMARK                         _______ _______ _______ _____ _____    ______ ____
ROOT
ATOM      1  C   UNL     1       3.270   4.288  17.521  0.00  0.00    +0.000 A 
ATOM      2  C   UNL     1       2.583   5.266  18.261  0.00  0.00    +0.000 A 
ATOM      3  C   UNL     1       3.046   6.572  18.336  0.00  0.00    +0.000 A 
ATOM      4  C   UNL     1       4.228   6.918  17.696  0.00  0.00    +0.000 A 
ATOM      5  C   UNL     1       4.985   5.955  17.003  0.00  0.00    +0.000 A 
ATOM      6  C   UNL     1       4.477   4.635  16.861  0.00  0.00    +0.000 A 
ATOM      7  C   UNL     1       5.266   3.612  16.071  0.00  0.00    +0.000 C 
ATOM      8  C   UNL     1       6.386   4.188  15.206  0.00  0.00    +0.000 C 
ATOM      9  C   UNL     1       7.199   5.202  15.987  0.00  0.00    +0.000 C 
ATOM     10  C   UNL     1       6.318   6.388  16.391  0.00  0.00    +0.000 C 
ENDROOT
BRANCH  10  11
ATOM     11  C   UNL     1       7.126   7.279  17.331  0.00  0.00    +0.000 C 
ATOM     12  N   UNL     1       7.880   6.770  18.274  0.00  0.00    +0.000 NA
ATOM     13  C   UNL     1       8.517   7.962  18.909  0.00  0.00    +0.000 C 
ATOM     14  C   UNL     1       8.300   9.126  17.939  0.00  0.00    +0.000 C 
ATOM     15  N   UNL     1       7.156   8.651  17.198  0.00  0.00    +0.000 N 
ATOM     16  H   UNL     1       7.014   9.021  16.265  0.00  0.00    +0.000 HD
ENDBRANCH  10  11
BRANCH   1  17
ATOM     17  N   UNL     1       2.726   2.936  17.468  0.00  0.00    +0.000 N 
ATOM     18  H   UNL     1       1.715   2.958  17.342  0.00  0.00    +0.000 HD
BRANCH  17  20
ATOM     19  C   UNL     1       4.221   2.989  19.705  0.00  0.00    +0.000 C 
ATOM     20  S   UNL     1       3.048   1.959  18.836  0.00  0.00    +0.000 S 
ATOM     21  O   UNL     1       3.752   0.792  18.374  0.00  0.00    +0.000 OA
ATOM     22  O   UNL     1       1.860   1.887  19.656  0.00  0.00    +0.000 OA
ENDBRANCH  17  20
ENDBRANCH   1  17
BRANCH   2  23
ATOM     23  O   UNL     1       1.449   4.985  18.973  0.00  0.00    +0.000 OA
ATOM     24  H   UNL     1       0.752   5.554  18.610  0.00  0.00    +0.000 HD
ENDBRANCH   2  23
TORSDOF 4
ENDMDL
MODEL 8
REMARK VINA RESULT:      -6.3      3.803      5.962
REMARK  Name = 
REMARK  5 active torsions:
REMARK  status: ('A' for Active; 'I' for Inactive)
REMARK    1  A    between atoms: C_1  and  S_2
REMARK    2  A    between atoms: S_2  and  N_5
REMARK    3  A    between atoms: N_5  and  C_6
REMARK    4  A    between atoms: C_7  and  O_8
REMARK    5  A    between atoms: C_16  and  C_17
REMARK                            x       y       z     vdW  Elec       q    Type
REMARK                         _______ _______ _______ _____ _____    ______ ____
ROOT
ATOM      1  C   UNL     1       2.566   7.046  19.445  0.00  0.00    +0.000 A 
ATOM      2  C   UNL     1       2.971   7.290  18.121  0.00  0.00    +0.000 A 
ATOM      3  C   UNL     1       2.591   8.443  17.450  0.00  0.00    +0.000 A 
ATOM      4  C   UNL     1       1.766   9.364  18.082  0.00  0.00    +0.000 A 
ATOM      5  C   UNL     1       1.279   9.127  19.381  0.00  0.00    +0.000 A 
ATOM      6  C   UNL     1       1.726   7.984  20.098  0.00  0.00    +0.000 A 
ATOM      7  C   UNL     1       1.244   7.756  21.516  0.00  0.00    +0.000 C 
ATOM      8  C   UNL     1       0.575   8.963  22.172  0.00  0.00    +0.000 C 
ATOM      9  C   UNL     1      -0.416   9.609  21.224  0.00  0.00    +0.000 C 
ATOM     10  C   UNL     1       0.309  10.143  19.985  0.00  0.00    +0.000 C 
ENDROOT
BRANCH  10  11
ATOM     11  C   UNL     1      -0.745  10.606  18.983  0.00  0.00    +0.000 C 
ATOM     12  N   UNL     1      -0.799  11.850  18.574  0.00  0.00    +0.000 NA
ATOM     13  C   UNL     1      -1.917  11.857  17.584  0.00  0.00    +0.000 C 
ATOM     14  C   UNL     1      -2.190  10.389  17.243  0.00  0.00    +0.000 C 
ATOM     15  N   UNL     1      -1.647   9.735  18.410  0.00  0.00    +0.000 N 
ATOM     16  H   UNL     1      -1.350   8.771  18.313  0.00  0.00    +0.000 HD
ENDBRANCH  10  11
BRANCH   1  17
ATOM     17  N   UNL     1       3.011   5.823  20.102  0.00  0.00    +0.000 N 
ATOM     18  H   UNL     1       3.972   5.604  19.845  0.00  0.00    +0.000 HD
BRANCH  17  20
ATOM     19  C   UNL     1       3.284   3.146  20.032  0.00  0.00    +0.000 C 
ATOM     20  S   UNL     1       2.067   4.431  19.783  0.00  0.00    +0.000 S 
ATOM     21  O   UNL     1       1.735   4.450  18.382  0.00  0.00    +0.000 OA
ATOM     22  O   UNL     1       1.077   4.282  20.824  0.00  0.00    +0.000 OA
ENDBRANCH  17  20
ENDBRANCH   1  17
BRANCH   2  23
ATOM     23  O   UNL     1       3.728   6.399  17.410  0.00  0.00    +0.000 OA
ATOM     24  H   UNL     1       4.625   6.767  17.378  0.00  0.00    +0.000 HD
ENDBRANCH   2  23
TORSDOF 4
ENDMDL
MODEL 9
REMARK VINA RESULT:      -6.2      4.405      6.974
REMARK  Name = 
REMARK  5 active torsions:
REMARK  status: ('A' for Active; 'I' for Inactive)
REMARK    1  A    between atoms: C_1  and  S_2
REMARK    2  A    between atoms: S_2  and  N_5
REMARK    3  A    between atoms: N_5  and  C_6
REMARK    4  A    between atoms: C_7  and  O_8
REMARK    5  A    between atoms: C_16  and  C_17
REMARK                            x       y       z     vdW  Elec       q    Type
REMARK                         _______ _______ _______ _____ _____    ______ ____
ROOT
ATOM      1  C   UNL     1       1.262   8.334  19.776  0.00  0.00    +0.000 A 
ATOM      2  C   UNL     1       1.686   9.201  18.754  0.00  0.00    +0.000 A 
ATOM      3  C   UNL     1       2.582   8.785  17.780  0.00  0.00    +0.000 A 
ATOM      4  C   UNL     1       3.100   7.498  17.829  0.00  0.00    +0.000 A 
ATOM      5  C   UNL     1       2.758   6.619  18.875  0.00  0.00    +0.000 A 
ATOM      6  C   UNL     1       1.784   7.016  19.831  0.00  0.00    +0.000 A 
ATOM      7  C   UNL     1       1.376   6.052  20.926  0.00  0.00    +0.000 C 
ATOM      8  C   UNL     1       1.808   4.603  20.704  0.00  0.00    +0.000 C 
ATOM      9  C   UNL     1       3.256   4.537  20.259  0.00  0.00    +0.000 C 
ATOM     10  C   UNL     1       3.428   5.246  18.912  0.00  0.00    +0.000 C 
ENDROOT
BRANCH  10  11
ATOM     11  C   UNL     1       4.922   5.320  18.604  0.00  0.00    +0.000 C 
ATOM     12  N   UNL     1       5.797   5.609  19.535  0.00  0.00    +0.000 NA
ATOM     13  C   UNL     1       7.112   5.525  18.832  0.00  0.00    +0.000 C 
ATOM     14  C   UNL     1       6.844   4.787  17.517  0.00  0.00    +0.000 C 
ATOM     15  N   UNL     1       5.430   5.027  17.356  0.00  0.00    +0.000 N 
ATOM     16  H   UNL     1       4.903   4.369  16.793  0.00  0.00    +0.000 HD
ENDBRANCH  10  11
BRANCH   1  17
ATOM     17  N   UNL     1       0.306   8.825  20.763  0.00  0.00    +0.000 N 
ATOM     18  H   UNL     1      -0.447   9.340  20.310  0.00  0.00    +0.000 HD
BRANCH  17  20
ATOM     19  C   UNL     1      -0.379   9.832  23.163  0.00  0.00    +0.000 C 
ATOM     20  S   UNL     1       0.959   9.838  21.979  0.00  0.00    +0.000 S 
ATOM     21  O   UNL     1       1.048  11.165  21.429  0.00  0.00    +0.000 OA
ATOM     22  O   UNL     1       2.078   9.168  22.602  0.00  0.00    +0.000 OA
ENDBRANCH  17  20
ENDBRANCH   1  17
BRANCH   2  23
ATOM     23  O   UNL     1       1.272  10.502  18.678  0.00  0.00    +0.000 OA
ATOM     24  H   UNL     1       1.675  10.870  17.876  0.00  0.00    +0.000 HD
ENDBRANCH   2  23
TORSDOF 4
ENDMDL
