MODEL 1
REMARK VINA RESULT:      -7.7      0.000      0.000
REMARK  Name = 
REMARK  4 active torsions:
REMARK  status: ('A' for Active; 'I' for Inactive)
REMARK    1  A    between atoms: C_1  and  C_2
REMARK    2  A    between atoms: C_7  and  N_8
REMARK    3  A    between atoms: C_9  and  C_11
REMARK    4  A    between atoms: C_17  and  N_18
REMARK                            x       y       z     vdW  Elec       q    Type
REMARK                         _______ _______ _______ _____ _____    ______ ____
ROOT
ATOM      1  C   UNL     1       1.568   9.084  19.827  0.00  0.00    +0.000 C 
ATOM      2  C   UNL     1       1.929   8.936  18.325  0.00  0.00    +0.000 C 
ATOM      3  C   UNL     1       2.060   7.519  17.753  0.00  0.00    +0.000 C 
ATOM      4  N   UNL     1       2.637   6.627  18.744  0.00  0.00    +0.000 N 
ATOM      5  C   UNL     1       3.788   5.879  18.568  0.00  0.00    +0.000 A 
ATOM      6  C   UNL     1       4.250   5.520  17.308  0.00  0.00    +0.000 A 
ATOM      7  C   UNL     1       5.427   4.785  17.176  0.00  0.00    +0.000 A 
ATOM      8  N   UNL     1       6.106   4.415  18.274  0.00  0.00    +0.000 NA
ATOM      9  C   UNL     1       5.592   4.783  19.450  0.00  0.00    +0.000 A 
ATOM     10  N   UNL     1       4.469   5.487  19.657  0.00  0.00    +0.000 NA
ATOM     11  C   UNL     1       1.882   6.531  19.982  0.00  0.00    +0.000 C 
ATOM     12  C   UNL     1       1.914   7.874  20.705  0.00  0.00    +0.000 C 
ENDROOT
BRANCH   7  13
ATOM     13  N   UNL     1       5.917   4.418  15.945  0.00  0.00    +0.000 N 
ATOM     14  C   UNL     1       7.275   4.730  15.522  0.00  0.00    +0.000 C 
ATOM     15  C   UNL     1       7.117   4.979  14.024  0.00  0.00    +0.000 C 
ATOM     16  C   UNL     1       6.017   4.012  13.618  0.00  0.00    +0.000 C 
ATOM     17  C   UNL     1       5.098   3.952  14.838  0.00  0.00    +0.000 C 
ENDBRANCH   7  13
BRANCH   1  19
ATOM     18  N   UNL     1      -0.312  10.507  19.092  0.00  0.00    +0.000 N 
ATOM     19  C   UNL     1       0.121   9.576  20.055  0.00  0.00    +0.000 C 
ATOM     20  O   UNL     1      -0.542   9.134  20.983  0.00  0.00    +0.000 OA
ATOM     21  H   UNL     1       0.332  10.729  18.346  0.00  0.00    +0.000 HD
BRANCH  18  28
ATOM     22  C   UNL     1      -2.076   9.785  16.762  0.00  0.00    +0.000 C 
ATOM     23  C   UNL     1      -2.472  10.711  17.884  0.00  0.00    +0.000 A 
ATOM     24  C   UNL     1      -3.783  11.243  17.821  0.00  0.00    +0.000 A 
ATOM     25  C   UNL     1      -4.256  12.114  18.796  0.00  0.00    +0.000 A 
ATOM     26  C   UNL     1      -3.421  12.482  19.838  0.00  0.00    +0.000 A 
ATOM     27  C   UNL     1      -2.123  11.966  19.916  0.00  0.00    +0.000 A 
ATOM     28  C   UNL     1      -1.624  11.062  18.967  0.00  0.00    +0.000 A 
ENDBRANCH  18  28
ENDBRANCH   1  19
TORSDOF 3
ENDMDL
MODEL 2
REMARK VINA RESULT:      -7.7      0.444      1.309
REMARK  Name = 
REMARK  4 active torsions:
REMARK  status: ('A' for Active; 'I' for Inactive)
REMARK    1  A    between atoms: C_1  and  C_2
REMARK    2  A    between atoms: C_7  and  N_8
REMARK    3  A    between atoms: C_9  and  C_11
REMARK    4  A    between atoms: C_17  and  N_18
REMARK                            x       y       z     vdW  Elec       q    Type
REMARK                         _______ _______ _______ _____ _____    ______ ____
ROOT
ATOM      1  C   UNL     1       1.561   9.061  19.697  0.00  0.00    +0.000 C 
ATOM      2  C   UNL     1       1.948   8.902  18.202  0.00  0.00    +0.000 C 
ATOM      3  C   UNL     1       2.108   7.480  17.647  0.00  0.00    +0.000 C 
ATOM      4  N   UNL     1       2.684   6.608  18.657  0.00  0.00    +0.000 N 
ATOM      5  C   UNL     1       3.849   5.877  18.507  0.00  0.00    +0.000 A 
ATOM      6  C   UNL     1       4.334   5.511  17.258  0.00  0.00    +0.000 A 
ATOM      7  C   UNL     1       5.525   4.793  17.152  0.00  0.00    +0.000 A 
ATOM      8  N   UNL     1       6.193   4.444  18.264  0.00  0.00    +0.000 NA
ATOM      9  C   UNL     1       5.655   4.818  19.428  0.00  0.00    +0.000 A 
ATOM     10  N   UNL     1       4.519   5.507  19.610  0.00  0.00    +0.000 NA
ATOM     11  C   UNL     1       1.912   6.515  19.885  0.00  0.00    +0.000 C 
ATOM     12  C   UNL     1       1.912   7.866  20.593  0.00  0.00    +0.000 C 
ENDROOT
BRANCH   7  13
ATOM     13  N   UNL     1       6.039   4.419  15.933  0.00  0.00    +0.000 N 
ATOM     14  C   UNL     1       7.384   4.782  15.510  0.00  0.00    +0.000 C 
ATOM     15  C   UNL     1       7.225   4.989  14.005  0.00  0.00    +0.000 C 
ATOM     16  C   UNL     1       6.172   3.965  13.616  0.00  0.00    +0.000 C 
ATOM     17  C   UNL     1       5.248   3.891  14.832  0.00  0.00    +0.000 C 
ENDBRANCH   7  13
BRANCH   1  19
ATOM     18  N   UNL     1      -0.433  10.188  18.773  0.00  0.00    +0.000 N 
ATOM     19  C   UNL     1       0.104   9.534  19.898  0.00  0.00    +0.000 C 
ATOM     20  O   UNL     1      -0.482   9.299  20.945  0.00  0.00    +0.000 OA
ATOM     21  H   UNL     1       0.157  10.253  17.955  0.00  0.00    +0.000 HD
BRANCH  18  28
ATOM     22  C   UNL     1      -1.409  12.656  20.191  0.00  0.00    +0.000 C 
ATOM     23  C   UNL     1      -2.242  11.819  19.253  0.00  0.00    +0.000 A 
ATOM     24  C   UNL     1      -3.565  12.267  19.026  0.00  0.00    +0.000 A 
ATOM     25  C   UNL     1      -4.428  11.571  18.187  0.00  0.00    +0.000 A 
ATOM     26  C   UNL     1      -3.989  10.407  17.578  0.00  0.00    +0.000 A 
ATOM     27  C   UNL     1      -2.684   9.951  17.791  0.00  0.00    +0.000 A 
ATOM     28  C   UNL     1      -1.778  10.644  18.608  0.00  0.00    +0.000 A 
ENDBRANCH  18  28
ENDBRANCH   1  19
TORSDOF 3
ENDMDL
MODEL 3
REMARK VINA RESULT:      -7.4      3.161     10.201
REMARK  Name = 
REMARK  4 active torsions:
REMARK  status: ('A' for Active; 'I' for Inactive)
REMARK    1  A    between atoms: C_1  and  C_2
REMARK    2  A    between atoms: C_7  and  N_8
REMARK    3  A    between atoms: C_9  and  C_11
REMARK    4  A    between atoms: C_17  and  N_18
REMARK                            x       y       z     vdW  Elec       q    Type
REMARK                         _______ _______ _______ _____ _____    ______ ____
ROOT
ATOM      1  C   UNL     1       1.917   8.835  19.663  0.00  0.00    +0.000 C 
ATOM      2  C   UNL     1       1.100   8.894  20.981  0.00  0.00    +0.000 C 
ATOM      3  C   UNL     1      -0.343   9.411  20.912  0.00  0.00    +0.000 C 
ATOM      4  N   UNL     1      -0.450  10.474  19.926  0.00  0.00    +0.000 N 
ATOM      5  C   UNL     1      -0.912  11.753  20.182  0.00  0.00    +0.000 A 
ATOM      6  C   UNL     1      -1.758  12.032  21.248  0.00  0.00    +0.000 A 
ATOM      7  C   UNL     1      -2.182  13.340  21.482  0.00  0.00    +0.000 A 
ATOM      8  N   UNL     1      -1.779  14.326  20.663  0.00  0.00    +0.000 NA
ATOM      9  C   UNL     1      -0.980  13.977  19.653  0.00  0.00    +0.000 A 
ATOM     10  N   UNL     1      -0.532  12.746  19.363  0.00  0.00    +0.000 NA
ATOM     11  C   UNL     1      -0.056  10.091  18.581  0.00  0.00    +0.000 C 
ATOM     12  C   UNL     1       1.437   9.781  18.554  0.00  0.00    +0.000 C 
ENDROOT
BRANCH   7  13
ATOM     13  N   UNL     1      -3.013  13.655  22.531  0.00  0.00    +0.000 N 
ATOM     14  C   UNL     1      -3.080  12.849  23.741  0.00  0.00    +0.000 C 
ATOM     15  C   UNL     1      -4.550  12.956  24.143  0.00  0.00    +0.000 C 
ATOM     16  C   UNL     1      -4.931  14.365  23.718  0.00  0.00    +0.000 C 
ATOM     17  C   UNL     1      -4.100  14.618  22.460  0.00  0.00    +0.000 C 
ENDBRANCH   7  13
BRANCH   1  19
ATOM     18  N   UNL     1       2.210   6.437  20.179  0.00  0.00    +0.000 N 
ATOM     19  C   UNL     1       2.130   7.393  19.149  0.00  0.00    +0.000 C 
ATOM     20  O   UNL     1       2.183   7.168  17.948  0.00  0.00    +0.000 OA
ATOM     21  H   UNL     1       2.087   6.771  21.125  0.00  0.00    +0.000 HD
BRANCH  18  28
ATOM     22  C   UNL     1       4.787   5.133  19.333  0.00  0.00    +0.000 C 
ATOM     23  C   UNL     1       3.513   4.391  19.650  0.00  0.00    +0.000 A 
ATOM     24  C   UNL     1       3.573   2.980  19.558  0.00  0.00    +0.000 A 
ATOM     25  C   UNL     1       2.459   2.191  19.818  0.00  0.00    +0.000 A 
ATOM     26  C   UNL     1       1.262   2.801  20.156  0.00  0.00    +0.000 A 
ATOM     27  C   UNL     1       1.184   4.194  20.253  0.00  0.00    +0.000 A 
ATOM     28  C   UNL     1       2.296   5.018  20.026  0.00  0.00    +0.000 A 
ENDBRANCH  18  28
ENDBRANCH   1  19
TORSDOF 3
ENDMDL
MODEL 4
REMARK VINA RESULT:      -7.3      3.611      9.741
REMARK  Name = 
REMARK  4 active torsions:
REMARK  status: ('A' for Active; 'I' for Inactive)
REMARK    1  A    between atoms: C_1  and  C_2
REMARK    2  A    between atoms: C_7  and  N_8
REMARK    3  A    between atoms: C_9  and  C_11
REMARK    4  A    between atoms: C_17  and  N_18
REMARK                            x       y       z     vdW  Elec       q    Type
REMARK                         _______ _______ _______ _____ _____    ______ ____
ROOT
ATOM      1  C   UNL     1       0.962   9.236  18.835  0.00  0.00    +0.000 C 
ATOM      2  C   UNL     1       1.521  10.355  17.916  0.00  0.00    +0.000 C 
ATOM      3  C   UNL     1       1.927  11.684  18.566  0.00  0.00    +0.000 C 
ATOM      4  N   UNL     1       1.026  12.006  19.660  0.00  0.00    +0.000 N 
ATOM      5  C   UNL     1       0.283  13.169  19.763  0.00  0.00    +0.000 A 
ATOM      6  C   UNL     1       0.654  14.341  19.119  0.00  0.00    +0.000 A 
ATOM      7  C   UNL     1      -0.136  15.484  19.232  0.00  0.00    +0.000 A 
ATOM      8  N   UNL     1      -1.252  15.449  19.979  0.00  0.00    +0.000 NA
ATOM      9  C   UNL     1      -1.535  14.292  20.580  0.00  0.00    +0.000 A 
ATOM     10  N   UNL     1      -0.826  13.154  20.520  0.00  0.00    +0.000 NA
ATOM     11  C   UNL     1       0.970  11.003  20.711  0.00  0.00    +0.000 C 
ATOM     12  C   UNL     1       0.357   9.720  20.160  0.00  0.00    +0.000 C 
ENDROOT
BRANCH   7  13
ATOM     13  N   UNL     1       0.197  16.661  18.603  0.00  0.00    +0.000 N 
ATOM     14  C   UNL     1      -0.807  17.592  18.110  0.00  0.00    +0.000 C 
ATOM     15  C   UNL     1      -0.158  18.159  16.849  0.00  0.00    +0.000 C 
ATOM     16  C   UNL     1       1.321  18.194  17.197  0.00  0.00    +0.000 C 
ATOM     17  C   UNL     1       1.525  16.980  18.104  0.00  0.00    +0.000 C 
ENDBRANCH   7  13
BRANCH   1  19
ATOM     18  N   UNL     1       2.499   7.582  17.834  0.00  0.00    +0.000 N 
ATOM     19  C   UNL     1       1.953   8.068  19.037  0.00  0.00    +0.000 C 
ATOM     20  O   UNL     1       2.221   7.675  20.164  0.00  0.00    +0.000 OA
ATOM     21  H   UNL     1       2.225   8.053  16.983  0.00  0.00    +0.000 HD
BRANCH  18  28
ATOM     22  C   UNL     1       1.813   4.653  17.921  0.00  0.00    +0.000 C 
ATOM     23  C   UNL     1       3.201   5.204  17.711  0.00  0.00    +0.000 A 
ATOM     24  C   UNL     1       4.229   4.250  17.520  0.00  0.00    +0.000 A 
ATOM     25  C   UNL     1       5.549   4.639  17.327  0.00  0.00    +0.000 A 
ATOM     26  C   UNL     1       5.865   5.988  17.339  0.00  0.00    +0.000 A 
ATOM     27  C   UNL     1       4.862   6.945  17.526  0.00  0.00    +0.000 A 
ATOM     28  C   UNL     1       3.516   6.587  17.695  0.00  0.00    +0.000 A 
ENDBRANCH  18  28
ENDBRANCH   1  19
TORSDOF 3
ENDMDL
MODEL 5
REMARK VINA RESULT:      -7.2      3.852      4.821
REMARK  Name = 
REMARK  4 active torsions:
REMARK  status: ('A' for Active; 'I' for Inactive)
REMARK    1  A    between atoms: C_1  and  C_2
REMARK    2  A    between atoms: C_7  and  N_8
REMARK    3  A    between atoms: C_9  and  C_11
REMARK    4  A    between atoms: C_17  and  N_18
REMARK                            x       y       z     vdW  Elec       q    Type
REMARK                         _______ _______ _______ _____ _____    ______ ____
ROOT
ATOM      1  C   UNL     1       1.251  12.452  19.408  0.00  0.00    +0.000 C 
ATOM      2  C   UNL     1       2.249  11.833  18.393  0.00  0.00    +0.000 C 
ATOM      3  C   UNL     1       1.914  10.459  17.800  0.00  0.00    +0.000 C 
ATOM      4  N   UNL     1       1.261   9.626  18.796  0.00  0.00    +0.000 N 
ATOM      5  C   UNL     1       1.707   8.384  19.212  0.00  0.00    +0.000 A 
ATOM      6  C   UNL     1       2.523   7.590  18.418  0.00  0.00    +0.000 A 
ATOM      7  C   UNL     1       2.968   6.354  18.886  0.00  0.00    +0.000 A 
ATOM      8  N   UNL     1       2.593   5.930  20.105  0.00  0.00    +0.000 NA
ATOM      9  C   UNL     1       1.795   6.742  20.802  0.00  0.00    +0.000 A 
ATOM     10  N   UNL     1       1.327   7.940  20.420  0.00  0.00    +0.000 NA
ATOM     11  C   UNL     1       0.031  10.182  19.335  0.00  0.00    +0.000 C 
ATOM     12  C   UNL     1       0.347  11.444  20.132  0.00  0.00    +0.000 C 
ENDROOT
BRANCH   7  13
ATOM     13  N   UNL     1       3.783   5.543  18.131  0.00  0.00    +0.000 N 
ATOM     14  C   UNL     1       5.043   6.009  17.572  0.00  0.00    +0.000 C 
ATOM     15  C   UNL     1       5.125   5.262  16.243  0.00  0.00    +0.000 C 
ATOM     16  C   UNL     1       4.465   3.927  16.546  0.00  0.00    +0.000 C 
ATOM     17  C   UNL     1       3.378   4.266  17.567  0.00  0.00    +0.000 C 
ENDBRANCH   7  13
BRANCH   1  19
ATOM     18  N   UNL     1       1.048  14.890  19.072  0.00  0.00    +0.000 N 
ATOM     19  C   UNL     1       0.453  13.638  18.824  0.00  0.00    +0.000 C 
ATOM     20  O   UNL     1      -0.573  13.438  18.188  0.00  0.00    +0.000 OA
ATOM     21  H   UNL     1       1.932  14.889  19.561  0.00  0.00    +0.000 HD
BRANCH  18  28
ATOM     22  C   UNL     1       2.934  16.678  17.555  0.00  0.00    +0.000 C 
ATOM     23  C   UNL     1       1.489  16.999  17.838  0.00  0.00    +0.000 A 
ATOM     24  C   UNL     1       1.008  18.225  17.319  0.00  0.00    +0.000 A 
ATOM     25  C   UNL     1      -0.306  18.631  17.524  0.00  0.00    +0.000 A 
ATOM     26  C   UNL     1      -1.154  17.827  18.268  0.00  0.00    +0.000 A 
ATOM     27  C   UNL     1      -0.696  16.612  18.788  0.00  0.00    +0.000 A 
ATOM     28  C   UNL     1       0.614  16.158  18.574  0.00  0.00    +0.000 A 
ENDBRANCH  18  28
ENDBRANCH   1  19
TORSDOF 3
ENDMDL
MODEL 6
REMARK VINA RESULT:      -7.2      3.012     10.057
REMARK  Name = 
REMARK  4 active torsions:
REMARK  status: ('A' for Active; 'I' for Inactive)
REMARK    1  A    between atoms: C_1  and  C_2
REMARK    2  A    between atoms: C_7  and  N_8
REMARK    3  A    between atoms: C_9  and  C_11
REMARK    4  A    between atoms: C_17  and  N_18
REMARK                            x       y       z     vdW  Elec       q    Type
REMARK                         _______ _______ _______ _____ _____    ______ ____
ROOT
ATOM      1  C   UNL     1       2.222   8.331  19.329  0.00  0.00    +0.000 C 
ATOM      2  C   UNL     1       1.474   8.259  20.687  0.00  0.00    +0.000 C 
ATOM      3  C   UNL     1       0.095   8.923  20.786  0.00  0.00    +0.000 C 
ATOM      4  N   UNL     1       0.063  10.137  19.986  0.00  0.00    +0.000 N 
ATOM      5  C   UNL     1      -0.245  11.397  20.466  0.00  0.00    +0.000 A 
ATOM      6  C   UNL     1      -1.009  11.585  21.611  0.00  0.00    +0.000 A 
ATOM      7  C   UNL     1      -1.277  12.874  22.072  0.00  0.00    +0.000 A 
ATOM      8  N   UNL     1      -0.804  13.933  21.395  0.00  0.00    +0.000 NA
ATOM      9  C   UNL     1      -0.092  13.674  20.296  0.00  0.00    +0.000 A 
ATOM     10  N   UNL     1       0.206  12.467  19.791  0.00  0.00    +0.000 NA
ATOM     11  C   UNL     1       0.354   9.939  18.577  0.00  0.00    +0.000 C 
ATOM     12  C   UNL     1       1.802   9.488  18.412  0.00  0.00    +0.000 C 
ENDROOT
BRANCH   7  13
ATOM     13  N   UNL     1      -2.023  13.097  23.205  0.00  0.00    +0.000 N 
ATOM     14  C   UNL     1      -3.068  12.183  23.643  0.00  0.00    +0.000 C 
ATOM     15  C   UNL     1      -4.108  13.120  24.252  0.00  0.00    +0.000 C 
ATOM     16  C   UNL     1      -3.270  14.231  24.863  0.00  0.00    +0.000 C 
ATOM     17  C   UNL     1      -2.071  14.360  23.923  0.00  0.00    +0.000 C 
ENDBRANCH   7  13
BRANCH   1  19
ATOM     18  N   UNL     1       2.865   5.946  19.322  0.00  0.00    +0.000 N 
ATOM     19  C   UNL     1       2.255   6.977  18.584  0.00  0.00    +0.000 C 
ATOM     20  O   UNL     1       1.750   6.872  17.475  0.00  0.00    +0.000 OA
ATOM     21  H   UNL     1       3.182   6.174  20.254  0.00  0.00    +0.000 HD
BRANCH  18  28
ATOM     22  C   UNL     1       0.952   3.922  20.463  0.00  0.00    +0.000 C 
ATOM     23  C   UNL     1       2.042   3.608  19.470  0.00  0.00    +0.000 A 
ATOM     24  C   UNL     1       2.130   2.261  19.045  0.00  0.00    +0.000 A 
ATOM     25  C   UNL     1       3.101   1.852  18.138  0.00  0.00    +0.000 A 
ATOM     26  C   UNL     1       4.011   2.779  17.657  0.00  0.00    +0.000 A 
ATOM     27  C   UNL     1       3.939   4.114  18.065  0.00  0.00    +0.000 A 
ATOM     28  C   UNL     1       2.954   4.567  18.956  0.00  0.00    +0.000 A 
ENDBRANCH  18  28
ENDBRANCH   1  19
TORSDOF 3
ENDMDL
MODEL 7
REMARK VINA RESULT:      -7.1      2.963     10.174
REMARK  Name = 
REMARK  4 active torsions:
REMARK  status: ('A' for Active; 'I' for Inactive)
REMARK    1  A    between atoms: C_1  and  C_2
REMARK    2  A    between atoms: C_7  and  N_8
REMARK    3  A    between atoms: C_9  and  C_11
REMARK    4  A    between atoms: C_17  and  N_18
REMARK                            x       y       z     vdW  Elec       q    Type
REMARK                         _______ _______ _______ _____ _____    ______ ____
ROOT
ATOM      1  C   UNL     1       2.005   8.815  19.588  0.00  0.00    +0.000 C 
ATOM      2  C   UNL     1       1.096   8.741  20.844  0.00  0.00    +0.000 C 
ATOM      3  C   UNL     1      -0.364   9.190  20.703  0.00  0.00    +0.000 C 
ATOM      4  N   UNL     1      -0.459  10.314  19.787  0.00  0.00    +0.000 N 
ATOM      5  C   UNL     1      -1.006  11.547  20.094  0.00  0.00    +0.000 A 
ATOM      6  C   UNL     1      -1.938  11.708  21.111  0.00  0.00    +0.000 A 
ATOM      7  C   UNL     1      -2.448  12.973  21.401  0.00  0.00    +0.000 A 
ATOM      8  N   UNL     1      -2.042  14.034  20.683  0.00  0.00    +0.000 NA
ATOM      9  C   UNL     1      -1.157  13.798  19.712  0.00  0.00    +0.000 A 
ATOM     10  N   UNL     1      -0.624  12.614  19.374  0.00  0.00    +0.000 NA
ATOM     11  C   UNL     1       0.048  10.048  18.451  0.00  0.00    +0.000 C 
ATOM     12  C   UNL     1       1.554   9.814  18.513  0.00  0.00    +0.000 C 
ENDROOT
BRANCH   7  13
ATOM     13  N   UNL     1      -3.366  13.172  22.405  0.00  0.00    +0.000 N 
ATOM     14  C   UNL     1      -2.982  13.261  23.806  0.00  0.00    +0.000 C 
ATOM     15  C   UNL     1      -4.161  12.609  24.526  0.00  0.00    +0.000 C 
ATOM     16  C   UNL     1      -5.356  12.996  23.670  0.00  0.00    +0.000 C 
ATOM     17  C   UNL     1      -4.805  13.031  22.244  0.00  0.00    +0.000 C 
ENDBRANCH   7  13
BRANCH   1  19
ATOM     18  N   UNL     1       2.935   6.551  19.917  0.00  0.00    +0.000 N 
ATOM     19  C   UNL     1       2.332   7.427  18.995  0.00  0.00    +0.000 C 
ATOM     20  O   UNL     1       2.037   7.166  17.836  0.00  0.00    +0.000 OA
ATOM     21  H   UNL     1       3.060   6.893  20.860  0.00  0.00    +0.000 HD
BRANCH  18  28
ATOM     22  C   UNL     1       0.922   4.392  20.503  0.00  0.00    +0.000 C 
ATOM     23  C   UNL     1       2.307   4.150  19.958  0.00  0.00    +0.000 A 
ATOM     24  C   UNL     1       2.645   2.801  19.690  0.00  0.00    +0.000 A 
ATOM     25  C   UNL     1       3.897   2.455  19.194  0.00  0.00    +0.000 A 
ATOM     26  C   UNL     1       4.836   3.450  18.975  0.00  0.00    +0.000 A 
ATOM     27  C   UNL     1       4.519   4.787  19.234  0.00  0.00    +0.000 A 
ATOM     28  C   UNL     1       3.256   5.174  19.707  0.00  0.00    +0.000 A 
ENDBRANCH  18  28
ENDBRANCH   1  19
TORSDOF 3
ENDMDL
MODEL 8
REMARK VINA RESULT:      -7.1      3.190     10.326
REMARK  Name = 
REMARK  4 active torsions:
REMARK  status: ('A' for Active; 'I' for Inactive)
REMARK    1  A    between atoms: C_1  and  C_2
REMARK    2  A    between atoms: C_7  and  N_8
REMARK    3  A    between atoms: C_9  and  C_11
REMARK    4  A    between atoms: C_17  and  N_18
REMARK                            x       y       z     vdW  Elec       q    Type
REMARK                         _______ _______ _______ _____ _____    ______ ____
ROOT
ATOM      1  C   UNL     1       1.801   8.620  20.422  0.00  0.00    +0.000 C 
ATOM      2  C   UNL     1       1.358   8.913  21.881  0.00  0.00    +0.000 C 
ATOM      3  C   UNL     1      -0.038   9.508  22.104  0.00  0.00    +0.000 C 
ATOM      4  N   UNL     1      -0.370  10.430  21.031  0.00  0.00    +0.000 N 
ATOM      5  C   UNL     1      -0.715  11.759  21.202  0.00  0.00    +0.000 A 
ATOM      6  C   UNL     1      -1.245  12.237  22.393  0.00  0.00    +0.000 A 
ATOM      7  C   UNL     1      -1.558  13.588  22.530  0.00  0.00    +0.000 A 
ATOM      8  N   UNL     1      -1.355  14.425  21.498  0.00  0.00    +0.000 NA
ATOM      9  C   UNL     1      -0.858  13.890  20.381  0.00  0.00    +0.000 A 
ATOM     10  N   UNL     1      -0.534  12.604  20.174  0.00  0.00    +0.000 NA
ATOM     11  C   UNL     1      -0.351   9.842  19.702  0.00  0.00    +0.000 C 
ATOM     12  C   UNL     1       1.074   9.435  19.343  0.00  0.00    +0.000 C 
ENDROOT
BRANCH   7  13
ATOM     13  N   UNL     1      -2.078  14.097  23.697  0.00  0.00    +0.000 N 
ATOM     14  C   UNL     1      -3.506  14.094  23.980  0.00  0.00    +0.000 C 
ATOM     15  C   UNL     1      -3.702  15.389  24.764  0.00  0.00    +0.000 C 
ATOM     16  C   UNL     1      -2.408  15.526  25.551  0.00  0.00    +0.000 C 
ATOM     17  C   UNL     1      -1.341  14.933  24.631  0.00  0.00    +0.000 C 
ENDBRANCH   7  13
BRANCH   1  19
ATOM     18  N   UNL     1       2.317   6.831  18.800  0.00  0.00    +0.000 N 
ATOM     19  C   UNL     1       1.834   7.111  20.092  0.00  0.00    +0.000 C 
ATOM     20  O   UNL     1       1.491   6.289  20.930  0.00  0.00    +0.000 OA
ATOM     21  H   UNL     1       2.620   7.618  18.243  0.00  0.00    +0.000 HD
BRANCH  18  28
ATOM     22  C   UNL     1       4.875   6.261  17.322  0.00  0.00    +0.000 C 
ATOM     23  C   UNL     1       3.780   5.253  17.561  0.00  0.00    +0.000 A 
ATOM     24  C   UNL     1       4.013   3.948  17.064  0.00  0.00    +0.000 A 
ATOM     25  C   UNL     1       3.070   2.938  17.218  0.00  0.00    +0.000 A 
ATOM     26  C   UNL     1       1.872   3.222  17.854  0.00  0.00    +0.000 A 
ATOM     27  C   UNL     1       1.626   4.505  18.352  0.00  0.00    +0.000 A 
ATOM     28  C   UNL     1       2.567   5.539  18.240  0.00  0.00    +0.000 A 
ENDBRANCH  18  28
ENDBRANCH   1  19
TORSDOF 3
ENDMDL
MODEL 9
REMARK VINA RESULT:      -7.1      2.628     10.216
REMARK  Name = 
REMARK  4 active torsions:
REMARK  status: ('A' for Active; 'I' for Inactive)
REMARK    1  A    between atoms: C_1  and  C_2
REMARK    2  A    between atoms: C_7  and  N_8
REMARK    3  A    between atoms: C_9  and  C_11
REMARK    4  A    between atoms: C_17  and  N_18
REMARK                            x       y       z     vdW  Elec       q    Type
REMARK                         _______ _______ _______ _____ _____    ______ ____
ROOT
ATOM      1  C   UNL     1       1.804   8.584  20.331  0.00  0.00    +0.000 C 
ATOM      2  C   UNL     1       0.940   8.743  21.612  0.00  0.00    +0.000 C 
ATOM      3  C   UNL     1      -0.492   9.268  21.453  0.00  0.00    +0.000 C 
ATOM      4  N   UNL     1      -0.550  10.261  20.394  0.00  0.00    +0.000 N 
ATOM      5  C   UNL     1      -1.006  11.559  20.544  0.00  0.00    +0.000 A 
ATOM      6  C   UNL     1      -1.886  11.920  21.556  0.00  0.00    +0.000 A 
ATOM      7  C   UNL     1      -2.302  13.244  21.683  0.00  0.00    +0.000 A 
ATOM      8  N   UNL     1      -1.857  14.168  20.815  0.00  0.00    +0.000 NA
ATOM      9  C   UNL     1      -1.026  13.742  19.861  0.00  0.00    +0.000 A 
ATOM     10  N   UNL     1      -0.583  12.490  19.673  0.00  0.00    +0.000 NA
ATOM     11  C   UNL     1      -0.112   9.783  19.093  0.00  0.00    +0.000 C 
ATOM     12  C   UNL     1       1.377   9.457  19.143  0.00  0.00    +0.000 C 
ENDROOT
BRANCH   7  13
ATOM     13  N   UNL     1      -3.167  13.639  22.677  0.00  0.00    +0.000 N 
ATOM     14  C   UNL     1      -3.561  12.755  23.764  0.00  0.00    +0.000 C 
ATOM     15  C   UNL     1      -5.009  13.163  24.029  0.00  0.00    +0.000 C 
ATOM     16  C   UNL     1      -5.012  14.657  23.749  0.00  0.00    +0.000 C 
ATOM     17  C   UNL     1      -3.996  14.833  22.621  0.00  0.00    +0.000 C 
ENDBRANCH   7  13
BRANCH   1  19
ATOM     18  N   UNL     1       2.495   6.953  18.611  0.00  0.00    +0.000 N 
ATOM     19  C   UNL     1       2.018   7.109  19.926  0.00  0.00    +0.000 C 
ATOM     20  O   UNL     1       1.808   6.212  20.730  0.00  0.00    +0.000 OA
ATOM     21  H   UNL     1       2.680   7.797  18.086  0.00  0.00    +0.000 HD
BRANCH  18  28
ATOM     22  C   UNL     1       5.208   6.683  17.336  0.00  0.00    +0.000 C 
ATOM     23  C   UNL     1       4.176   5.586  17.398  0.00  0.00    +0.000 A 
ATOM     24  C   UNL     1       4.549   4.344  16.829  0.00  0.00    +0.000 A 
ATOM     25  C   UNL     1       3.676   3.262  16.820  0.00  0.00    +0.000 A 
ATOM     26  C   UNL     1       2.410   3.410  17.362  0.00  0.00    +0.000 A 
ATOM     27  C   UNL     1       2.025   4.629  17.929  0.00  0.00    +0.000 A 
ATOM     28  C   UNL     1       2.890   5.731  17.982  0.00  0.00    +0.000 A 
ENDBRANCH  18  28
ENDBRANCH   1  19
TORSDOF 3
ENDMDL
