MODEL 1
REMARK VINA RESULT:      -7.6      0.000      0.000
REMARK  Name = 
REMARK  5 active torsions:
REMARK  status: ('A' for Active; 'I' for Inactive)
REMARK    1  A    between atoms: C_2  and  C_3
REMARK    2  A    between atoms: C_3  and  O_4
REMARK    3  A    between atoms: O_4  and  C_5
REMARK    4  A    between atoms: C_10  and  C_11
REMARK    5  A    between atoms: N_12  and  N_13
REMARK                            x       y       z     vdW  Elec       q    Type
REMARK                         _______ _______ _______ _____ _____    ______ ____
ROOT
ATOM      1  C   UNL     1       2.336   4.981  19.402  0.00  0.00    +0.000 A 
ATOM      2  C   UNL     1       1.399   4.470  20.316  0.00  0.00    +0.000 A 
ATOM      3  C   UNL     1       0.731   3.268  20.081  0.00  0.00    +0.000 A 
ATOM      4  C   UNL     1       0.989   2.551  18.919  0.00  0.00    +0.000 A 
ATOM      5  C   UNL     1       1.926   3.032  18.002  0.00  0.00    +0.000 A 
ATOM      6  C   UNL     1       2.618   4.233  18.242  0.00  0.00    +0.000 A 
ENDROOT
BRANCH   6   7
ATOM      7  C   UNL     1       3.711   4.573  17.303  0.00  0.00    +0.000 C 
ATOM      8  N   UNL     1       4.901   4.056  17.355  0.00  0.00    +0.000 NA
BRANCH   8   9
ATOM      9  N   UNL     1       5.770   4.535  16.404  0.00  0.00    +0.000 N 
ATOM     10  N   UNL     1       5.406   4.957  15.173  0.00  0.00    +0.000 NA
ATOM     11  N   UNL     1       6.522   5.337  14.570  0.00  0.00    +0.000 NA
ATOM     12  N   UNL     1       7.613   5.166  15.383  0.00  0.00    +0.000 NA
ATOM     13  C   UNL     1       7.157   4.673  16.512  0.00  0.00    +0.000 A 
ATOM     14  N   UNL     1       7.867   4.319  17.608  0.00  0.00    +0.000 N 
ATOM     15  H   UNL     1       8.873   4.229  17.491  0.00  0.00    +0.000 HD
ATOM     16  H   UNL     1       7.458   3.660  18.263  0.00  0.00    +0.000 HD
ENDBRANCH   8   9
ENDBRANCH   6   7
BRANCH   1  17
ATOM     17  O   UNL     1       2.895   6.156  19.838  0.00  0.00    +0.000 OA
BRANCH  17  18
ATOM     18  C   UNL     1       2.159   7.366  19.684  0.00  0.00    +0.000 C 
BRANCH  18  20
ATOM     19  C   UNL     1       1.791   9.026  17.848  0.00  0.00    +0.000 C 
ATOM     20  C   UNL     1       2.375   7.903  18.303  0.00  0.00    +0.000 C 
ENDBRANCH  18  20
ENDBRANCH  17  18
ENDBRANCH   1  17
TORSDOF 5
ENDMDL
MODEL 2
REMARK VINA RESULT:      -7.3      0.850      1.288
REMARK  Name = 
REMARK  5 active torsions:
REMARK  status: ('A' for Active; 'I' for Inactive)
REMARK    1  A    between atoms: C_2  and  C_3
REMARK    2  A    between atoms: C_3  and  O_4
REMARK    3  A    between atoms: O_4  and  C_5
REMARK    4  A    between atoms: C_10  and  C_11
REMARK    5  A    between atoms: N_12  and  N_13
REMARK                            x       y       z     vdW  Elec       q    Type
REMARK                         _______ _______ _______ _____ _____    ______ ____
ROOT
ATOM      1  C   UNL     1       2.464   5.000  19.288  0.00  0.00    +0.000 A 
ATOM      2  C   UNL     1       1.438   4.378  20.018  0.00  0.00    +0.000 A 
ATOM      3  C   UNL     1       0.897   3.155  19.618  0.00  0.00    +0.000 A 
ATOM      4  C   UNL     1       1.376   2.530  18.474  0.00  0.00    +0.000 A 
ATOM      5  C   UNL     1       2.405   3.123  17.740  0.00  0.00    +0.000 A 
ATOM      6  C   UNL     1       2.968   4.346  18.148  0.00  0.00    +0.000 A 
ENDROOT
BRANCH   6   7
ATOM      7  C   UNL     1       4.164   4.810  17.408  0.00  0.00    +0.000 C 
ATOM      8  N   UNL     1       4.901   4.042  16.663  0.00  0.00    +0.000 NA
BRANCH   8   9
ATOM      9  N   UNL     1       5.981   4.674  16.092  0.00  0.00    +0.000 N 
ATOM     10  N   UNL     1       6.649   5.707  16.648  0.00  0.00    +0.000 NA
ATOM     11  N   UNL     1       7.610   6.026  15.793  0.00  0.00    +0.000 NA
ATOM     12  N   UNL     1       7.578   5.221  14.684  0.00  0.00    +0.000 NA
ATOM     13  C   UNL     1       6.578   4.388  14.861  0.00  0.00    +0.000 A 
ATOM     14  N   UNL     1       6.146   3.421  14.018  0.00  0.00    +0.000 N 
ATOM     15  H   UNL     1       6.489   3.462  13.062  0.00  0.00    +0.000 HD
ATOM     16  H   UNL     1       5.193   3.083  14.111  0.00  0.00    +0.000 HD
ENDBRANCH   8   9
ENDBRANCH   6   7
BRANCH   1  17
ATOM     17  O   UNL     1       2.868   6.178  19.867  0.00  0.00    +0.000 OA
BRANCH  17  18
ATOM     18  C   UNL     1       2.084   7.349  19.665  0.00  0.00    +0.000 C 
BRANCH  18  20
ATOM     19  C   UNL     1       1.955   9.097  17.880  0.00  0.00    +0.000 C 
ATOM     20  C   UNL     1       2.313   7.863  18.278  0.00  0.00    +0.000 C 
ENDBRANCH  18  20
ENDBRANCH  17  18
ENDBRANCH   1  17
TORSDOF 5
ENDMDL
MODEL 3
REMARK VINA RESULT:      -7.3      2.697      3.327
REMARK  Name = 
REMARK  5 active torsions:
REMARK  status: ('A' for Active; 'I' for Inactive)
REMARK    1  A    between atoms: C_2  and  C_3
REMARK    2  A    between atoms: C_3  and  O_4
REMARK    3  A    between atoms: O_4  and  C_5
REMARK    4  A    between atoms: C_10  and  C_11
REMARK    5  A    between atoms: N_12  and  N_13
REMARK                            x       y       z     vdW  Elec       q    Type
REMARK                         _______ _______ _______ _____ _____    ______ ____
ROOT
ATOM      1  C   UNL     1       4.551   3.623  18.615  0.00  0.00    +0.000 A 
ATOM      2  C   UNL     1       3.722   2.987  19.555  0.00  0.00    +0.000 A 
ATOM      3  C   UNL     1       2.466   2.491  19.201  0.00  0.00    +0.000 A 
ATOM      4  C   UNL     1       2.015   2.625  17.894  0.00  0.00    +0.000 A 
ATOM      5  C   UNL     1       2.826   3.242  16.940  0.00  0.00    +0.000 A 
ATOM      6  C   UNL     1       4.101   3.726  17.285  0.00  0.00    +0.000 A 
ENDROOT
BRANCH   6   7
ATOM      7  C   UNL     1       4.955   4.209  16.175  0.00  0.00    +0.000 C 
ATOM      8  N   UNL     1       6.003   3.578  15.738  0.00  0.00    +0.000 NA
BRANCH   8   9
ATOM      9  N   UNL     1       6.666   4.219  14.718  0.00  0.00    +0.000 N 
ATOM     10  N   UNL     1       7.550   5.225  14.891  0.00  0.00    +0.000 NA
ATOM     11  N   UNL     1       7.961   5.565  13.678  0.00  0.00    +0.000 NA
ATOM     12  N   UNL     1       7.356   4.801  12.714  0.00  0.00    +0.000 NA
ATOM     13  C   UNL     1       6.559   3.972  13.347  0.00  0.00    +0.000 A 
ATOM     14  N   UNL     1       5.736   3.040  12.810  0.00  0.00    +0.000 N 
ATOM     15  H   UNL     1       5.555   3.113  11.812  0.00  0.00    +0.000 HD
ATOM     16  H   UNL     1       4.950   2.708  13.359  0.00  0.00    +0.000 HD
ENDBRANCH   8   9
ENDBRANCH   6   7
BRANCH   1  17
ATOM     17  O   UNL     1       5.749   4.010  19.162  0.00  0.00    +0.000 OA
BRANCH  17  18
ATOM     18  C   UNL     1       6.062   5.398  19.223  0.00  0.00    +0.000 C 
BRANCH  18  20
ATOM     19  C   UNL     1       7.957   6.849  18.474  0.00  0.00    +0.000 C 
ATOM     20  C   UNL     1       7.384   5.636  18.562  0.00  0.00    +0.000 C 
ENDBRANCH  18  20
ENDBRANCH  17  18
ENDBRANCH   1  17
TORSDOF 5
ENDMDL
MODEL 4
REMARK VINA RESULT:      -6.9      1.267      1.910
REMARK  Name = 
REMARK  5 active torsions:
REMARK  status: ('A' for Active; 'I' for Inactive)
REMARK    1  A    between atoms: C_2  and  C_3
REMARK    2  A    between atoms: C_3  and  O_4
REMARK    3  A    between atoms: O_4  and  C_5
REMARK    4  A    between atoms: C_10  and  C_11
REMARK    5  A    between atoms: N_12  and  N_13
REMARK                            x       y       z     vdW  Elec       q    Type
REMARK                         _______ _______ _______ _____ _____    ______ ____
ROOT
ATOM      1  C   UNL     1       2.259   4.549  19.615  0.00  0.00    +0.000 A 
ATOM      2  C   UNL     1       1.198   4.306  20.503  0.00  0.00    +0.000 A 
ATOM      3  C   UNL     1       1.242   3.256  21.422  0.00  0.00    +0.000 A 
ATOM      4  C   UNL     1       2.355   2.426  21.468  0.00  0.00    +0.000 A 
ATOM      5  C   UNL     1       3.427   2.656  20.604  0.00  0.00    +0.000 A 
ATOM      6  C   UNL     1       3.398   3.725  19.689  0.00  0.00    +0.000 A 
ENDROOT
BRANCH   6   7
ATOM      7  C   UNL     1       4.645   3.994  18.937  0.00  0.00    +0.000 C 
ATOM      8  N   UNL     1       4.730   3.977  17.641  0.00  0.00    +0.000 NA
BRANCH   8   9
ATOM      9  N   UNL     1       5.990   4.227  17.152  0.00  0.00    +0.000 N 
ATOM     10  N   UNL     1       7.091   4.393  17.916  0.00  0.00    +0.000 NA
ATOM     11  N   UNL     1       8.092   4.612  17.075  0.00  0.00    +0.000 NA
ATOM     12  N   UNL     1       7.663   4.596  15.773  0.00  0.00    +0.000 NA
ATOM     13  C   UNL     1       6.371   4.360  15.814  0.00  0.00    +0.000 A 
ATOM     14  N   UNL     1       5.511   4.277  14.772  0.00  0.00    +0.000 N 
ATOM     15  H   UNL     1       5.842   4.630  13.877  0.00  0.00    +0.000 HD
ATOM     16  H   UNL     1       4.521   4.424  14.944  0.00  0.00    +0.000 HD
ENDBRANCH   8   9
ENDBRANCH   6   7
BRANCH   1  17
ATOM     17  O   UNL     1       2.025   5.642  18.818  0.00  0.00    +0.000 OA
BRANCH  17  18
ATOM     18  C   UNL     1       2.478   6.921  19.253  0.00  0.00    +0.000 C 
BRANCH  18  20
ATOM     19  C   UNL     1       2.084   8.962  17.861  0.00  0.00    +0.000 C 
ATOM     20  C   UNL     1       2.717   7.791  18.059  0.00  0.00    +0.000 C 
ENDBRANCH  18  20
ENDBRANCH  17  18
ENDBRANCH   1  17
TORSDOF 5
ENDMDL
MODEL 5
REMARK VINA RESULT:      -6.9      1.119      1.590
REMARK  Name = 
REMARK  5 active torsions:
REMARK  status: ('A' for Active; 'I' for Inactive)
REMARK    1  A    between atoms: C_2  and  C_3
REMARK    2  A    between atoms: C_3  and  O_4
REMARK    3  A    between atoms: O_4  and  C_5
REMARK    4  A    between atoms: C_10  and  C_11
REMARK    5  A    between atoms: N_12  and  N_13
REMARK                            x       y       z     vdW  Elec       q    Type
REMARK                         _______ _______ _______ _____ _____    ______ ____
ROOT
ATOM      1  C   UNL     1       2.256   5.066  19.552  0.00  0.00    +0.000 A 
ATOM      2  C   UNL     1       1.248   4.464  20.324  0.00  0.00    +0.000 A 
ATOM      3  C   UNL     1       0.674   3.247  19.953  0.00  0.00    +0.000 A 
ATOM      4  C   UNL     1       1.102   2.607  18.796  0.00  0.00    +0.000 A 
ATOM      5  C   UNL     1       2.111   3.180  18.020  0.00  0.00    +0.000 A 
ATOM      6  C   UNL     1       2.708   4.396  18.399  0.00  0.00    +0.000 A 
ENDROOT
BRANCH   6   7
ATOM      7  C   UNL     1       3.882   4.837  17.612  0.00  0.00    +0.000 C 
ATOM      8  N   UNL     1       5.108   4.507  17.889  0.00  0.00    +0.000 NA
BRANCH   8   9
ATOM      9  N   UNL     1       6.047   5.052  17.045  0.00  0.00    +0.000 N 
ATOM     10  N   UNL     1       6.657   6.241  17.240  0.00  0.00    +0.000 NA
ATOM     11  N   UNL     1       7.482   6.402  16.216  0.00  0.00    +0.000 NA
ATOM     12  N   UNL     1       7.417   5.340  15.351  0.00  0.00    +0.000 NA
ATOM     13  C   UNL     1       6.536   4.507  15.855  0.00  0.00    +0.000 A 
ATOM     14  N   UNL     1       6.121   3.327  15.337  0.00  0.00    +0.000 N 
ATOM     15  H   UNL     1       6.353   3.149  14.363  0.00  0.00    +0.000 HD
ATOM     16  H   UNL     1       5.225   2.953  15.633  0.00  0.00    +0.000 HD
ENDBRANCH   8   9
ENDBRANCH   6   7
BRANCH   1  17
ATOM     17  O   UNL     1       2.699   6.240  20.108  0.00  0.00    +0.000 OA
BRANCH  17  18
ATOM     18  C   UNL     1       1.985   7.443  19.836  0.00  0.00    +0.000 C 
BRANCH  18  20
ATOM     19  C   UNL     1       0.630   9.049  21.194  0.00  0.00    +0.000 C 
ATOM     20  C   UNL     1       1.522   8.044  21.126  0.00  0.00    +0.000 C 
ENDBRANCH  18  20
ENDBRANCH  17  18
ENDBRANCH   1  17
TORSDOF 5
ENDMDL
MODEL 6
REMARK VINA RESULT:      -6.8      0.862      1.442
REMARK  Name = 
REMARK  5 active torsions:
REMARK  status: ('A' for Active; 'I' for Inactive)
REMARK    1  A    between atoms: C_2  and  C_3
REMARK    2  A    between atoms: C_3  and  O_4
REMARK    3  A    between atoms: O_4  and  C_5
REMARK    4  A    between atoms: C_10  and  C_11
REMARK    5  A    between atoms: N_12  and  N_13
REMARK                            x       y       z     vdW  Elec       q    Type
REMARK                         _______ _______ _______ _____ _____    ______ ____
ROOT
ATOM      1  C   UNL     1       2.308   4.703  19.748  0.00  0.00    +0.000 A 
ATOM      2  C   UNL     1       1.160   4.249  20.418  0.00  0.00    +0.000 A 
ATOM      3  C   UNL     1       0.565   3.027  20.101  0.00  0.00    +0.000 A 
ATOM      4  C   UNL     1       1.112   2.233  19.101  0.00  0.00    +0.000 A 
ATOM      5  C   UNL     1       2.260   2.657  18.430  0.00  0.00    +0.000 A 
ATOM      6  C   UNL     1       2.877   3.878  18.758  0.00  0.00    +0.000 A 
ENDROOT
BRANCH   6   7
ATOM      7  C   UNL     1       4.181   4.162  18.116  0.00  0.00    +0.000 C 
ATOM      8  N   UNL     1       4.310   4.675  16.930  0.00  0.00    +0.000 NA
BRANCH   8   9
ATOM      9  N   UNL     1       5.612   4.828  16.517  0.00  0.00    +0.000 N 
ATOM     10  N   UNL     1       6.652   4.091  16.966  0.00  0.00    +0.000 NA
ATOM     11  N   UNL     1       7.723   4.543  16.331  0.00  0.00    +0.000 NA
ATOM     12  N   UNL     1       7.403   5.567  15.477  0.00  0.00    +0.000 NA
ATOM     13  C   UNL     1       6.107   5.747  15.587  0.00  0.00    +0.000 A 
ATOM     14  N   UNL     1       5.341   6.667  14.954  0.00  0.00    +0.000 N 
ATOM     15  H   UNL     1       5.831   7.432  14.497  0.00  0.00    +0.000 HD
ATOM     16  H   UNL     1       4.446   6.920  15.361  0.00  0.00    +0.000 HD
ENDBRANCH   8   9
ENDBRANCH   6   7
BRANCH   1  17
ATOM     17  O   UNL     1       2.744   5.911  20.231  0.00  0.00    +0.000 OA
BRANCH  17  18
ATOM     18  C   UNL     1       2.075   7.099  19.818  0.00  0.00    +0.000 C 
BRANCH  18  20
ATOM     19  C   UNL     1       2.256   8.622  17.841  0.00  0.00    +0.000 C 
ATOM     20  C   UNL     1       2.462   7.420  18.408  0.00  0.00    +0.000 C 
ENDBRANCH  18  20
ENDBRANCH  17  18
ENDBRANCH   1  17
TORSDOF 5
ENDMDL
MODEL 7
REMARK VINA RESULT:      -6.7      3.409      5.932
REMARK  Name = 
REMARK  5 active torsions:
REMARK  status: ('A' for Active; 'I' for Inactive)
REMARK    1  A    between atoms: C_2  and  C_3
REMARK    2  A    between atoms: C_3  and  O_4
REMARK    3  A    between atoms: O_4  and  C_5
REMARK    4  A    between atoms: C_10  and  C_11
REMARK    5  A    between atoms: N_12  and  N_13
REMARK                            x       y       z     vdW  Elec       q    Type
REMARK                         _______ _______ _______ _____ _____    ______ ____
ROOT
ATOM      1  C   UNL     1       6.549   4.491  17.132  0.00  0.00    +0.000 A 
ATOM      2  C   UNL     1       7.438   4.713  16.066  0.00  0.00    +0.000 A 
ATOM      3  C   UNL     1       7.008   4.682  14.739  0.00  0.00    +0.000 A 
ATOM      4  C   UNL     1       5.673   4.426  14.453  0.00  0.00    +0.000 A 
ATOM      5  C   UNL     1       4.769   4.214  15.495  0.00  0.00    +0.000 A 
ATOM      6  C   UNL     1       5.191   4.264  16.836  0.00  0.00    +0.000 A 
ENDROOT
BRANCH   6   7
ATOM      7  C   UNL     1       4.135   4.200  17.872  0.00  0.00    +0.000 C 
ATOM      8  N   UNL     1       4.020   3.233  18.732  0.00  0.00    +0.000 NA
BRANCH   8   9
ATOM      9  N   UNL     1       2.950   3.359  19.587  0.00  0.00    +0.000 N 
ATOM     10  N   UNL     1       2.873   4.255  20.594  0.00  0.00    +0.000 NA
ATOM     11  N   UNL     1       1.698   4.056  21.173  0.00  0.00    +0.000 NA
ATOM     12  N   UNL     1       1.007   3.041  20.564  0.00  0.00    +0.000 NA
ATOM     13  C   UNL     1       1.771   2.608  19.589  0.00  0.00    +0.000 A 
ATOM     14  N   UNL     1       1.519   1.596  18.725  0.00  0.00    +0.000 N 
ATOM     15  H   UNL     1       0.758   0.968  18.968  0.00  0.00    +0.000 HD
ATOM     16  H   UNL     1       2.300   1.152  18.253  0.00  0.00    +0.000 HD
ENDBRANCH   8   9
ENDBRANCH   6   7
BRANCH   1  17
ATOM     17  O   UNL     1       7.170   4.592  18.352  0.00  0.00    +0.000 OA
BRANCH  17  18
ATOM     18  C   UNL     1       7.046   5.805  19.088  0.00  0.00    +0.000 C 
BRANCH  18  20
ATOM     19  C   UNL     1       7.790   7.844  17.845  0.00  0.00    +0.000 C 
ATOM     20  C   UNL     1       8.079   6.779  18.614  0.00  0.00    +0.000 C 
ENDBRANCH  18  20
ENDBRANCH  17  18
ENDBRANCH   1  17
TORSDOF 5
ENDMDL
MODEL 8
REMARK VINA RESULT:      -6.7      1.546      1.716
REMARK  Name = 
REMARK  5 active torsions:
REMARK  status: ('A' for Active; 'I' for Inactive)
REMARK    1  A    between atoms: C_2  and  C_3
REMARK    2  A    between atoms: C_3  and  O_4
REMARK    3  A    between atoms: O_4  and  C_5
REMARK    4  A    between atoms: C_10  and  C_11
REMARK    5  A    between atoms: N_12  and  N_13
REMARK                            x       y       z     vdW  Elec       q    Type
REMARK                         _______ _______ _______ _____ _____    ______ ____
ROOT
ATOM      1  C   UNL     1       1.958   4.842  19.791  0.00  0.00    +0.000 A 
ATOM      2  C   UNL     1       0.967   4.031  20.369  0.00  0.00    +0.000 A 
ATOM      3  C   UNL     1       0.557   2.840  19.767  0.00  0.00    +0.000 A 
ATOM      4  C   UNL     1       1.134   2.438  18.569  0.00  0.00    +0.000 A 
ATOM      5  C   UNL     1       2.131   3.221  17.983  0.00  0.00    +0.000 A 
ATOM      6  C   UNL     1       2.563   4.412  18.594  0.00  0.00    +0.000 A 
ENDROOT
BRANCH   6   7
ATOM      7  C   UNL     1       3.738   5.083  17.992  0.00  0.00    +0.000 C 
ATOM      8  N   UNL     1       4.884   5.216  18.589  0.00  0.00    +0.000 NA
BRANCH   8   9
ATOM      9  N   UNL     1       5.828   5.898  17.859  0.00  0.00    +0.000 N 
ATOM     10  N   UNL     1       5.644   7.123  17.321  0.00  0.00    +0.000 NA
ATOM     11  N   UNL     1       6.777   7.425  16.703  0.00  0.00    +0.000 NA
ATOM     12  N   UNL     1       7.697   6.417  16.825  0.00  0.00    +0.000 NA
ATOM     13  C   UNL     1       7.120   5.474  17.534  0.00  0.00    +0.000 A 
ATOM     14  N   UNL     1       7.633   4.274  17.891  0.00  0.00    +0.000 N 
ATOM     15  H   UNL     1       8.471   3.972  17.401  0.00  0.00    +0.000 HD
ATOM     16  H   UNL     1       6.995   3.524  18.139  0.00  0.00    +0.000 HD
ENDBRANCH   8   9
ENDBRANCH   6   7
BRANCH   1  17
ATOM     17  O   UNL     1       2.230   5.949  20.557  0.00  0.00    +0.000 OA
BRANCH  17  18
ATOM     18  C   UNL     1       1.958   7.240  20.020  0.00  0.00    +0.000 C 
BRANCH  18  20
ATOM     19  C   UNL     1       0.555   9.160  20.795  0.00  0.00    +0.000 C 
ATOM     20  C   UNL     1       1.318   8.088  21.074  0.00  0.00    +0.000 C 
ENDBRANCH  18  20
ENDBRANCH  17  18
ENDBRANCH   1  17
TORSDOF 5
ENDMDL
MODEL 9
REMARK VINA RESULT:      -6.6      1.415      1.939
REMARK  Name = 
REMARK  5 active torsions:
REMARK  status: ('A' for Active; 'I' for Inactive)
REMARK    1  A    between atoms: C_2  and  C_3
REMARK    2  A    between atoms: C_3  and  O_4
REMARK    3  A    between atoms: O_4  and  C_5
REMARK    4  A    between atoms: C_10  and  C_11
REMARK    5  A    between atoms: N_12  and  N_13
REMARK                            x       y       z     vdW  Elec       q    Type
REMARK                         _______ _______ _______ _____ _____    ______ ____
ROOT
ATOM      1  C   UNL     1       2.582   4.633  18.138  0.00  0.00    +0.000 A 
ATOM      2  C   UNL     1       1.741   4.042  19.097  0.00  0.00    +0.000 A 
ATOM      3  C   UNL     1       1.818   2.680  19.394  0.00  0.00    +0.000 A 
ATOM      4  C   UNL     1       2.743   1.882  18.732  0.00  0.00    +0.000 A 
ATOM      5  C   UNL     1       3.597   2.449  17.785  0.00  0.00    +0.000 A 
ATOM      6  C   UNL     1       3.538   3.824  17.495  0.00  0.00    +0.000 A 
ENDROOT
BRANCH   6   7
ATOM      7  C   UNL     1       4.593   4.365  16.608  0.00  0.00    +0.000 C 
ATOM      8  N   UNL     1       5.340   3.634  15.837  0.00  0.00    +0.000 NA
BRANCH   8   9
ATOM      9  N   UNL     1       6.276   4.339  15.118  0.00  0.00    +0.000 N 
ATOM     10  N   UNL     1       7.061   5.313  15.628  0.00  0.00    +0.000 NA
ATOM     11  N   UNL     1       7.816   5.738  14.626  0.00  0.00    +0.000 NA
ATOM     12  N   UNL     1       7.535   5.061  13.467  0.00  0.00    +0.000 NA
ATOM     13  C   UNL     1       6.589   4.200  13.763  0.00  0.00    +0.000 A 
ATOM     14  N   UNL     1       5.972   3.328  12.932  0.00  0.00    +0.000 N 
ATOM     15  H   UNL     1       6.099   3.481  11.934  0.00  0.00    +0.000 HD
ATOM     16  H   UNL     1       5.058   2.970  13.191  0.00  0.00    +0.000 HD
ENDBRANCH   8   9
ENDBRANCH   6   7
BRANCH   1  17
ATOM     17  O   UNL     1       2.360   5.983  18.020  0.00  0.00    +0.000 OA
BRANCH  17  18
ATOM     18  C   UNL     1       2.356   6.785  19.197  0.00  0.00    +0.000 C 
BRANCH  18  20
ATOM     19  C   UNL     1       1.754   8.675  17.672  0.00  0.00    +0.000 C 
ATOM     20  C   UNL     1       2.319   8.230  18.809  0.00  0.00    +0.000 C 
ENDBRANCH  18  20
ENDBRANCH  17  18
ENDBRANCH   1  17
TORSDOF 5
ENDMDL
