MODEL 1
REMARK VINA RESULT:      -7.5      0.000      0.000
REMARK  Name = 
REMARK  9 active torsions:
REMARK  status: ('A' for Active; 'I' for Inactive)
REMARK    1  A    between atoms: C_1  and  O_2
REMARK    2  A    between atoms: O_2  and  C_3
REMARK    3  A    between atoms: C_5  and  O_6
REMARK    4  A    between atoms: O_6  and  C_7
REMARK    5  A    between atoms: C_10  and  C_11
REMARK    6  A    between atoms: C_11  and  C_12
REMARK    7  A    between atoms: C_13  and  C_14
REMARK    8  A    between atoms: C_13  and  C_15
REMARK    9  A    between atoms: C_17  and  C_18
REMARK                            x       y       z     vdW  Elec       q    Type
REMARK                         _______ _______ _______ _____ _____    ______ ____
ROOT
ATOM      1  C   UNL     1       5.228   6.310  16.943  0.00  0.00    +0.000 A 
ATOM      2  C   UNL     1       4.164   6.983  17.541  0.00  0.00    +0.000 A 
ATOM      3  C   UNL     1       3.088   6.332  18.180  0.00  0.00    +0.000 A 
ATOM      4  C   UNL     1       3.086   4.927  18.231  0.00  0.00    +0.000 A 
ATOM      5  C   UNL     1       4.185   4.225  17.627  0.00  0.00    +0.000 A 
ATOM      6  C   UNL     1       5.230   4.909  16.935  0.00  0.00    +0.000 A 
ATOM      7  C   UNL     1       4.219   2.711  17.666  0.00  0.00    +0.000 C 
ATOM      8  C   UNL     1       3.357   2.160  18.779  0.00  0.00    +0.000 C 
ATOM      9  C   UNL     1       3.923   2.339  20.187  0.00  0.00    +0.000 C 
ATOM     10  O   UNL     1       2.065   2.752  18.680  0.00  0.00    +0.000 OA
ATOM     11  C   UNL     1       1.981   4.097  18.850  0.00  0.00    +0.000 C 
ATOM     12  O   UNL     1       1.015   4.530  19.454  0.00  0.00    +0.000 OA
ENDROOT
BRANCH   1  14
ATOM     13  C   UNL     1       7.253   7.538  17.185  0.00  0.00    +0.000 C 
ATOM     14  O   UNL     1       6.272   6.952  16.329  0.00  0.00    +0.000 OA
ENDBRANCH   1  14
BRANCH   3  15
ATOM     15  O   UNL     1       2.241   7.308  18.618  0.00  0.00    +0.000 OA
ATOM     16  C   UNL     1       2.141   8.602  18.072  0.00  0.00    +0.000 C 
ENDBRANCH   3  15
BRANCH   6  17
ATOM     17  C   UNL     1       6.306   4.157  16.151  0.00  0.00    +0.000 C 
BRANCH  17  18
ATOM     18  C   UNL     1       5.874   3.660  14.792  0.00  0.00    +0.000 C 
ATOM     19  C   UNL     1       6.376   4.028  13.592  0.00  0.00    +0.000 C 
ATOM     20  C   UNL     1       7.486   5.023  13.377  0.00  0.00    +0.000 C 
ATOM     21  C   UNL     1       5.866   3.411  12.312  0.00  0.00    +0.000 C 
ENDBRANCH  17  18
ENDBRANCH   6  17
TORSDOF 4
ENDMDL
MODEL 2
REMARK VINA RESULT:      -6.8      0.819      1.108
REMARK  Name = 
REMARK  9 active torsions:
REMARK  status: ('A' for Active; 'I' for Inactive)
REMARK    1  A    between atoms: C_1  and  O_2
REMARK    2  A    between atoms: O_2  and  C_3
REMARK    3  A    between atoms: C_5  and  O_6
REMARK    4  A    between atoms: O_6  and  C_7
REMARK    5  A    between atoms: C_10  and  C_11
REMARK    6  A    between atoms: C_11  and  C_12
REMARK    7  A    between atoms: C_13  and  C_14
REMARK    8  A    between atoms: C_13  and  C_15
REMARK    9  A    between atoms: C_17  and  C_18
REMARK                            x       y       z     vdW  Elec       q    Type
REMARK                         _______ _______ _______ _____ _____    ______ ____
ROOT
ATOM      1  C   UNL     1       5.700   6.408  16.983  0.00  0.00    +0.000 A 
ATOM      2  C   UNL     1       4.530   7.029  17.416  0.00  0.00    +0.000 A 
ATOM      3  C   UNL     1       3.338   6.332  17.708  0.00  0.00    +0.000 A 
ATOM      4  C   UNL     1       3.325   4.933  17.567  0.00  0.00    +0.000 A 
ATOM      5  C   UNL     1       4.531   4.284  17.132  0.00  0.00    +0.000 A 
ATOM      6  C   UNL     1       5.704   5.021  16.787  0.00  0.00    +0.000 A 
ATOM      7  C   UNL     1       4.555   2.777  16.973  0.00  0.00    +0.000 C 
ATOM      8  C   UNL     1       3.466   2.111  17.783  0.00  0.00    +0.000 C 
ATOM      9  C   UNL     1       3.704   2.086  19.292  0.00  0.00    +0.000 C 
ATOM     10  O   UNL     1       2.229   2.750  17.481  0.00  0.00    +0.000 OA
ATOM     11  C   UNL     1       2.109   4.063  17.809  0.00  0.00    +0.000 C 
ATOM     12  O   UNL     1       1.033   4.442  18.236  0.00  0.00    +0.000 OA
ENDROOT
BRANCH   1  14
ATOM     13  C   UNL     1       7.622   7.528  17.830  0.00  0.00    +0.000 C 
ATOM     14  O   UNL     1       6.856   7.094  16.708  0.00  0.00    +0.000 OA
ENDBRANCH   1  14
BRANCH   3  15
ATOM     15  O   UNL     1       2.415   7.267  18.076  0.00  0.00    +0.000 OA
ATOM     16  C   UNL     1       2.469   8.635  17.745  0.00  0.00    +0.000 C 
ENDBRANCH   3  15
BRANCH   6  17
ATOM     17  C   UNL     1       6.927   4.346  16.166  0.00  0.00    +0.000 C 
BRANCH  17  18
ATOM     18  C   UNL     1       7.384   4.935  14.853  0.00  0.00    +0.000 C 
ATOM     19  C   UNL     1       6.954   4.600  13.616  0.00  0.00    +0.000 C 
ATOM     20  C   UNL     1       5.914   3.556  13.305  0.00  0.00    +0.000 C 
ATOM     21  C   UNL     1       7.478   5.309  12.390  0.00  0.00    +0.000 C 
ENDBRANCH  17  18
ENDBRANCH   6  17
TORSDOF 4
ENDMDL
MODEL 3
REMARK VINA RESULT:      -6.7      2.569      6.288
REMARK  Name = 
REMARK  9 active torsions:
REMARK  status: ('A' for Active; 'I' for Inactive)
REMARK    1  A    between atoms: C_1  and  O_2
REMARK    2  A    between atoms: O_2  and  C_3
REMARK    3  A    between atoms: C_5  and  O_6
REMARK    4  A    between atoms: O_6  and  C_7
REMARK    5  A    between atoms: C_10  and  C_11
REMARK    6  A    between atoms: C_11  and  C_12
REMARK    7  A    between atoms: C_13  and  C_14
REMARK    8  A    between atoms: C_13  and  C_15
REMARK    9  A    between atoms: C_17  and  C_18
REMARK                            x       y       z     vdW  Elec       q    Type
REMARK                         _______ _______ _______ _____ _____    ______ ____
ROOT
ATOM      1  C   UNL     1       1.613   7.405  20.306  0.00  0.00    +0.000 A 
ATOM      2  C   UNL     1       1.763   6.106  20.789  0.00  0.00    +0.000 A 
ATOM      3  C   UNL     1       2.520   5.112  20.135  0.00  0.00    +0.000 A 
ATOM      4  C   UNL     1       3.171   5.443  18.933  0.00  0.00    +0.000 A 
ATOM      5  C   UNL     1       3.030   6.783  18.434  0.00  0.00    +0.000 A 
ATOM      6  C   UNL     1       2.210   7.752  19.087  0.00  0.00    +0.000 A 
ATOM      7  C   UNL     1       3.721   7.177  17.144  0.00  0.00    +0.000 C 
ATOM      8  C   UNL     1       4.879   6.259  16.825  0.00  0.00    +0.000 C 
ATOM      9  C   UNL     1       6.118   6.450  17.700  0.00  0.00    +0.000 C 
ATOM     10  O   UNL     1       4.418   4.913  16.899  0.00  0.00    +0.000 OA
ATOM     11  C   UNL     1       3.983   4.469  18.107  0.00  0.00    +0.000 C 
ATOM     12  O   UNL     1       4.250   3.320  18.414  0.00  0.00    +0.000 OA
ENDROOT
BRANCH   1  14
ATOM     13  C   UNL     1       1.472   8.944  22.116  0.00  0.00    +0.000 C 
ATOM     14  O   UNL     1       0.881   8.367  20.953  0.00  0.00    +0.000 OA
ENDBRANCH   1  14
BRANCH   3  15
ATOM     15  O   UNL     1       2.415   3.978  20.888  0.00  0.00    +0.000 OA
ATOM     16  C   UNL     1       1.402   3.009  20.759  0.00  0.00    +0.000 C 
ENDBRANCH   3  15
BRANCH   6  17
ATOM     17  C   UNL     1       1.928   9.120  18.466  0.00  0.00    +0.000 C 
BRANCH  17  18
ATOM     18  C   UNL     1       0.590   9.246  17.778  0.00  0.00    +0.000 C 
ATOM     19  C   UNL     1      -0.428  10.066  18.120  0.00  0.00    +0.000 C 
ATOM     20  C   UNL     1      -0.422  11.034  19.274  0.00  0.00    +0.000 C 
ATOM     21  C   UNL     1      -1.700  10.109  17.308  0.00  0.00    +0.000 C 
ENDBRANCH  17  18
ENDBRANCH   6  17
TORSDOF 4
ENDMDL
MODEL 4
REMARK VINA RESULT:      -6.6      2.339      4.774
REMARK  Name = 
REMARK  9 active torsions:
REMARK  status: ('A' for Active; 'I' for Inactive)
REMARK    1  A    between atoms: C_1  and  O_2
REMARK    2  A    between atoms: O_2  and  C_3
REMARK    3  A    between atoms: C_5  and  O_6
REMARK    4  A    between atoms: O_6  and  C_7
REMARK    5  A    between atoms: C_10  and  C_11
REMARK    6  A    between atoms: C_11  and  C_12
REMARK    7  A    between atoms: C_13  and  C_14
REMARK    8  A    between atoms: C_13  and  C_15
REMARK    9  A    between atoms: C_17  and  C_18
REMARK                            x       y       z     vdW  Elec       q    Type
REMARK                         _______ _______ _______ _____ _____    ______ ____
ROOT
ATOM      1  C   UNL     1       3.519   4.134  18.191  0.00  0.00    +0.000 A 
ATOM      2  C   UNL     1       2.741   3.968  19.336  0.00  0.00    +0.000 A 
ATOM      3  C   UNL     1       2.127   5.035  20.025  0.00  0.00    +0.000 A 
ATOM      4  C   UNL     1       2.294   6.341  19.530  0.00  0.00    +0.000 A 
ATOM      5  C   UNL     1       3.086   6.520  18.344  0.00  0.00    +0.000 A 
ATOM      6  C   UNL     1       3.743   5.427  17.702  0.00  0.00    +0.000 A 
ATOM      7  C   UNL     1       3.284   7.911  17.779  0.00  0.00    +0.000 C 
ATOM      8  C   UNL     1       2.206   8.864  18.242  0.00  0.00    +0.000 C 
ATOM      9  C   UNL     1       0.836   8.656  17.597  0.00  0.00    +0.000 C 
ATOM     10  O   UNL     1       2.109   8.775  19.661  0.00  0.00    +0.000 OA
ATOM     11  C   UNL     1       1.726   7.581  20.186  0.00  0.00    +0.000 C 
ATOM     12  O   UNL     1       0.988   7.603  21.155  0.00  0.00    +0.000 OA
ENDROOT
BRANCH   1  14
ATOM     13  C   UNL     1       3.715   1.777  17.925  0.00  0.00    +0.000 C 
ATOM     14  O   UNL     1       4.106   3.089  17.525  0.00  0.00    +0.000 OA
ENDBRANCH   1  14
BRANCH   3  15
ATOM     15  O   UNL     1       1.477   4.492  21.095  0.00  0.00    +0.000 OA
ATOM     16  C   UNL     1       1.633   3.170  21.554  0.00  0.00    +0.000 C 
ENDBRANCH   3  15
BRANCH   6  17
ATOM     17  C   UNL     1       4.718   5.641  16.543  0.00  0.00    +0.000 C 
BRANCH  17  18
ATOM     18  C   UNL     1       5.747   6.722  16.765  0.00  0.00    +0.000 C 
ATOM     19  C   UNL     1       6.862   6.644  17.526  0.00  0.00    +0.000 C 
ATOM     20  C   UNL     1       7.300   5.435  18.311  0.00  0.00    +0.000 C 
ATOM     21  C   UNL     1       7.823   7.803  17.622  0.00  0.00    +0.000 C 
ENDBRANCH  17  18
ENDBRANCH   6  17
TORSDOF 4
ENDMDL
MODEL 5
REMARK VINA RESULT:      -6.4      1.566      5.561
REMARK  Name = 
REMARK  9 active torsions:
REMARK  status: ('A' for Active; 'I' for Inactive)
REMARK    1  A    between atoms: C_1  and  O_2
REMARK    2  A    between atoms: O_2  and  C_3
REMARK    3  A    between atoms: C_5  and  O_6
REMARK    4  A    between atoms: O_6  and  C_7
REMARK    5  A    between atoms: C_10  and  C_11
REMARK    6  A    between atoms: C_11  and  C_12
REMARK    7  A    between atoms: C_13  and  C_14
REMARK    8  A    between atoms: C_13  and  C_15
REMARK    9  A    between atoms: C_17  and  C_18
REMARK                            x       y       z     vdW  Elec       q    Type
REMARK                         _______ _______ _______ _____ _____    ______ ____
ROOT
ATOM      1  C   UNL     1       3.566   6.392  17.966  0.00  0.00    +0.000 A 
ATOM      2  C   UNL     1       4.613   7.280  17.724  0.00  0.00    +0.000 A 
ATOM      3  C   UNL     1       5.746   6.960  16.947  0.00  0.00    +0.000 A 
ATOM      4  C   UNL     1       5.827   5.679  16.371  0.00  0.00    +0.000 A 
ATOM      5  C   UNL     1       4.747   4.761  16.606  0.00  0.00    +0.000 A 
ATOM      6  C   UNL     1       3.641   5.094  17.446  0.00  0.00    +0.000 A 
ATOM      7  C   UNL     1       4.797   3.374  15.999  0.00  0.00    +0.000 C 
ATOM      8  C   UNL     1       5.729   3.316  14.809  0.00  0.00    +0.000 C 
ATOM      9  C   UNL     1       5.206   3.994  13.543  0.00  0.00    +0.000 C 
ATOM     10  O   UNL     1       6.982   3.874  15.194  0.00  0.00    +0.000 OA
ATOM     11  C   UNL     1       6.998   5.187  15.547  0.00  0.00    +0.000 C 
ATOM     12  O   UNL     1       7.960   5.851  15.205  0.00  0.00    +0.000 OA
ENDROOT
BRANCH   1  14
ATOM     13  C   UNL     1       2.131   8.100  18.795  0.00  0.00    +0.000 C 
ATOM     14  O   UNL     1       2.466   6.715  18.717  0.00  0.00    +0.000 OA
ENDBRANCH   1  14
BRANCH   3  15
ATOM     15  O   UNL     1       6.554   8.059  16.955  0.00  0.00    +0.000 OA
ATOM     16  C   UNL     1       7.751   8.181  17.686  0.00  0.00    +0.000 C 
ENDBRANCH   3  15
BRANCH   6  17
ATOM     17  C   UNL     1       2.580   4.061  17.829  0.00  0.00    +0.000 C 
BRANCH  17  18
ATOM     18  C   UNL     1       2.826   3.348  19.137  0.00  0.00    +0.000 C 
ATOM     19  C   UNL     1       2.079   3.425  20.261  0.00  0.00    +0.000 C 
ATOM     20  C   UNL     1       0.830   4.252  20.425  0.00  0.00    +0.000 C 
ATOM     21  C   UNL     1       2.431   2.619  21.488  0.00  0.00    +0.000 C 
ENDBRANCH  17  18
ENDBRANCH   6  17
TORSDOF 4
ENDMDL
MODEL 6
REMARK VINA RESULT:      -6.4      1.840      6.508
REMARK  Name = 
REMARK  9 active torsions:
REMARK  status: ('A' for Active; 'I' for Inactive)
REMARK    1  A    between atoms: C_1  and  O_2
REMARK    2  A    between atoms: O_2  and  C_3
REMARK    3  A    between atoms: C_5  and  O_6
REMARK    4  A    between atoms: O_6  and  C_7
REMARK    5  A    between atoms: C_10  and  C_11
REMARK    6  A    between atoms: C_11  and  C_12
REMARK    7  A    between atoms: C_13  and  C_14
REMARK    8  A    between atoms: C_13  and  C_15
REMARK    9  A    between atoms: C_17  and  C_18
REMARK                            x       y       z     vdW  Elec       q    Type
REMARK                         _______ _______ _______ _____ _____    ______ ____
ROOT
ATOM      1  C   UNL     1       2.286   4.871  18.901  0.00  0.00    +0.000 A 
ATOM      2  C   UNL     1       2.801   3.631  18.525  0.00  0.00    +0.000 A 
ATOM      3  C   UNL     1       3.887   3.472  17.639  0.00  0.00    +0.000 A 
ATOM      4  C   UNL     1       4.497   4.623  17.108  0.00  0.00    +0.000 A 
ATOM      5  C   UNL     1       3.980   5.905  17.499  0.00  0.00    +0.000 A 
ATOM      6  C   UNL     1       2.843   6.034  18.352  0.00  0.00    +0.000 A 
ATOM      7  C   UNL     1       4.616   7.167  16.952  0.00  0.00    +0.000 C 
ATOM      8  C   UNL     1       6.028   6.921  16.473  0.00  0.00    +0.000 C 
ATOM      9  C   UNL     1       7.064   6.724  17.579  0.00  0.00    +0.000 C 
ATOM     10  O   UNL     1       6.015   5.799  15.595  0.00  0.00    +0.000 OA
ATOM     11  C   UNL     1       5.644   4.601  16.120  0.00  0.00    +0.000 C 
ATOM     12  O   UNL     1       6.236   3.609  15.734  0.00  0.00    +0.000 OA
ENDROOT
BRANCH   1  14
ATOM     13  C   UNL     1       0.917   3.886  20.580  0.00  0.00    +0.000 C 
ATOM     14  O   UNL     1       1.234   5.016  19.768  0.00  0.00    +0.000 OA
ENDBRANCH   1  14
BRANCH   3  15
ATOM     15  O   UNL     1       4.086   2.129  17.496  0.00  0.00    +0.000 OA
ATOM     16  C   UNL     1       3.716   1.150  18.437  0.00  0.00    +0.000 C 
ENDBRANCH   3  15
BRANCH   6  17
ATOM     17  C   UNL     1       2.193   7.390  18.631  0.00  0.00    +0.000 C 
BRANCH  17  18
ATOM     18  C   UNL     1       2.020   7.727  20.092  0.00  0.00    +0.000 C 
ATOM     19  C   UNL     1       1.276   8.727  20.616  0.00  0.00    +0.000 C 
ATOM     20  C   UNL     1       0.458   9.714  19.825  0.00  0.00    +0.000 C 
ATOM     21  C   UNL     1       1.168   8.918  22.110  0.00  0.00    +0.000 C 
ENDBRANCH  17  18
ENDBRANCH   6  17
TORSDOF 4
ENDMDL
MODEL 7
REMARK VINA RESULT:      -6.3      1.769      6.217
REMARK  Name = 
REMARK  9 active torsions:
REMARK  status: ('A' for Active; 'I' for Inactive)
REMARK    1  A    between atoms: C_1  and  O_2
REMARK    2  A    between atoms: O_2  and  C_3
REMARK    3  A    between atoms: C_5  and  O_6
REMARK    4  A    between atoms: O_6  and  C_7
REMARK    5  A    between atoms: C_10  and  C_11
REMARK    6  A    between atoms: C_11  and  C_12
REMARK    7  A    between atoms: C_13  and  C_14
REMARK    8  A    between atoms: C_13  and  C_15
REMARK    9  A    between atoms: C_17  and  C_18
REMARK                            x       y       z     vdW  Elec       q    Type
REMARK                         _______ _______ _______ _____ _____    ______ ____
ROOT
ATOM      1  C   UNL     1       2.524   5.108  19.140  0.00  0.00    +0.000 A 
ATOM      2  C   UNL     1       2.822   3.849  18.622  0.00  0.00    +0.000 A 
ATOM      3  C   UNL     1       3.805   3.622  17.636  0.00  0.00    +0.000 A 
ATOM      4  C   UNL     1       4.537   4.720  17.151  0.00  0.00    +0.000 A 
ATOM      5  C   UNL     1       4.244   6.021  17.688  0.00  0.00    +0.000 A 
ATOM      6  C   UNL     1       3.203   6.227  18.643  0.00  0.00    +0.000 A 
ATOM      7  C   UNL     1       5.016   7.227  17.193  0.00  0.00    +0.000 C 
ATOM      8  C   UNL     1       6.338   6.831  16.575  0.00  0.00    +0.000 C 
ATOM      9  C   UNL     1       7.411   6.390  17.569  0.00  0.00    +0.000 C 
ATOM     10  O   UNL     1       6.095   5.808  15.614  0.00  0.00    +0.000 OA
ATOM     11  C   UNL     1       5.593   4.631  16.070  0.00  0.00    +0.000 C 
ATOM     12  O   UNL     1       6.003   3.606  15.554  0.00  0.00    +0.000 OA
ENDROOT
BRANCH   1  14
ATOM     13  C   UNL     1       0.926   4.156  20.626  0.00  0.00    +0.000 C 
ATOM     14  O   UNL     1       1.571   5.317  20.104  0.00  0.00    +0.000 OA
ENDBRANCH   1  14
BRANCH   3  15
ATOM     15  O   UNL     1       3.794   2.284  17.368  0.00  0.00    +0.000 OA
ATOM     16  C   UNL     1       3.628   1.266  18.327  0.00  0.00    +0.000 C 
ENDBRANCH   3  15
BRANCH   6  17
ATOM     17  C   UNL     1       2.781   7.629  19.086  0.00  0.00    +0.000 C 
BRANCH  17  18
ATOM     18  C   UNL     1       1.682   8.256  18.262  0.00  0.00    +0.000 C 
ATOM     19  C   UNL     1       0.856   9.259  18.632  0.00  0.00    +0.000 C 
ATOM     20  C   UNL     1       0.877   9.961  19.966  0.00  0.00    +0.000 C 
ATOM     21  C   UNL     1      -0.177   9.810  17.680  0.00  0.00    +0.000 C 
ENDBRANCH  17  18
ENDBRANCH   6  17
TORSDOF 4
ENDMDL
MODEL 8
REMARK VINA RESULT:      -6.2      2.335      6.214
REMARK  Name = 
REMARK  9 active torsions:
REMARK  status: ('A' for Active; 'I' for Inactive)
REMARK    1  A    between atoms: C_1  and  O_2
REMARK    2  A    between atoms: O_2  and  C_3
REMARK    3  A    between atoms: C_5  and  O_6
REMARK    4  A    between atoms: O_6  and  C_7
REMARK    5  A    between atoms: C_10  and  C_11
REMARK    6  A    between atoms: C_11  and  C_12
REMARK    7  A    between atoms: C_13  and  C_14
REMARK    8  A    between atoms: C_13  and  C_15
REMARK    9  A    between atoms: C_17  and  C_18
REMARK                            x       y       z     vdW  Elec       q    Type
REMARK                         _______ _______ _______ _____ _____    ______ ____
ROOT
ATOM      1  C   UNL     1       2.931   5.523  19.145  0.00  0.00    +0.000 A 
ATOM      2  C   UNL     1       3.716   4.470  19.614  0.00  0.00    +0.000 A 
ATOM      3  C   UNL     1       5.020   4.201  19.149  0.00  0.00    +0.000 A 
ATOM      4  C   UNL     1       5.571   5.043  18.166  0.00  0.00    +0.000 A 
ATOM      5  C   UNL     1       4.773   6.137  17.686  0.00  0.00    +0.000 A 
ATOM      6  C   UNL     1       3.434   6.350  18.133  0.00  0.00    +0.000 A 
ATOM      7  C   UNL     1       5.335   7.068  16.631  0.00  0.00    +0.000 C 
ATOM      8  C   UNL     1       6.846   7.027  16.595  0.00  0.00    +0.000 C 
ATOM      9  C   UNL     1       7.541   7.723  17.765  0.00  0.00    +0.000 C 
ATOM     10  O   UNL     1       7.256   5.666  16.508  0.00  0.00    +0.000 OA
ATOM     11  C   UNL     1       6.941   4.852  17.550  0.00  0.00    +0.000 C 
ATOM     12  O   UNL     1       7.764   4.017  17.882  0.00  0.00    +0.000 OA
ENDROOT
BRANCH   1  14
ATOM     13  C   UNL     1       1.067   4.771  20.421  0.00  0.00    +0.000 C 
ATOM     14  O   UNL     1       1.666   5.780  19.609  0.00  0.00    +0.000 OA
ENDBRANCH   1  14
BRANCH   3  15
ATOM     15  O   UNL     1       5.456   3.093  19.816  0.00  0.00    +0.000 OA
ATOM     16  C   UNL     1       4.634   2.045  20.273  0.00  0.00    +0.000 C 
ENDBRANCH   3  15
BRANCH   6  17
ATOM     17  C   UNL     1       2.531   7.409  17.500  0.00  0.00    +0.000 C 
BRANCH  17  18
ATOM     18  C   UNL     1       2.505   8.738  18.216  0.00  0.00    +0.000 C 
ATOM     19  C   UNL     1       1.470   9.603  18.293  0.00  0.00    +0.000 C 
ATOM     20  C   UNL     1       0.114   9.401  17.667  0.00  0.00    +0.000 C 
ATOM     21  C   UNL     1       1.582  10.884  19.084  0.00  0.00    +0.000 C 
ENDBRANCH  17  18
ENDBRANCH   6  17
TORSDOF 4
ENDMDL
MODEL 9
REMARK VINA RESULT:      -6.2      2.709      5.902
REMARK  Name = 
REMARK  9 active torsions:
REMARK  status: ('A' for Active; 'I' for Inactive)
REMARK    1  A    between atoms: C_1  and  O_2
REMARK    2  A    between atoms: O_2  and  C_3
REMARK    3  A    between atoms: C_5  and  O_6
REMARK    4  A    between atoms: O_6  and  C_7
REMARK    5  A    between atoms: C_10  and  C_11
REMARK    6  A    between atoms: C_11  and  C_12
REMARK    7  A    between atoms: C_13  and  C_14
REMARK    8  A    between atoms: C_13  and  C_15
REMARK    9  A    between atoms: C_17  and  C_18
REMARK                            x       y       z     vdW  Elec       q    Type
REMARK                         _______ _______ _______ _____ _____    ______ ____
ROOT
ATOM      1  C   UNL     1       3.013   7.725  17.772  0.00  0.00    +0.000 A 
ATOM      2  C   UNL     1       4.262   7.685  17.155  0.00  0.00    +0.000 A 
ATOM      3  C   UNL     1       5.217   6.674  17.389  0.00  0.00    +0.000 A 
ATOM      4  C   UNL     1       4.895   5.638  18.285  0.00  0.00    +0.000 A 
ATOM      5  C   UNL     1       3.604   5.666  18.916  0.00  0.00    +0.000 A 
ATOM      6  C   UNL     1       2.681   6.734  18.704  0.00  0.00    +0.000 A 
ATOM      7  C   UNL     1       3.220   4.564  19.883  0.00  0.00    +0.000 C 
ATOM      8  C   UNL     1       4.042   3.314  19.664  0.00  0.00    +0.000 C 
ATOM      9  C   UNL     1       3.687   2.516  18.410  0.00  0.00    +0.000 C 
ATOM     10  O   UNL     1       5.419   3.680  19.651  0.00  0.00    +0.000 OA
ATOM     11  C   UNL     1       5.833   4.511  18.659  0.00  0.00    +0.000 C 
ATOM     12  O   UNL     1       6.933   4.306  18.175  0.00  0.00    +0.000 OA
ENDROOT
BRANCH   1  14
ATOM     13  C   UNL     1       2.436  10.028  17.954  0.00  0.00    +0.000 C 
ATOM     14  O   UNL     1       2.089   8.710  17.532  0.00  0.00    +0.000 OA
ENDBRANCH   1  14
BRANCH   3  15
ATOM     15  O   UNL     1       6.311   6.982  16.634  0.00  0.00    +0.000 OA
ATOM     16  C   UNL     1       7.498   7.560  17.124  0.00  0.00    +0.000 C 
ENDBRANCH   3  15
BRANCH   6  17
ATOM     17  C   UNL     1       1.382   6.848  19.503  0.00  0.00    +0.000 C 
BRANCH  17  18
ATOM     18  C   UNL     1       1.505   7.571  20.822  0.00  0.00    +0.000 C 
ATOM     19  C   UNL     1       0.841   8.684  21.207  0.00  0.00    +0.000 C 
ATOM     20  C   UNL     1      -0.172   9.429  20.376  0.00  0.00    +0.000 C 
ATOM     21  C   UNL     1       1.041   9.275  22.581  0.00  0.00    +0.000 C 
ENDBRANCH  17  18
ENDBRANCH   6  17
TORSDOF 4
ENDMDL
