MODEL 1
REMARK VINA RESULT:      -7.1      0.000      0.000
REMARK  Name = 
REMARK  5 active torsions:
REMARK  status: ('A' for Active; 'I' for Inactive)
REMARK    1  A    between atoms: C_1  and  O_2
REMARK    2  A    between atoms: O_2  and  C_3
REMARK    3  A    between atoms: C_7  and  O_8
REMARK    4  A    between atoms: O_8  and  C_9
REMARK    5  A    between atoms: C_15  and  C_16
REMARK                            x       y       z     vdW  Elec       q    Type
REMARK                         _______ _______ _______ _____ _____    ______ ____
ROOT
ATOM      1  C   UNL     1       1.528   4.800  20.273  0.00  0.00    +0.000 A 
ATOM      2  C   UNL     1       1.277   6.067  20.806  0.00  0.00    +0.000 A 
ATOM      3  C   UNL     1       1.973   7.145  20.303  0.00  0.00    +0.000 A 
ATOM      4  N   UNL     1       2.881   7.039  19.319  0.00  0.00    +0.000 NA
ATOM      5  C   UNL     1       3.096   5.807  18.776  0.00  0.00    +0.000 A 
ATOM      6  C   UNL     1       2.464   4.641  19.228  0.00  0.00    +0.000 A 
ENDROOT
BRANCH   6   7
ATOM      7  C   UNL     1       2.720   3.326  18.638  0.00  0.00    +0.000 A 
ATOM      8  N   UNL     1       3.754   2.513  19.071  0.00  0.00    +0.000 NA
ATOM      9  C   UNL     1       3.695   1.469  18.283  0.00  0.00    +0.000 A 
ATOM     10  N   UNL     1       2.647   1.611  17.439  0.00  0.00    +0.000 N 
ATOM     11  N   UNL     1       2.016   2.780  17.630  0.00  0.00    +0.000 NA
ATOM     12  H   UNL     1       2.312   0.975  16.724  0.00  0.00    +0.000 HD
ENDBRANCH   6   7
BRANCH   1  14
ATOM     13  C   UNL     1       1.656   3.011  21.834  0.00  0.00    +0.000 C 
ATOM     14  O   UNL     1       0.939   3.677  20.801  0.00  0.00    +0.000 OA
ENDBRANCH   1  14
BRANCH   5  15
ATOM     15  O   UNL     1       3.994   5.735  17.715  0.00  0.00    +0.000 OA
BRANCH  15  16
ATOM     16  C   UNL     1       5.314   6.075  17.950  0.00  0.00    +0.000 A 
ATOM     17  C   UNL     1       5.974   5.396  18.978  0.00  0.00    +0.000 A 
ATOM     18  C   UNL     1       7.323   5.665  19.242  0.00  0.00    +0.000 A 
ATOM     19  C   UNL     1       8.010   6.607  18.475  0.00  0.00    +0.000 A 
ATOM     20  C   UNL     1       7.356   7.271  17.438  0.00  0.00    +0.000 A 
ATOM     21  C   UNL     1       6.018   6.991  17.164  0.00  0.00    +0.000 A 
ENDBRANCH  15  16
ENDBRANCH   5  15
TORSDOF 4
ENDMDL
MODEL 2
REMARK VINA RESULT:      -7.0      2.384      4.522
REMARK  Name = 
REMARK  5 active torsions:
REMARK  status: ('A' for Active; 'I' for Inactive)
REMARK    1  A    between atoms: C_1  and  O_2
REMARK    2  A    between atoms: O_2  and  C_3
REMARK    3  A    between atoms: C_7  and  O_8
REMARK    4  A    between atoms: O_8  and  C_9
REMARK    5  A    between atoms: C_15  and  C_16
REMARK                            x       y       z     vdW  Elec       q    Type
REMARK                         _______ _______ _______ _____ _____    ______ ____
ROOT
ATOM      1  C   UNL     1       3.834   2.688  19.056  0.00  0.00    +0.000 A 
ATOM      2  C   UNL     1       2.526   2.201  18.991  0.00  0.00    +0.000 A 
ATOM      3  C   UNL     1       1.528   3.045  18.553  0.00  0.00    +0.000 A 
ATOM      4  N   UNL     1       1.751   4.315  18.178  0.00  0.00    +0.000 NA
ATOM      5  C   UNL     1       3.034   4.775  18.207  0.00  0.00    +0.000 A 
ATOM      6  C   UNL     1       4.120   4.013  18.660  0.00  0.00    +0.000 A 
ENDROOT
BRANCH   6   7
ATOM      7  C   UNL     1       5.488   4.532  18.694  0.00  0.00    +0.000 A 
ATOM      8  N   UNL     1       6.335   4.449  17.602  0.00  0.00    +0.000 NA
ATOM      9  C   UNL     1       7.463   4.958  18.029  0.00  0.00    +0.000 A 
ATOM     10  N   UNL     1       7.303   5.379  19.305  0.00  0.00    +0.000 N 
ATOM     11  N   UNL     1       6.069   5.113  19.760  0.00  0.00    +0.000 NA
ATOM     12  H   UNL     1       7.971   5.838  19.915  0.00  0.00    +0.000 HD
ENDBRANCH   6   7
BRANCH   1  14
ATOM     13  C   UNL     1       4.749   1.595  20.958  0.00  0.00    +0.000 C 
ATOM     14  O   UNL     1       4.850   1.927  19.578  0.00  0.00    +0.000 OA
ENDBRANCH   1  14
BRANCH   5  15
ATOM     15  O   UNL     1       3.248   6.073  17.753  0.00  0.00    +0.000 OA
BRANCH  15  16
ATOM     16  C   UNL     1       2.619   7.111  18.417  0.00  0.00    +0.000 A 
ATOM     17  C   UNL     1       2.247   8.222  17.656  0.00  0.00    +0.000 A 
ATOM     18  C   UNL     1       1.572   9.290  18.259  0.00  0.00    +0.000 A 
ATOM     19  C   UNL     1       1.264   9.243  19.619  0.00  0.00    +0.000 A 
ATOM     20  C   UNL     1       1.619   8.127  20.375  0.00  0.00    +0.000 A 
ATOM     21  C   UNL     1       2.277   7.056  19.770  0.00  0.00    +0.000 A 
ENDBRANCH  15  16
ENDBRANCH   5  15
TORSDOF 4
ENDMDL
MODEL 3
REMARK VINA RESULT:      -7.0      2.331      4.258
REMARK  Name = 
REMARK  5 active torsions:
REMARK  status: ('A' for Active; 'I' for Inactive)
REMARK    1  A    between atoms: C_1  and  O_2
REMARK    2  A    between atoms: O_2  and  C_3
REMARK    3  A    between atoms: C_7  and  O_8
REMARK    4  A    between atoms: O_8  and  C_9
REMARK    5  A    between atoms: C_15  and  C_16
REMARK                            x       y       z     vdW  Elec       q    Type
REMARK                         _______ _______ _______ _____ _____    ______ ____
ROOT
ATOM      1  C   UNL     1       2.506   2.890  18.640  0.00  0.00    +0.000 A 
ATOM      2  C   UNL     1       1.281   2.577  19.235  0.00  0.00    +0.000 A 
ATOM      3  C   UNL     1       0.711   3.491  20.093  0.00  0.00    +0.000 A 
ATOM      4  N   UNL     1       1.272   4.676  20.384  0.00  0.00    +0.000 NA
ATOM      5  C   UNL     1       2.449   4.994  19.773  0.00  0.00    +0.000 A 
ATOM      6  C   UNL     1       3.129   4.129  18.905  0.00  0.00    +0.000 A 
ENDROOT
BRANCH   6   7
ATOM      7  C   UNL     1       4.397   4.486  18.270  0.00  0.00    +0.000 A 
ATOM      8  N   UNL     1       5.619   4.262  18.884  0.00  0.00    +0.000 NA
ATOM      9  C   UNL     1       6.496   4.754  18.047  0.00  0.00    +0.000 A 
ATOM     10  N   UNL     1       5.851   5.214  16.949  0.00  0.00    +0.000 N 
ATOM     11  N   UNL     1       4.522   5.071  17.064  0.00  0.00    +0.000 NA
ATOM     12  H   UNL     1       6.238   5.632  16.110  0.00  0.00    +0.000 HD
ENDBRANCH   6   7
BRANCH   1  14
ATOM     13  C   UNL     1       3.923   0.984  18.540  0.00  0.00    +0.000 C 
ATOM     14  O   UNL     1       3.169   1.978  17.856  0.00  0.00    +0.000 OA
ENDBRANCH   1  14
BRANCH   5  15
ATOM     15  O   UNL     1       2.978   6.253  20.041  0.00  0.00    +0.000 OA
BRANCH  15  16
ATOM     16  C   UNL     1       2.310   7.362  19.555  0.00  0.00    +0.000 A 
ATOM     17  C   UNL     1       1.609   8.141  20.479  0.00  0.00    +0.000 A 
ATOM     18  C   UNL     1       0.944   9.299  20.058  0.00  0.00    +0.000 A 
ATOM     19  C   UNL     1       0.985   9.679  18.716  0.00  0.00    +0.000 A 
ATOM     20  C   UNL     1       1.699   8.912  17.797  0.00  0.00    +0.000 A 
ATOM     21  C   UNL     1       2.375   7.768  18.220  0.00  0.00    +0.000 A 
ENDBRANCH  15  16
ENDBRANCH   5  15
TORSDOF 4
ENDMDL
MODEL 4
REMARK VINA RESULT:      -6.9      2.611      3.358
REMARK  Name = 
REMARK  5 active torsions:
REMARK  status: ('A' for Active; 'I' for Inactive)
REMARK    1  A    between atoms: C_1  and  O_2
REMARK    2  A    between atoms: O_2  and  C_3
REMARK    3  A    between atoms: C_7  and  O_8
REMARK    4  A    between atoms: O_8  and  C_9
REMARK    5  A    between atoms: C_15  and  C_16
REMARK                            x       y       z     vdW  Elec       q    Type
REMARK                         _______ _______ _______ _____ _____    ______ ____
ROOT
ATOM      1  C   UNL     1       2.796   5.517  18.587  0.00  0.00    +0.000 A 
ATOM      2  C   UNL     1       2.619   6.847  18.198  0.00  0.00    +0.000 A 
ATOM      3  C   UNL     1       3.612   7.457  17.463  0.00  0.00    +0.000 A 
ATOM      4  N   UNL     1       4.743   6.834  17.094  0.00  0.00    +0.000 NA
ATOM      5  C   UNL     1       4.894   5.524  17.442  0.00  0.00    +0.000 A 
ATOM      6  C   UNL     1       3.962   4.815  18.211  0.00  0.00    +0.000 A 
ENDROOT
BRANCH   6   7
ATOM      7  C   UNL     1       4.152   3.413  18.584  0.00  0.00    +0.000 A 
ATOM      8  N   UNL     1       3.537   2.378  17.899  0.00  0.00    +0.000 NA
ATOM      9  C   UNL     1       3.898   1.301  18.550  0.00  0.00    +0.000 A 
ATOM     10  N   UNL     1       4.733   1.651  19.556  0.00  0.00    +0.000 N 
ATOM     11  N   UNL     1       4.904   2.980  19.613  0.00  0.00    +0.000 NA
ATOM     12  H   UNL     1       5.206   1.057  20.229  0.00  0.00    +0.000 HD
ENDBRANCH   6   7
BRANCH   1  14
ATOM     13  C   UNL     1       1.847   5.322  20.758  0.00  0.00    +0.000 C 
ATOM     14  O   UNL     1       1.888   4.888  19.403  0.00  0.00    +0.000 OA
ENDBRANCH   1  14
BRANCH   5  15
ATOM     15  O   UNL     1       6.046   4.883  16.994  0.00  0.00    +0.000 OA
BRANCH  15  16
ATOM     16  C   UNL     1       6.188   4.667  15.636  0.00  0.00    +0.000 A 
ATOM     17  C   UNL     1       7.338   5.176  15.026  0.00  0.00    +0.000 A 
ATOM     18  C   UNL     1       7.563   4.958  13.661  0.00  0.00    +0.000 A 
ATOM     19  C   UNL     1       6.641   4.228  12.910  0.00  0.00    +0.000 A 
ATOM     20  C   UNL     1       5.503   3.705  13.521  0.00  0.00    +0.000 A 
ATOM     21  C   UNL     1       5.288   3.908  14.884  0.00  0.00    +0.000 A 
ENDBRANCH  15  16
ENDBRANCH   5  15
TORSDOF 4
ENDMDL
MODEL 5
REMARK VINA RESULT:      -6.9      0.480      1.427
REMARK  Name = 
REMARK  5 active torsions:
REMARK  status: ('A' for Active; 'I' for Inactive)
REMARK    1  A    between atoms: C_1  and  O_2
REMARK    2  A    between atoms: O_2  and  C_3
REMARK    3  A    between atoms: C_7  and  O_8
REMARK    4  A    between atoms: O_8  and  C_9
REMARK    5  A    between atoms: C_15  and  C_16
REMARK                            x       y       z     vdW  Elec       q    Type
REMARK                         _______ _______ _______ _____ _____    ______ ____
ROOT
ATOM      1  C   UNL     1       1.809   4.826  20.228  0.00  0.00    +0.000 A 
ATOM      2  C   UNL     1       1.402   6.115  20.581  0.00  0.00    +0.000 A 
ATOM      3  C   UNL     1       2.012   7.190  19.971  0.00  0.00    +0.000 A 
ATOM      4  N   UNL     1       2.978   7.060  19.047  0.00  0.00    +0.000 NA
ATOM      5  C   UNL     1       3.346   5.800  18.678  0.00  0.00    +0.000 A 
ATOM      6  C   UNL     1       2.811   4.639  19.251  0.00  0.00    +0.000 A 
ENDROOT
BRANCH   6   7
ATOM      7  C   UNL     1       3.230   3.295  18.849  0.00  0.00    +0.000 A 
ATOM      8  N   UNL     1       2.561   2.576  17.872  0.00  0.00    +0.000 NA
ATOM      9  C   UNL     1       3.186   1.426  17.834  0.00  0.00    +0.000 A 
ATOM     10  N   UNL     1       4.218   1.454  18.708  0.00  0.00    +0.000 N 
ATOM     11  N   UNL     1       4.267   2.618  19.374  0.00  0.00    +0.000 NA
ATOM     12  H   UNL     1       4.909   0.738  18.903  0.00  0.00    +0.000 HD
ENDBRANCH   6   7
BRANCH   1  14
ATOM     13  C   UNL     1       2.050   3.250  21.991  0.00  0.00    +0.000 C 
ATOM     14  O   UNL     1       1.308   3.721  20.872  0.00  0.00    +0.000 OA
ENDBRANCH   1  14
BRANCH   5  15
ATOM     15  O   UNL     1       4.303   5.692  17.673  0.00  0.00    +0.000 OA
BRANCH  15  16
ATOM     16  C   UNL     1       5.609   6.032  17.973  0.00  0.00    +0.000 A 
ATOM     17  C   UNL     1       6.179   7.079  17.244  0.00  0.00    +0.000 A 
ATOM     18  C   UNL     1       7.485   7.500  17.526  0.00  0.00    +0.000 A 
ATOM     19  C   UNL     1       8.216   6.877  18.539  0.00  0.00    +0.000 A 
ATOM     20  C   UNL     1       7.641   5.845  19.278  0.00  0.00    +0.000 A 
ATOM     21  C   UNL     1       6.334   5.438  19.009  0.00  0.00    +0.000 A 
ENDBRANCH  15  16
ENDBRANCH   5  15
TORSDOF 4
ENDMDL
MODEL 6
REMARK VINA RESULT:      -6.8      1.015      1.126
REMARK  Name = 
REMARK  5 active torsions:
REMARK  status: ('A' for Active; 'I' for Inactive)
REMARK    1  A    between atoms: C_1  and  O_2
REMARK    2  A    between atoms: O_2  and  C_3
REMARK    3  A    between atoms: C_7  and  O_8
REMARK    4  A    between atoms: O_8  and  C_9
REMARK    5  A    between atoms: C_15  and  C_16
REMARK                            x       y       z     vdW  Elec       q    Type
REMARK                         _______ _______ _______ _____ _____    ______ ____
ROOT
ATOM      1  C   UNL     1       1.694   5.052  20.276  0.00  0.00    +0.000 A 
ATOM      2  C   UNL     1       1.494   6.345  20.765  0.00  0.00    +0.000 A 
ATOM      3  C   UNL     1       2.042   7.404  20.074  0.00  0.00    +0.000 A 
ATOM      4  N   UNL     1       2.757   7.256  18.947  0.00  0.00    +0.000 NA
ATOM      5  C   UNL     1       2.917   5.996  18.452  0.00  0.00    +0.000 A 
ATOM      6  C   UNL     1       2.427   4.847  19.086  0.00  0.00    +0.000 A 
ENDROOT
BRANCH   6   7
ATOM      7  C   UNL     1       2.622   3.502  18.544  0.00  0.00    +0.000 A 
ATOM      8  N   UNL     1       3.716   2.722  18.882  0.00  0.00    +0.000 NA
ATOM      9  C   UNL     1       3.570   1.634  18.168  0.00  0.00    +0.000 A 
ATOM     10  N   UNL     1       2.417   1.719  17.463  0.00  0.00    +0.000 N 
ATOM     11  N   UNL     1       1.800   2.893  17.669  0.00  0.00    +0.000 NA
ATOM     12  H   UNL     1       2.001   1.040  16.836  0.00  0.00    +0.000 HD
ENDBRANCH   6   7
BRANCH   1  14
ATOM     13  C   UNL     1       2.176   3.384  21.900  0.00  0.00    +0.000 C 
ATOM     14  O   UNL     1       1.257   3.953  20.974  0.00  0.00    +0.000 OA
ENDBRANCH   1  14
BRANCH   5  15
ATOM     15  O   UNL     1       3.607   5.875  17.249  0.00  0.00    +0.000 OA
BRANCH  15  16
ATOM     16  C   UNL     1       4.931   5.480  17.290  0.00  0.00    +0.000 A 
ATOM     17  C   UNL     1       5.665   5.825  18.428  0.00  0.00    +0.000 A 
ATOM     18  C   UNL     1       7.000   5.422  18.551  0.00  0.00    +0.000 A 
ATOM     19  C   UNL     1       7.598   4.670  17.538  0.00  0.00    +0.000 A 
ATOM     20  C   UNL     1       6.861   4.310  16.411  0.00  0.00    +0.000 A 
ATOM     21  C   UNL     1       5.526   4.698  16.297  0.00  0.00    +0.000 A 
ENDBRANCH  15  16
ENDBRANCH   5  15
TORSDOF 4
ENDMDL
MODEL 7
REMARK VINA RESULT:      -6.8      2.320      4.407
REMARK  Name = 
REMARK  5 active torsions:
REMARK  status: ('A' for Active; 'I' for Inactive)
REMARK    1  A    between atoms: C_1  and  O_2
REMARK    2  A    between atoms: O_2  and  C_3
REMARK    3  A    between atoms: C_7  and  O_8
REMARK    4  A    between atoms: O_8  and  C_9
REMARK    5  A    between atoms: C_15  and  C_16
REMARK                            x       y       z     vdW  Elec       q    Type
REMARK                         _______ _______ _______ _____ _____    ______ ____
ROOT
ATOM      1  C   UNL     1       2.630   3.056  18.621  0.00  0.00    +0.000 A 
ATOM      2  C   UNL     1       1.392   2.719  19.173  0.00  0.00    +0.000 A 
ATOM      3  C   UNL     1       0.785   3.615  20.026  0.00  0.00    +0.000 A 
ATOM      4  N   UNL     1       1.322   4.803  20.350  0.00  0.00    +0.000 NA
ATOM      5  C   UNL     1       2.512   5.144  19.778  0.00  0.00    +0.000 A 
ATOM      6  C   UNL     1       3.229   4.299  18.920  0.00  0.00    +0.000 A 
ENDROOT
BRANCH   6   7
ATOM      7  C   UNL     1       4.512   4.681  18.328  0.00  0.00    +0.000 A 
ATOM      8  N   UNL     1       5.720   4.409  18.949  0.00  0.00    +0.000 NA
ATOM      9  C   UNL     1       6.616   4.941  18.157  0.00  0.00    +0.000 A 
ATOM     10  N   UNL     1       5.994   5.471  17.078  0.00  0.00    +0.000 N 
ATOM     11  N   UNL     1       4.662   5.334  17.161  0.00  0.00    +0.000 NA
ATOM     12  H   UNL     1       6.399   5.934  16.271  0.00  0.00    +0.000 HD
ENDBRANCH   6   7
BRANCH   1  14
ATOM     13  C   UNL     1       3.890   1.042  18.517  0.00  0.00    +0.000 C 
ATOM     14  O   UNL     1       3.328   2.163  17.844  0.00  0.00    +0.000 OA
ENDBRANCH   1  14
BRANCH   5  15
ATOM     15  O   UNL     1       3.017   6.405  20.080  0.00  0.00    +0.000 OA
BRANCH  15  16
ATOM     16  C   UNL     1       2.312   7.513  19.648  0.00  0.00    +0.000 A 
ATOM     17  C   UNL     1       2.380   7.822  18.287  0.00  0.00    +0.000 A 
ATOM     18  C   UNL     1       1.658   8.908  17.777  0.00  0.00    +0.000 A 
ATOM     19  C   UNL     1       0.864   9.680  18.627  0.00  0.00    +0.000 A 
ATOM     20  C   UNL     1       0.782   9.361  19.982  0.00  0.00    +0.000 A 
ATOM     21  C   UNL     1       1.489   8.270  20.486  0.00  0.00    +0.000 A 
ENDBRANCH  15  16
ENDBRANCH   5  15
TORSDOF 4
ENDMDL
MODEL 8
REMARK VINA RESULT:      -6.8      2.218      3.049
REMARK  Name = 
REMARK  5 active torsions:
REMARK  status: ('A' for Active; 'I' for Inactive)
REMARK    1  A    between atoms: C_1  and  O_2
REMARK    2  A    between atoms: O_2  and  C_3
REMARK    3  A    between atoms: C_7  and  O_8
REMARK    4  A    between atoms: O_8  and  C_9
REMARK    5  A    between atoms: C_15  and  C_16
REMARK                            x       y       z     vdW  Elec       q    Type
REMARK                         _______ _______ _______ _____ _____    ______ ____
ROOT
ATOM      1  C   UNL     1       1.776   7.232  19.876  0.00  0.00    +0.000 A 
ATOM      2  C   UNL     1       2.083   8.351  19.098  0.00  0.00    +0.000 A 
ATOM      3  C   UNL     1       2.859   8.179  17.973  0.00  0.00    +0.000 A 
ATOM      4  N   UNL     1       3.332   6.986  17.580  0.00  0.00    +0.000 NA
ATOM      5  C   UNL     1       2.998   5.890  18.321  0.00  0.00    +0.000 A 
ATOM      6  C   UNL     1       2.239   5.953  19.497  0.00  0.00    +0.000 A 
ENDROOT
BRANCH   6   7
ATOM      7  C   UNL     1       1.904   4.765  20.283  0.00  0.00    +0.000 A 
ATOM      8  N   UNL     1       2.726   4.293  21.292  0.00  0.00    +0.000 NA
ATOM      9  C   UNL     1       2.128   3.208  21.715  0.00  0.00    +0.000 A 
ATOM     10  N   UNL     1       0.970   3.047  21.033  0.00  0.00    +0.000 N 
ATOM     11  N   UNL     1       0.804   4.009  20.113  0.00  0.00    +0.000 NA
ATOM     12  H   UNL     1       0.265   2.325  21.134  0.00  0.00    +0.000 HD
ENDBRANCH   6   7
BRANCH   1  14
ATOM     13  C   UNL     1       1.100   8.644  21.666  0.00  0.00    +0.000 C 
ATOM     14  O   UNL     1       1.091   7.355  21.060  0.00  0.00    +0.000 OA
ENDBRANCH   1  14
BRANCH   5  15
ATOM     15  O   UNL     1       3.447   4.657  17.858  0.00  0.00    +0.000 OA
BRANCH  15  16
ATOM     16  C   UNL     1       4.760   4.554  17.436  0.00  0.00    +0.000 A 
ATOM     17  C   UNL     1       4.975   4.290  16.080  0.00  0.00    +0.000 A 
ATOM     18  C   UNL     1       6.280   4.212  15.580  0.00  0.00    +0.000 A 
ATOM     19  C   UNL     1       7.368   4.405  16.433  0.00  0.00    +0.000 A 
ATOM     20  C   UNL     1       7.153   4.687  17.781  0.00  0.00    +0.000 A 
ATOM     21  C   UNL     1       5.853   4.780  18.276  0.00  0.00    +0.000 A 
ENDBRANCH  15  16
ENDBRANCH   5  15
TORSDOF 4
ENDMDL
MODEL 9
REMARK VINA RESULT:      -6.7      2.469      5.146
REMARK  Name = 
REMARK  5 active torsions:
REMARK  status: ('A' for Active; 'I' for Inactive)
REMARK    1  A    between atoms: C_1  and  O_2
REMARK    2  A    between atoms: O_2  and  C_3
REMARK    3  A    between atoms: C_7  and  O_8
REMARK    4  A    between atoms: O_8  and  C_9
REMARK    5  A    between atoms: C_15  and  C_16
REMARK                            x       y       z     vdW  Elec       q    Type
REMARK                         _______ _______ _______ _____ _____    ______ ____
ROOT
ATOM      1  C   UNL     1       4.040   3.734  17.345  0.00  0.00    +0.000 A 
ATOM      2  C   UNL     1       2.762   3.253  17.050  0.00  0.00    +0.000 A 
ATOM      3  C   UNL     1       1.684   3.782  17.727  0.00  0.00    +0.000 A 
ATOM      4  N   UNL     1       1.800   4.744  18.656  0.00  0.00    +0.000 NA
ATOM      5  C   UNL     1       3.045   5.238  18.914  0.00  0.00    +0.000 A 
ATOM      6  C   UNL     1       4.211   4.756  18.305  0.00  0.00    +0.000 A 
ENDROOT
BRANCH   6   7
ATOM      7  C   UNL     1       5.538   5.292  18.607  0.00  0.00    +0.000 A 
ATOM      8  N   UNL     1       6.123   6.288  17.841  0.00  0.00    +0.000 NA
ATOM      9  C   UNL     1       7.304   6.457  18.379  0.00  0.00    +0.000 A 
ATOM     10  N   UNL     1       7.422   5.641  19.453  0.00  0.00    +0.000 N 
ATOM     11  N   UNL     1       6.327   4.883  19.617  0.00  0.00    +0.000 NA
ATOM     12  H   UNL     1       8.197   5.545  20.099  0.00  0.00    +0.000 HD
ENDBRANCH   6   7
BRANCH   1  14
ATOM     13  C   UNL     1       5.581   3.733  15.536  0.00  0.00    +0.000 C 
ATOM     14  O   UNL     1       5.158   3.177  16.776  0.00  0.00    +0.000 OA
ENDBRANCH   1  14
BRANCH   5  15
ATOM     15  O   UNL     1       3.131   6.279  19.834  0.00  0.00    +0.000 OA
BRANCH  15  16
ATOM     16  C   UNL     1       2.402   7.429  19.593  0.00  0.00    +0.000 A 
ATOM     17  C   UNL     1       2.463   7.964  18.303  0.00  0.00    +0.000 A 
ATOM     18  C   UNL     1       1.717   9.104  17.981  0.00  0.00    +0.000 A 
ATOM     19  C   UNL     1       0.908   9.705  18.947  0.00  0.00    +0.000 A 
ATOM     20  C   UNL     1       0.834   9.162  20.228  0.00  0.00    +0.000 A 
ATOM     21  C   UNL     1       1.564   8.016  20.544  0.00  0.00    +0.000 A 
ENDBRANCH  15  16
ENDBRANCH   5  15
TORSDOF 4
ENDMDL
