MODEL 1
REMARK VINA RESULT:      -7.0      0.000      0.000
REMARK  Name = 
REMARK  13 active torsions:
REMARK  status: ('A' for Active; 'I' for Inactive)
REMARK    1  A    between atoms: C_1  and  C_2
REMARK    2  A    between atoms: C_2  and  C_3
REMARK    3  A    between atoms: C_3  and  C_4
REMARK    4  A    between atoms: C_4  and  O_5
REMARK    5  A    between atoms: O_5  and  C_6
REMARK    6  A    between atoms: C_9  and  C_10
REMARK    7  A    between atoms: C_11  and  C_12
REMARK    8  A    between atoms: C_14  and  O_15
REMARK    9  A    between atoms: C_17  and  O_18
REMARK   10  A    between atoms: O_18  and  C_19
REMARK   11  A    between atoms: C_19  and  C_20
REMARK   12  A    between atoms: C_20  and  C_21
REMARK   13  A    between atoms: C_21  and  C_22
REMARK                            x       y       z     vdW  Elec       q    Type
REMARK                         _______ _______ _______ _____ _____    ______ ____
ROOT
ATOM      1  C   UNL     1       8.433   8.052  18.620  0.00  0.00    +0.000 C 
ATOM      2  C   UNL     1       8.344   9.322  18.208  0.00  0.00    +0.000 C 
ENDROOT
BRANCH   1   6
ATOM      3  C   UNL     1       5.883   5.003  17.026  0.00  0.00    +0.000 A 
ATOM      4  C   UNL     1       5.824   6.327  16.584  0.00  0.00    +0.000 A 
ATOM      5  C   UNL     1       6.678   7.294  17.101  0.00  0.00    +0.000 A 
ATOM      6  C   UNL     1       7.597   6.967  18.096  0.00  0.00    +0.000 A 
ATOM      7  C   UNL     1       7.676   5.639  18.531  0.00  0.00    +0.000 A 
ATOM      8  C   UNL     1       6.820   4.661  18.002  0.00  0.00    +0.000 A 
BRANCH   3   9
ATOM      9  O   UNL     1       5.075   3.994  16.561  0.00  0.00    +0.000 OA
BRANCH   9  10
ATOM     10  C   UNL     1       4.343   3.320  17.589  0.00  0.00    +0.000 C 
BRANCH  10  11
ATOM     11  C   UNL     1       2.845   3.416  17.348  0.00  0.00    +0.000 C 
BRANCH  11  13
ATOM     12  C   UNL     1       2.602   4.957  19.321  0.00  0.00    +0.000 C 
ATOM     13  C   UNL     1       2.322   4.767  17.844  0.00  0.00    +0.000 C 
ENDBRANCH  11  13
ENDBRANCH  10  11
ENDBRANCH   9  10
ENDBRANCH   3   9
ENDBRANCH   1   6
BRANCH   2  14
ATOM     14  C   UNL     1       9.284  10.331  18.688  0.00  0.00    +0.000 A 
ATOM     15  C   UNL     1       9.302  10.678  20.041  0.00  0.00    +0.000 A 
ATOM     16  C   UNL     1      10.168  11.675  20.475  0.00  0.00    +0.000 A 
ATOM     17  C   UNL     1      11.032  12.309  19.587  0.00  0.00    +0.000 A 
ATOM     18  C   UNL     1      11.017  11.966  18.233  0.00  0.00    +0.000 A 
ATOM     19  C   UNL     1      10.135  10.978  17.788  0.00  0.00    +0.000 A 
BRANCH  16  20
ATOM     20  O   UNL     1      10.179  12.076  21.779  0.00  0.00    +0.000 OA
ATOM     21  H   UNL     1       9.402  11.696  22.223  0.00  0.00    +0.000 HD
ENDBRANCH  16  20
BRANCH  18  22
ATOM     22  O   UNL     1      11.888  12.665  17.436  0.00  0.00    +0.000 OA
BRANCH  22  23
ATOM     23  C   UNL     1      12.331  13.917  17.958  0.00  0.00    +0.000 C 
BRANCH  23  24
ATOM     24  C   UNL     1      11.714  15.049  17.148  0.00  0.00    +0.000 C 
BRANCH  24  25
ATOM     25  C   UNL     1      10.840  15.930  18.038  0.00  0.00    +0.000 C 
ATOM     26  C   UNL     1       9.407  15.432  18.079  0.00  0.00    +0.000 C 
ENDBRANCH  24  25
ENDBRANCH  23  24
ENDBRANCH  22  23
ENDBRANCH  18  22
ENDBRANCH   2  14
TORSDOF 11
ENDMDL
MODEL 2
REMARK VINA RESULT:      -6.9      1.839      2.606
REMARK  Name = 
REMARK  13 active torsions:
REMARK  status: ('A' for Active; 'I' for Inactive)
REMARK    1  A    between atoms: C_1  and  C_2
REMARK    2  A    between atoms: C_2  and  C_3
REMARK    3  A    between atoms: C_3  and  C_4
REMARK    4  A    between atoms: C_4  and  O_5
REMARK    5  A    between atoms: O_5  and  C_6
REMARK    6  A    between atoms: C_9  and  C_10
REMARK    7  A    between atoms: C_11  and  C_12
REMARK    8  A    between atoms: C_14  and  O_15
REMARK    9  A    between atoms: C_17  and  O_18
REMARK   10  A    between atoms: O_18  and  C_19
REMARK   11  A    between atoms: C_19  and  C_20
REMARK   12  A    between atoms: C_20  and  C_21
REMARK   13  A    between atoms: C_21  and  C_22
REMARK                            x       y       z     vdW  Elec       q    Type
REMARK                         _______ _______ _______ _____ _____    ______ ____
ROOT
ATOM      1  C   UNL     1       8.345   8.291  18.646  0.00  0.00    +0.000 C 
ATOM      2  C   UNL     1       8.496   9.512  18.119  0.00  0.00    +0.000 C 
ENDROOT
BRANCH   1   6
ATOM      3  C   UNL     1       6.308   5.020  16.778  0.00  0.00    +0.000 A 
ATOM      4  C   UNL     1       7.313   4.824  17.727  0.00  0.00    +0.000 A 
ATOM      5  C   UNL     1       7.944   5.902  18.337  0.00  0.00    +0.000 A 
ATOM      6  C   UNL     1       7.604   7.209  17.990  0.00  0.00    +0.000 A 
ATOM      7  C   UNL     1       6.586   7.415  17.053  0.00  0.00    +0.000 A 
ATOM      8  C   UNL     1       5.942   6.326  16.445  0.00  0.00    +0.000 A 
BRANCH   3   9
ATOM      9  O   UNL     1       5.639   4.006  16.136  0.00  0.00    +0.000 OA
BRANCH   9  10
ATOM     10  C   UNL     1       6.197   3.660  14.864  0.00  0.00    +0.000 C 
BRANCH  10  11
ATOM     11  C   UNL     1       5.266   4.059  13.731  0.00  0.00    +0.000 C 
BRANCH  11  13
ATOM     12  C   UNL     1       4.478   3.246  11.485  0.00  0.00    +0.000 C 
ATOM     13  C   UNL     1       5.640   3.299  12.456  0.00  0.00    +0.000 C 
ENDBRANCH  11  13
ENDBRANCH  10  11
ENDBRANCH   9  10
ENDBRANCH   3   9
ENDBRANCH   1   6
BRANCH   2  14
ATOM     14  C   UNL     1       9.342  10.508  18.772  0.00  0.00    +0.000 A 
ATOM     15  C   UNL     1       9.236  10.717  20.148  0.00  0.00    +0.000 A 
ATOM     16  C   UNL     1      10.013  11.702  20.747  0.00  0.00    +0.000 A 
ATOM     17  C   UNL     1      10.910  12.459  20.000  0.00  0.00    +0.000 A 
ATOM     18  C   UNL     1      11.018  12.255  18.622  0.00  0.00    +0.000 A 
ATOM     19  C   UNL     1      10.226  11.279  18.012  0.00  0.00    +0.000 A 
BRANCH  16  20
ATOM     20  O   UNL     1       9.903  11.969  22.081  0.00  0.00    +0.000 OA
ATOM     21  H   UNL     1      10.060  12.919  22.217  0.00  0.00    +0.000 HD
ENDBRANCH  16  20
BRANCH  18  22
ATOM     22  O   UNL     1      11.911  13.068  17.971  0.00  0.00    +0.000 OA
BRANCH  22  23
ATOM     23  C   UNL     1      11.825  14.456  18.291  0.00  0.00    +0.000 C 
BRANCH  23  24
ATOM     24  C   UNL     1      11.156  15.198  17.141  0.00  0.00    +0.000 C 
BRANCH  24  25
ATOM     25  C   UNL     1       9.897  15.913  17.626  0.00  0.00    +0.000 C 
ATOM     26  C   UNL     1       9.862  16.011  19.141  0.00  0.00    +0.000 C 
ENDBRANCH  24  25
ENDBRANCH  23  24
ENDBRANCH  22  23
ENDBRANCH  18  22
ENDBRANCH   2  14
TORSDOF 11
ENDMDL
MODEL 3
REMARK VINA RESULT:      -6.9      1.369      9.708
REMARK  Name = 
REMARK  13 active torsions:
REMARK  status: ('A' for Active; 'I' for Inactive)
REMARK    1  A    between atoms: C_1  and  C_2
REMARK    2  A    between atoms: C_2  and  C_3
REMARK    3  A    between atoms: C_3  and  C_4
REMARK    4  A    between atoms: C_4  and  O_5
REMARK    5  A    between atoms: O_5  and  C_6
REMARK    6  A    between atoms: C_9  and  C_10
REMARK    7  A    between atoms: C_11  and  C_12
REMARK    8  A    between atoms: C_14  and  O_15
REMARK    9  A    between atoms: C_17  and  O_18
REMARK   10  A    between atoms: O_18  and  C_19
REMARK   11  A    between atoms: C_19  and  C_20
REMARK   12  A    between atoms: C_20  and  C_21
REMARK   13  A    between atoms: C_21  and  C_22
REMARK                            x       y       z     vdW  Elec       q    Type
REMARK                         _______ _______ _______ _____ _____    ______ ____
ROOT
ATOM      1  C   UNL     1       8.300   9.111  18.261  0.00  0.00    +0.000 C 
ATOM      2  C   UNL     1       8.419   7.850  18.694  0.00  0.00    +0.000 C 
ENDROOT
BRANCH   1   6
ATOM      3  C   UNL     1      10.949  12.291  19.357  0.00  0.00    +0.000 A 
ATOM      4  C   UNL     1      10.772  11.897  18.029  0.00  0.00    +0.000 A 
ATOM      5  C   UNL     1       9.888  10.877  17.695  0.00  0.00    +0.000 A 
ATOM      6  C   UNL     1       9.179  10.203  18.689  0.00  0.00    +0.000 A 
ATOM      7  C   UNL     1       9.338  10.604  20.020  0.00  0.00    +0.000 A 
ATOM      8  C   UNL     1      10.222  11.641  20.355  0.00  0.00    +0.000 A 
BRANCH   3   9
ATOM      9  O   UNL     1      11.801  13.290  19.762  0.00  0.00    +0.000 OA
BRANCH   9  10
ATOM     10  C   UNL     1      11.138  14.415  20.347  0.00  0.00    +0.000 C 
BRANCH  10  11
ATOM     11  C   UNL     1      10.386  15.215  19.295  0.00  0.00    +0.000 C 
BRANCH  11  13
ATOM     12  C   UNL     1       8.085  14.471  18.606  0.00  0.00    +0.000 C 
ATOM     13  C   UNL     1       8.893  15.243  19.629  0.00  0.00    +0.000 C 
ENDBRANCH  11  13
ENDBRANCH  10  11
ENDBRANCH   9  10
ENDBRANCH   3   9
ENDBRANCH   1   6
BRANCH   2  14
ATOM     14  C   UNL     1       7.583   6.788  18.140  0.00  0.00    +0.000 A 
ATOM     15  C   UNL     1       7.297   6.768  16.774  0.00  0.00    +0.000 A 
ATOM     16  C   UNL     1       6.460   5.779  16.269  0.00  0.00    +0.000 A 
ATOM     17  C   UNL     1       5.929   4.798  17.101  0.00  0.00    +0.000 A 
ATOM     18  C   UNL     1       6.211   4.815  18.469  0.00  0.00    +0.000 A 
ATOM     19  C   UNL     1       7.037   5.817  18.984  0.00  0.00    +0.000 A 
BRANCH  16  20
ATOM     20  O   UNL     1       6.118   5.756  14.948  0.00  0.00    +0.000 OA
ATOM     21  H   UNL     1       5.161   5.908  14.878  0.00  0.00    +0.000 HD
ENDBRANCH  16  20
BRANCH  18  22
ATOM     22  O   UNL     1       5.621   3.820  19.207  0.00  0.00    +0.000 OA
BRANCH  22  23
ATOM     23  C   UNL     1       4.236   3.596  18.941  0.00  0.00    +0.000 C 
BRANCH  23  24
ATOM     24  C   UNL     1       3.401   4.573  19.758  0.00  0.00    +0.000 C 
BRANCH  24  25
ATOM     25  C   UNL     1       1.948   4.555  19.291  0.00  0.00    +0.000 C 
ATOM     26  C   UNL     1       1.851   4.450  17.779  0.00  0.00    +0.000 C 
ENDBRANCH  24  25
ENDBRANCH  23  24
ENDBRANCH  22  23
ENDBRANCH  18  22
ENDBRANCH   2  14
TORSDOF 11
ENDMDL
MODEL 4
REMARK VINA RESULT:      -6.9      0.836      1.080
REMARK  Name = 
REMARK  13 active torsions:
REMARK  status: ('A' for Active; 'I' for Inactive)
REMARK    1  A    between atoms: C_1  and  C_2
REMARK    2  A    between atoms: C_2  and  C_3
REMARK    3  A    between atoms: C_3  and  C_4
REMARK    4  A    between atoms: C_4  and  O_5
REMARK    5  A    between atoms: O_5  and  C_6
REMARK    6  A    between atoms: C_9  and  C_10
REMARK    7  A    between atoms: C_11  and  C_12
REMARK    8  A    between atoms: C_14  and  O_15
REMARK    9  A    between atoms: C_17  and  O_18
REMARK   10  A    between atoms: O_18  and  C_19
REMARK   11  A    between atoms: C_19  and  C_20
REMARK   12  A    between atoms: C_20  and  C_21
REMARK   13  A    between atoms: C_21  and  C_22
REMARK                            x       y       z     vdW  Elec       q    Type
REMARK                         _______ _______ _______ _____ _____    ______ ____
ROOT
ATOM      1  C   UNL     1       8.309   8.036  18.426  0.00  0.00    +0.000 C 
ATOM      2  C   UNL     1       8.209   9.344  18.159  0.00  0.00    +0.000 C 
ENDROOT
BRANCH   1   6
ATOM      3  C   UNL     1       5.594   5.195  16.723  0.00  0.00    +0.000 A 
ATOM      4  C   UNL     1       5.491   6.565  16.469  0.00  0.00    +0.000 A 
ATOM      5  C   UNL     1       6.400   7.465  17.015  0.00  0.00    +0.000 A 
ATOM      6  C   UNL     1       7.419   7.020  17.855  0.00  0.00    +0.000 A 
ATOM      7  C   UNL     1       7.539   5.648  18.100  0.00  0.00    +0.000 A 
ATOM      8  C   UNL     1       6.629   4.738  17.541  0.00  0.00    +0.000 A 
BRANCH   3   9
ATOM      9  O   UNL     1       4.738   4.247  16.218  0.00  0.00    +0.000 OA
BRANCH   9  10
ATOM     10  C   UNL     1       4.345   3.255  17.172  0.00  0.00    +0.000 C 
BRANCH  10  11
ATOM     11  C   UNL     1       2.981   3.573  17.762  0.00  0.00    +0.000 C 
BRANCH  11  13
ATOM     12  C   UNL     1       0.908   2.558  18.762  0.00  0.00    +0.000 C 
ATOM     13  C   UNL     1       2.293   2.282  18.214  0.00  0.00    +0.000 C 
ENDBRANCH  11  13
ENDBRANCH  10  11
ENDBRANCH   9  10
ENDBRANCH   3   9
ENDBRANCH   1   6
BRANCH   2  14
ATOM     14  C   UNL     1       9.199  10.288  18.670  0.00  0.00    +0.000 A 
ATOM     15  C   UNL     1       9.221  10.605  20.030  0.00  0.00    +0.000 A 
ATOM     16  C   UNL     1      10.136  11.543  20.494  0.00  0.00    +0.000 A 
ATOM     17  C   UNL     1      11.045  12.145  19.629  0.00  0.00    +0.000 A 
ATOM     18  C   UNL     1      11.026  11.832  18.267  0.00  0.00    +0.000 A 
ATOM     19  C   UNL     1      10.095  10.904  17.793  0.00  0.00    +0.000 A 
BRANCH  16  20
ATOM     20  O   UNL     1      10.156  11.915  21.806  0.00  0.00    +0.000 OA
ATOM     21  H   UNL     1       9.419  12.530  21.961  0.00  0.00    +0.000 HD
ENDBRANCH  16  20
BRANCH  18  22
ATOM     22  O   UNL     1      11.944  12.496  17.494  0.00  0.00    +0.000 OA
BRANCH  22  23
ATOM     23  C   UNL     1      11.442  13.624  16.776  0.00  0.00    +0.000 C 
BRANCH  23  24
ATOM     24  C   UNL     1      12.133  14.887  17.274  0.00  0.00    +0.000 C 
BRANCH  24  25
ATOM     25  C   UNL     1      11.259  15.606  18.298  0.00  0.00    +0.000 C 
ATOM     26  C   UNL     1      11.973  15.759  19.629  0.00  0.00    +0.000 C 
ENDBRANCH  24  25
ENDBRANCH  23  24
ENDBRANCH  22  23
ENDBRANCH  18  22
ENDBRANCH   2  14
TORSDOF 11
ENDMDL
MODEL 5
REMARK VINA RESULT:      -6.9      1.813     10.087
REMARK  Name = 
REMARK  13 active torsions:
REMARK  status: ('A' for Active; 'I' for Inactive)
REMARK    1  A    between atoms: C_1  and  C_2
REMARK    2  A    between atoms: C_2  and  C_3
REMARK    3  A    between atoms: C_3  and  C_4
REMARK    4  A    between atoms: C_4  and  O_5
REMARK    5  A    between atoms: O_5  and  C_6
REMARK    6  A    between atoms: C_9  and  C_10
REMARK    7  A    between atoms: C_11  and  C_12
REMARK    8  A    between atoms: C_14  and  O_15
REMARK    9  A    between atoms: C_17  and  O_18
REMARK   10  A    between atoms: O_18  and  C_19
REMARK   11  A    between atoms: C_19  and  C_20
REMARK   12  A    between atoms: C_20  and  C_21
REMARK   13  A    between atoms: C_21  and  C_22
REMARK                            x       y       z     vdW  Elec       q    Type
REMARK                         _______ _______ _______ _____ _____    ______ ____
ROOT
ATOM      1  C   UNL     1       8.342   9.125  18.223  0.00  0.00    +0.000 C 
ATOM      2  C   UNL     1       8.428   7.875  18.693  0.00  0.00    +0.000 C 
ENDROOT
BRANCH   1   6
ATOM      3  C   UNL     1      10.882  12.299  19.569  0.00  0.00    +0.000 A 
ATOM      4  C   UNL     1      10.151  11.506  20.456  0.00  0.00    +0.000 A 
ATOM      5  C   UNL     1       9.351  10.466  19.996  0.00  0.00    +0.000 A 
ATOM      6  C   UNL     1       9.239  10.211  18.630  0.00  0.00    +0.000 A 
ATOM      7  C   UNL     1       9.981  10.990  17.736  0.00  0.00    +0.000 A 
ATOM      8  C   UNL     1      10.796  12.033  18.201  0.00  0.00    +0.000 A 
BRANCH   3   9
ATOM      9  O   UNL     1      11.693  13.341  19.948  0.00  0.00    +0.000 OA
BRANCH   9  10
ATOM     10  C   UNL     1      11.289  14.610  19.425  0.00  0.00    +0.000 C 
BRANCH  10  11
ATOM     11  C   UNL     1      10.080  15.150  20.172  0.00  0.00    +0.000 C 
BRANCH  11  13
ATOM     12  C   UNL     1       9.337  14.577  22.505  0.00  0.00    +0.000 C 
ATOM     13  C   UNL     1      10.396  15.261  21.666  0.00  0.00    +0.000 C 
ENDBRANCH  11  13
ENDBRANCH  10  11
ENDBRANCH   9  10
ENDBRANCH   3   9
ENDBRANCH   1   6
BRANCH   2  14
ATOM     14  C   UNL     1       7.577   6.816  18.160  0.00  0.00    +0.000 A 
ATOM     15  C   UNL     1       7.246   6.805  16.803  0.00  0.00    +0.000 A 
ATOM     16  C   UNL     1       6.394   5.819  16.320  0.00  0.00    +0.000 A 
ATOM     17  C   UNL     1       5.893   4.830  17.161  0.00  0.00    +0.000 A 
ATOM     18  C   UNL     1       6.220   4.838  18.519  0.00  0.00    +0.000 A 
ATOM     19  C   UNL     1       7.060   5.838  19.015  0.00  0.00    +0.000 A 
BRANCH  16  20
ATOM     20  O   UNL     1       6.009   5.804  15.011  0.00  0.00    +0.000 OA
ATOM     21  H   UNL     1       6.763   6.089  14.467  0.00  0.00    +0.000 HD
ENDBRANCH  16  20
BRANCH  18  22
ATOM     22  O   UNL     1       5.656   3.837  19.270  0.00  0.00    +0.000 OA
BRANCH  22  23
ATOM     23  C   UNL     1       4.328   3.465  18.900  0.00  0.00    +0.000 C 
BRANCH  23  24
ATOM     24  C   UNL     1       3.670   2.727  20.058  0.00  0.00    +0.000 C 
BRANCH  24  25
ATOM     25  C   UNL     1       2.578   3.587  20.690  0.00  0.00    +0.000 C 
ATOM     26  C   UNL     1       1.634   2.753  21.538  0.00  0.00    +0.000 C 
ENDBRANCH  24  25
ENDBRANCH  23  24
ENDBRANCH  22  23
ENDBRANCH  18  22
ENDBRANCH   2  14
TORSDOF 11
ENDMDL
MODEL 6
REMARK VINA RESULT:      -6.9      1.519      3.165
REMARK  Name = 
REMARK  13 active torsions:
REMARK  status: ('A' for Active; 'I' for Inactive)
REMARK    1  A    between atoms: C_1  and  C_2
REMARK    2  A    between atoms: C_2  and  C_3
REMARK    3  A    between atoms: C_3  and  C_4
REMARK    4  A    between atoms: C_4  and  O_5
REMARK    5  A    between atoms: O_5  and  C_6
REMARK    6  A    between atoms: C_9  and  C_10
REMARK    7  A    between atoms: C_11  and  C_12
REMARK    8  A    between atoms: C_14  and  O_15
REMARK    9  A    between atoms: C_17  and  O_18
REMARK   10  A    between atoms: O_18  and  C_19
REMARK   11  A    between atoms: C_19  and  C_20
REMARK   12  A    between atoms: C_20  and  C_21
REMARK   13  A    between atoms: C_21  and  C_22
REMARK                            x       y       z     vdW  Elec       q    Type
REMARK                         _______ _______ _______ _____ _____    ______ ____
ROOT
ATOM      1  C   UNL     1       8.525   8.152  18.655  0.00  0.00    +0.000 C 
ATOM      2  C   UNL     1       8.443   9.386  18.142  0.00  0.00    +0.000 C 
ENDROOT
BRANCH   1   6
ATOM      3  C   UNL     1       6.102   4.948  17.171  0.00  0.00    +0.000 A 
ATOM      4  C   UNL     1       6.003   6.248  16.669  0.00  0.00    +0.000 A 
ATOM      5  C   UNL     1       6.818   7.267  17.151  0.00  0.00    +0.000 A 
ATOM      6  C   UNL     1       7.734   7.016  18.171  0.00  0.00    +0.000 A 
ATOM      7  C   UNL     1       7.852   5.713  18.667  0.00  0.00    +0.000 A 
ATOM      8  C   UNL     1       7.037   4.683  18.173  0.00  0.00    +0.000 A 
BRANCH   3   9
ATOM      9  O   UNL     1       5.335   3.892  16.744  0.00  0.00    +0.000 OA
BRANCH   9  10
ATOM     10  C   UNL     1       3.964   4.229  16.511  0.00  0.00    +0.000 C 
BRANCH  10  11
ATOM     11  C   UNL     1       3.116   3.952  17.742  0.00  0.00    +0.000 C 
BRANCH  11  13
ATOM     12  C   UNL     1       3.382   5.866  19.352  0.00  0.00    +0.000 C 
ATOM     13  C   UNL     1       2.516   5.259  18.268  0.00  0.00    +0.000 C 
ENDBRANCH  11  13
ENDBRANCH  10  11
ENDBRANCH   9  10
ENDBRANCH   3   9
ENDBRANCH   1   6
BRANCH   2  14
ATOM     14  C   UNL     1       9.342  10.444  18.594  0.00  0.00    +0.000 A 
ATOM     15  C   UNL     1      10.300  10.964  17.722  0.00  0.00    +0.000 A 
ATOM     16  C   UNL     1      11.181  11.936  18.182  0.00  0.00    +0.000 A 
ATOM     17  C   UNL     1      11.101  12.415  19.486  0.00  0.00    +0.000 A 
ATOM     18  C   UNL     1      10.146  11.897  20.363  0.00  0.00    +0.000 A 
ATOM     19  C   UNL     1       9.270  10.906  19.912  0.00  0.00    +0.000 A 
BRANCH  16  20
ATOM     20  O   UNL     1      12.162  12.433  17.374  0.00  0.00    +0.000 OA
ATOM     21  H   UNL     1      11.972  13.371  17.203  0.00  0.00    +0.000 HD
ENDBRANCH  16  20
BRANCH  18  22
ATOM     22  O   UNL     1      10.164  12.416  21.633  0.00  0.00    +0.000 OA
BRANCH  22  23
ATOM     23  C   UNL     1       9.333  13.557  21.843  0.00  0.00    +0.000 C 
BRANCH  23  24
ATOM     24  C   UNL     1       8.024  13.118  22.485  0.00  0.00    +0.000 C 
BRANCH  24  25
ATOM     25  C   UNL     1       8.260  11.942  23.430  0.00  0.00    +0.000 C 
ATOM     26  C   UNL     1       8.412  12.406  24.868  0.00  0.00    +0.000 C 
ENDBRANCH  24  25
ENDBRANCH  23  24
ENDBRANCH  22  23
ENDBRANCH  18  22
ENDBRANCH   2  14
TORSDOF 11
ENDMDL
MODEL 7
REMARK VINA RESULT:      -6.8      2.246      9.805
REMARK  Name = 
REMARK  13 active torsions:
REMARK  status: ('A' for Active; 'I' for Inactive)
REMARK    1  A    between atoms: C_1  and  C_2
REMARK    2  A    between atoms: C_2  and  C_3
REMARK    3  A    between atoms: C_3  and  C_4
REMARK    4  A    between atoms: C_4  and  O_5
REMARK    5  A    between atoms: O_5  and  C_6
REMARK    6  A    between atoms: C_9  and  C_10
REMARK    7  A    between atoms: C_11  and  C_12
REMARK    8  A    between atoms: C_14  and  O_15
REMARK    9  A    between atoms: C_17  and  O_18
REMARK   10  A    between atoms: O_18  and  C_19
REMARK   11  A    between atoms: C_19  and  C_20
REMARK   12  A    between atoms: C_20  and  C_21
REMARK   13  A    between atoms: C_21  and  C_22
REMARK                            x       y       z     vdW  Elec       q    Type
REMARK                         _______ _______ _______ _____ _____    ______ ____
ROOT
ATOM      1  C   UNL     1       8.173   8.952  18.095  0.00  0.00    +0.000 C 
ATOM      2  C   UNL     1       8.282   7.694  18.539  0.00  0.00    +0.000 C 
ENDROOT
BRANCH   1   6
ATOM      3  C   UNL     1      10.647  12.144  19.518  0.00  0.00    +0.000 A 
ATOM      4  C   UNL     1       9.924  11.323  20.385  0.00  0.00    +0.000 A 
ATOM      5  C   UNL     1       9.145  10.277  19.901  0.00  0.00    +0.000 A 
ATOM      6  C   UNL     1       9.048  10.046  18.530  0.00  0.00    +0.000 A 
ATOM      7  C   UNL     1       9.784  10.852  17.655  0.00  0.00    +0.000 A 
ATOM      8  C   UNL     1      10.578  11.901  18.145  0.00  0.00    +0.000 A 
BRANCH   3   9
ATOM      9  O   UNL     1      11.438  13.193  19.922  0.00  0.00    +0.000 OA
BRANCH   9  10
ATOM     10  C   UNL     1      10.763  14.454  19.937  0.00  0.00    +0.000 C 
BRANCH  10  11
ATOM     11  C   UNL     1      11.425  15.440  18.989  0.00  0.00    +0.000 C 
BRANCH  11  13
ATOM     12  C   UNL     1       9.074  15.350  18.102  0.00  0.00    +0.000 C 
ATOM     13  C   UNL     1      10.513  15.704  17.788  0.00  0.00    +0.000 C 
ENDBRANCH  11  13
ENDBRANCH  10  11
ENDBRANCH   9  10
ENDBRANCH   3   9
ENDBRANCH   1   6
BRANCH   2  14
ATOM     14  C   UNL     1       7.452   6.630  17.980  0.00  0.00    +0.000 A 
ATOM     15  C   UNL     1       6.867   5.686  18.826  0.00  0.00    +0.000 A 
ATOM     16  C   UNL     1       6.120   4.651  18.275  0.00  0.00    +0.000 A 
ATOM     17  C   UNL     1       5.927   4.561  16.900  0.00  0.00    +0.000 A 
ATOM     18  C   UNL     1       6.513   5.501  16.049  0.00  0.00    +0.000 A 
ATOM     19  C   UNL     1       7.279   6.533  16.596  0.00  0.00    +0.000 A 
BRANCH  16  20
ATOM     20  O   UNL     1       5.573   3.682  19.065  0.00  0.00    +0.000 OA
ATOM     21  H   UNL     1       5.590   2.843  18.576  0.00  0.00    +0.000 HD
ENDBRANCH  16  20
BRANCH  18  22
ATOM     22  O   UNL     1       6.284   5.311  14.710  0.00  0.00    +0.000 OA
BRANCH  22  23
ATOM     23  C   UNL     1       6.772   4.083  14.171  0.00  0.00    +0.000 C 
BRANCH  23  24
ATOM     24  C   UNL     1       6.634   4.106  12.655  0.00  0.00    +0.000 C 
BRANCH  24  25
ATOM     25  C   UNL     1       5.313   3.470  12.228  0.00  0.00    +0.000 C 
ATOM     26  C   UNL     1       5.534   2.128  11.554  0.00  0.00    +0.000 C 
ENDBRANCH  24  25
ENDBRANCH  23  24
ENDBRANCH  22  23
ENDBRANCH  18  22
ENDBRANCH   2  14
TORSDOF 11
ENDMDL
MODEL 8
REMARK VINA RESULT:      -6.8      2.118      9.762
REMARK  Name = 
REMARK  13 active torsions:
REMARK  status: ('A' for Active; 'I' for Inactive)
REMARK    1  A    between atoms: C_1  and  C_2
REMARK    2  A    between atoms: C_2  and  C_3
REMARK    3  A    between atoms: C_3  and  C_4
REMARK    4  A    between atoms: C_4  and  O_5
REMARK    5  A    between atoms: O_5  and  C_6
REMARK    6  A    between atoms: C_9  and  C_10
REMARK    7  A    between atoms: C_11  and  C_12
REMARK    8  A    between atoms: C_14  and  O_15
REMARK    9  A    between atoms: C_17  and  O_18
REMARK   10  A    between atoms: O_18  and  C_19
REMARK   11  A    between atoms: C_19  and  C_20
REMARK   12  A    between atoms: C_20  and  C_21
REMARK   13  A    between atoms: C_21  and  C_22
REMARK                            x       y       z     vdW  Elec       q    Type
REMARK                         _______ _______ _______ _____ _____    ______ ____
ROOT
ATOM      1  C   UNL     1       8.249   9.004  18.242  0.00  0.00    +0.000 C 
ATOM      2  C   UNL     1       8.343   7.741  18.674  0.00  0.00    +0.000 C 
ENDROOT
BRANCH   1   6
ATOM      3  C   UNL     1      10.846  12.174  19.488  0.00  0.00    +0.000 A 
ATOM      4  C   UNL     1      10.721  11.799  18.148  0.00  0.00    +0.000 A 
ATOM      5  C   UNL     1       9.854  10.782  17.765  0.00  0.00    +0.000 A 
ATOM      6  C   UNL     1       9.108  10.093  18.721  0.00  0.00    +0.000 A 
ATOM      7  C   UNL     1       9.213  10.474  20.063  0.00  0.00    +0.000 A 
ATOM      8  C   UNL     1      10.082  11.507  20.447  0.00  0.00    +0.000 A 
BRANCH   3   9
ATOM      9  O   UNL     1      11.678  13.168  19.940  0.00  0.00    +0.000 OA
BRANCH   9  10
ATOM     10  C   UNL     1      12.113  14.070  18.918  0.00  0.00    +0.000 C 
BRANCH  10  11
ATOM     11  C   UNL     1      11.371  15.393  19.003  0.00  0.00    +0.000 C 
BRANCH  11  13
ATOM     12  C   UNL     1      10.573  16.866  17.127  0.00  0.00    +0.000 C 
ATOM     13  C   UNL     1      10.408  15.530  17.821  0.00  0.00    +0.000 C 
ENDBRANCH  11  13
ENDBRANCH  10  11
ENDBRANCH   9  10
ENDBRANCH   3   9
ENDBRANCH   1   6
BRANCH   2  14
ATOM     14  C   UNL     1       7.534   6.684  18.073  0.00  0.00    +0.000 A 
ATOM     15  C   UNL     1       6.987   5.683  18.878  0.00  0.00    +0.000 A 
ATOM     16  C   UNL     1       6.260   4.656  18.286  0.00  0.00    +0.000 A 
ATOM     17  C   UNL     1       6.049   4.630  16.910  0.00  0.00    +0.000 A 
ATOM     18  C   UNL     1       6.596   5.629  16.101  0.00  0.00    +0.000 A 
ATOM     19  C   UNL     1       7.343   6.653  16.689  0.00  0.00    +0.000 A 
BRANCH  16  20
ATOM     20  O   UNL     1       5.752   3.635  19.033  0.00  0.00    +0.000 OA
ATOM     21  H   UNL     1       4.927   3.331  18.616  0.00  0.00    +0.000 HD
ENDBRANCH  16  20
BRANCH  18  22
ATOM     22  O   UNL     1       6.353   5.500  14.756  0.00  0.00    +0.000 OA
BRANCH  22  23
ATOM     23  C   UNL     1       7.415   4.932  13.991  0.00  0.00    +0.000 C 
BRANCH  23  24
ATOM     24  C   UNL     1       6.856   4.372  12.689  0.00  0.00    +0.000 C 
BRANCH  24  25
ATOM     25  C   UNL     1       5.480   3.753  12.920  0.00  0.00    +0.000 C 
ATOM     26  C   UNL     1       5.070   2.861  11.762  0.00  0.00    +0.000 C 
ENDBRANCH  24  25
ENDBRANCH  23  24
ENDBRANCH  22  23
ENDBRANCH  18  22
ENDBRANCH   2  14
TORSDOF 11
ENDMDL
MODEL 9
REMARK VINA RESULT:      -6.8      6.518      8.972
REMARK  Name = 
REMARK  13 active torsions:
REMARK  status: ('A' for Active; 'I' for Inactive)
REMARK    1  A    between atoms: C_1  and  C_2
REMARK    2  A    between atoms: C_2  and  C_3
REMARK    3  A    between atoms: C_3  and  C_4
REMARK    4  A    between atoms: C_4  and  O_5
REMARK    5  A    between atoms: O_5  and  C_6
REMARK    6  A    between atoms: C_9  and  C_10
REMARK    7  A    between atoms: C_11  and  C_12
REMARK    8  A    between atoms: C_14  and  O_15
REMARK    9  A    between atoms: C_17  and  O_18
REMARK   10  A    between atoms: O_18  and  C_19
REMARK   11  A    between atoms: C_19  and  C_20
REMARK   12  A    between atoms: C_20  and  C_21
REMARK   13  A    between atoms: C_21  and  C_22
REMARK                            x       y       z     vdW  Elec       q    Type
REMARK                         _______ _______ _______ _____ _____    ______ ____
ROOT
ATOM      1  C   UNL     1       2.763   6.832  18.591  0.00  0.00    +0.000 C 
ATOM      2  C   UNL     1       2.237   7.993  18.182  0.00  0.00    +0.000 C 
ENDROOT
BRANCH   1   6
ATOM      3  C   UNL     1       5.569   4.667  16.187  0.00  0.00    +0.000 A 
ATOM      4  C   UNL     1       5.681   6.043  16.401  0.00  0.00    +0.000 A 
ATOM      5  C   UNL     1       4.770   6.720  17.206  0.00  0.00    +0.000 A 
ATOM      6  C   UNL     1       3.704   6.040  17.793  0.00  0.00    +0.000 A 
ATOM      7  C   UNL     1       3.595   4.659  17.598  0.00  0.00    +0.000 A 
ATOM      8  C   UNL     1       4.520   3.974  16.794  0.00  0.00    +0.000 A 
BRANCH   3   9
ATOM      9  O   UNL     1       6.429   3.932  15.409  0.00  0.00    +0.000 OA
BRANCH   9  10
ATOM     10  C   UNL     1       6.531   4.397  14.060  0.00  0.00    +0.000 C 
BRANCH  10  11
ATOM     11  C   UNL     1       5.254   4.112  13.285  0.00  0.00    +0.000 C 
BRANCH  11  13
ATOM     12  C   UNL     1       4.342   3.005  11.219  0.00  0.00    +0.000 C 
ATOM     13  C   UNL     1       5.552   3.169  12.116  0.00  0.00    +0.000 C 
ENDBRANCH  11  13
ENDBRANCH  10  11
ENDBRANCH   9  10
ENDBRANCH   3   9
ENDBRANCH   1   6
BRANCH   2  14
ATOM     14  C   UNL     1       1.395   8.787  19.073  0.00  0.00    +0.000 A 
ATOM     15  C   UNL     1       1.530   8.657  20.457  0.00  0.00    +0.000 A 
ATOM     16  C   UNL     1       0.688   9.383  21.292  0.00  0.00    +0.000 A 
ATOM     17  C   UNL     1      -0.264  10.253  20.768  0.00  0.00    +0.000 A 
ATOM     18  C   UNL     1      -0.403  10.385  19.384  0.00  0.00    +0.000 A 
ATOM     19  C   UNL     1       0.428   9.644  18.540  0.00  0.00    +0.000 A 
BRANCH  16  20
ATOM     20  O   UNL     1       0.756   9.246  22.648  0.00  0.00    +0.000 OA
ATOM     21  H   UNL     1       1.668   9.431  22.928  0.00  0.00    +0.000 HD
ENDBRANCH  16  20
BRANCH  18  22
ATOM     22  O   UNL     1      -1.385  11.248  18.968  0.00  0.00    +0.000 OA
BRANCH  22  23
ATOM     23  C   UNL     1      -1.630  11.268  17.562  0.00  0.00    +0.000 C 
BRANCH  23  24
ATOM     24  C   UNL     1      -3.063  10.828  17.292  0.00  0.00    +0.000 C 
BRANCH  24  25
ATOM     25  C   UNL     1      -3.435  11.081  15.834  0.00  0.00    +0.000 C 
ATOM     26  C   UNL     1      -2.953   9.957  14.934  0.00  0.00    +0.000 C 
ENDBRANCH  24  25
ENDBRANCH  23  24
ENDBRANCH  22  23
ENDBRANCH  18  22
ENDBRANCH   2  14
TORSDOF 11
ENDMDL
