MODEL 1
REMARK VINA RESULT:      -7.0      0.000      0.000
REMARK  Name = 
REMARK  9 active torsions:
REMARK  status: ('A' for Active; 'I' for Inactive)
REMARK    1  A    between atoms: C_1  and  C_2
REMARK    2  A    between atoms: N_10  and  C_11
REMARK    3  A    between atoms: C_11  and  C_12
REMARK    4  A    between atoms: C_12  and  O_14
REMARK    5  A    between atoms: C_17  and  N_18
REMARK    6  A    between atoms: C_19  and  C_21
REMARK    7  A    between atoms: C_21  and  S_22
REMARK    8  A    between atoms: C_21  and  C_23
REMARK    9  A    between atoms: C_23  and  C_24
REMARK                            x       y       z     vdW  Elec       q    Type
REMARK                         _______ _______ _______ _____ _____    ______ ____
ROOT
ATOM      1  C   UNL     1      -1.391   9.961  17.382  0.00  0.00    +0.000 C 
ATOM      2  C   UNL     1      -1.147  10.549  18.772  0.00  0.00    +0.000 C 
ATOM      3  O   UNL     1      -1.670  11.887  18.682  0.00  0.00    +0.000 OA
ATOM      4  C   UNL     1      -2.081  12.313  19.915  0.00  0.00    +0.000 A 
ATOM      5  C   UNL     1      -3.447  12.391  20.166  0.00  0.00    +0.000 A 
ATOM      6  C   UNL     1      -3.890  12.832  21.410  0.00  0.00    +0.000 A 
ATOM      7  C   UNL     1      -2.965  13.218  22.381  0.00  0.00    +0.000 A 
ATOM      8  C   UNL     1      -1.593  13.182  22.105  0.00  0.00    +0.000 A 
ATOM      9  C   UNL     1      -1.139  12.722  20.863  0.00  0.00    +0.000 A 
ATOM     10  N   UNL     1       0.250  12.592  20.543  0.00  0.00    +0.000 N 
ATOM     11  C   UNL     1       0.671  11.246  20.472  0.00  0.00    +0.000 C 
ATOM     12  O   UNL     1       1.378  10.729  21.337  0.00  0.00    +0.000 OA
ATOM     13  C   UNL     1       0.349  10.552  19.131  0.00  0.00    +0.000 C 
ENDROOT
BRANCH  13  14
ATOM     14  N   UNL     1       0.907   9.194  19.142  0.00  0.00    +0.000 N 
ATOM     15  C   UNL     1       1.888   8.817  18.247  0.00  0.00    +0.000 C 
ATOM     16  O   UNL     1       2.349   9.610  17.427  0.00  0.00    +0.000 OA
ATOM     17  H   UNL     1       0.592   8.549  19.859  0.00  0.00    +0.000 HD
BRANCH  15  18
ATOM     18  C   UNL     1       2.267   7.338  18.274  0.00  0.00    +0.000 C 
BRANCH  18  19
ATOM     19  S   UNL     1       3.920   7.190  17.472  0.00  0.00    +0.000 S 
ATOM     20  H   UNL     1       4.109   5.894  17.775  0.00  0.00    +0.000 HD
ENDBRANCH  18  19
BRANCH  18  21
ATOM     21  C   UNL     1       2.277   6.842  19.730  0.00  0.00    +0.000 C 
BRANCH  21  22
ATOM     22  C   UNL     1       1.999   5.368  19.920  0.00  0.00    +0.000 A 
ATOM     23  C   UNL     1       1.632   4.582  18.817  0.00  0.00    +0.000 A 
ATOM     24  C   UNL     1       1.346   3.227  18.975  0.00  0.00    +0.000 A 
ATOM     25  C   UNL     1       1.430   2.640  20.235  0.00  0.00    +0.000 A 
ATOM     26  C   UNL     1       1.814   3.405  21.334  0.00  0.00    +0.000 A 
ATOM     27  C   UNL     1       2.105   4.762  21.178  0.00  0.00    +0.000 A 
ENDBRANCH  21  22
ENDBRANCH  18  21
ENDBRANCH  15  18
ENDBRANCH  13  14
BRANCH  10  28
ATOM     28  C   UNL     1       1.180  13.513  21.210  0.00  0.00    +0.000 C 
BRANCH  28  29
ATOM     29  C   UNL     1       2.269  13.950  20.228  0.00  0.00    +0.000 C 
ATOM     30  O   UNL     1       3.436  14.132  20.550  0.00  0.00    +0.000 OA
BRANCH  29  31
ATOM     31  O   UNL     1       1.815  14.261  18.990  0.00  0.00    +0.000 OA
ATOM     32  H   UNL     1       2.348  14.963  18.569  0.00  0.00    +0.000 HD
ENDBRANCH  29  31
ENDBRANCH  28  29
ENDBRANCH  10  28
TORSDOF 8
ENDMDL
MODEL 2
REMARK VINA RESULT:      -7.0      0.128      1.080
REMARK  Name = 
REMARK  9 active torsions:
REMARK  status: ('A' for Active; 'I' for Inactive)
REMARK    1  A    between atoms: C_1  and  C_2
REMARK    2  A    between atoms: N_10  and  C_11
REMARK    3  A    between atoms: C_11  and  C_12
REMARK    4  A    between atoms: C_12  and  O_14
REMARK    5  A    between atoms: C_17  and  N_18
REMARK    6  A    between atoms: C_19  and  C_21
REMARK    7  A    between atoms: C_21  and  S_22
REMARK    8  A    between atoms: C_21  and  C_23
REMARK    9  A    between atoms: C_23  and  C_24
REMARK                            x       y       z     vdW  Elec       q    Type
REMARK                         _______ _______ _______ _____ _____    ______ ____
ROOT
ATOM      1  C   UNL     1      -1.458  10.025  17.366  0.00  0.00    +0.000 C 
ATOM      2  C   UNL     1      -1.227  10.584  18.770  0.00  0.00    +0.000 C 
ATOM      3  O   UNL     1      -1.758  11.920  18.706  0.00  0.00    +0.000 OA
ATOM      4  C   UNL     1      -2.179  12.316  19.946  0.00  0.00    +0.000 A 
ATOM      5  C   UNL     1      -3.548  12.379  20.190  0.00  0.00    +0.000 A 
ATOM      6  C   UNL     1      -4.001  12.790  21.440  0.00  0.00    +0.000 A 
ATOM      7  C   UNL     1      -3.086  13.161  22.425  0.00  0.00    +0.000 A 
ATOM      8  C   UNL     1      -1.711  13.140  22.158  0.00  0.00    +0.000 A 
ATOM      9  C   UNL     1      -1.247  12.710  20.909  0.00  0.00    +0.000 A 
ATOM     10  N   UNL     1       0.145  12.597  20.595  0.00  0.00    +0.000 N 
ATOM     11  C   UNL     1       0.575  11.256  20.497  0.00  0.00    +0.000 C 
ATOM     12  O   UNL     1       1.281  10.724  21.355  0.00  0.00    +0.000 OA
ATOM     13  C   UNL     1       0.268  10.589  19.139  0.00  0.00    +0.000 C 
ENDROOT
BRANCH  13  14
ATOM     14  N   UNL     1       0.834   9.235  19.124  0.00  0.00    +0.000 N 
ATOM     15  C   UNL     1       1.868   8.902  18.271  0.00  0.00    +0.000 C 
ATOM     16  O   UNL     1       2.369   9.732  17.514  0.00  0.00    +0.000 OA
ATOM     17  H   UNL     1       0.484   8.557  19.793  0.00  0.00    +0.000 HD
BRANCH  15  18
ATOM     18  C   UNL     1       2.257   7.425  18.258  0.00  0.00    +0.000 C 
BRANCH  18  19
ATOM     19  S   UNL     1       3.897   7.307  17.428  0.00  0.00    +0.000 S 
ATOM     20  H   UNL     1       3.457   6.662  16.334  0.00  0.00    +0.000 HD
ENDBRANCH  18  19
BRANCH  18  21
ATOM     21  C   UNL     1       2.292   6.894  19.701  0.00  0.00    +0.000 C 
BRANCH  21  22
ATOM     22  C   UNL     1       1.997   5.420  19.862  0.00  0.00    +0.000 A 
ATOM     23  C   UNL     1       2.056   4.835  21.136  0.00  0.00    +0.000 A 
ATOM     24  C   UNL     1       1.812   3.472  21.303  0.00  0.00    +0.000 A 
ATOM     25  C   UNL     1       1.500   2.680  20.201  0.00  0.00    +0.000 A 
ATOM     26  C   UNL     1       1.418   3.255  18.934  0.00  0.00    +0.000 A 
ATOM     27  C   UNL     1       1.658   4.620  18.764  0.00  0.00    +0.000 A 
ENDBRANCH  21  22
ENDBRANCH  18  21
ENDBRANCH  15  18
ENDBRANCH  13  14
BRANCH  10  28
ATOM     28  C   UNL     1       1.064  13.509  21.288  0.00  0.00    +0.000 C 
BRANCH  28  29
ATOM     29  C   UNL     1       2.158  13.972  20.323  0.00  0.00    +0.000 C 
ATOM     30  O   UNL     1       1.949  14.259  19.152  0.00  0.00    +0.000 OA
BRANCH  29  31
ATOM     31  O   UNL     1       3.414  13.904  20.826  0.00  0.00    +0.000 OA
ATOM     32  H   UNL     1       3.912  13.142  20.469  0.00  0.00    +0.000 HD
ENDBRANCH  29  31
ENDBRANCH  28  29
ENDBRANCH  10  28
TORSDOF 8
ENDMDL
MODEL 3
REMARK VINA RESULT:      -6.8      3.239      8.430
REMARK  Name = 
REMARK  9 active torsions:
REMARK  status: ('A' for Active; 'I' for Inactive)
REMARK    1  A    between atoms: C_1  and  C_2
REMARK    2  A    between atoms: N_10  and  C_11
REMARK    3  A    between atoms: C_11  and  C_12
REMARK    4  A    between atoms: C_12  and  O_14
REMARK    5  A    between atoms: C_17  and  N_18
REMARK    6  A    between atoms: C_19  and  C_21
REMARK    7  A    between atoms: C_21  and  S_22
REMARK    8  A    between atoms: C_21  and  C_23
REMARK    9  A    between atoms: C_23  and  C_24
REMARK                            x       y       z     vdW  Elec       q    Type
REMARK                         _______ _______ _______ _____ _____    ______ ____
ROOT
ATOM      1  C   UNL     1       1.042   6.535  21.179  0.00  0.00    +0.000 C 
ATOM      2  C   UNL     1       1.826   6.064  19.954  0.00  0.00    +0.000 C 
ATOM      3  O   UNL     1       2.684   5.028  20.465  0.00  0.00    +0.000 OA
ATOM      4  C   UNL     1       2.975   4.131  19.475  0.00  0.00    +0.000 A 
ATOM      5  C   UNL     1       2.368   2.879  19.516  0.00  0.00    +0.000 A 
ATOM      6  C   UNL     1       2.657   1.946  18.525  0.00  0.00    +0.000 A 
ATOM      7  C   UNL     1       3.571   2.259  17.519  0.00  0.00    +0.000 A 
ATOM      8  C   UNL     1       4.214   3.503  17.509  0.00  0.00    +0.000 A 
ATOM      9  C   UNL     1       3.915   4.455  18.492  0.00  0.00    +0.000 A 
ATOM     10  N   UNL     1       4.483   5.768  18.499  0.00  0.00    +0.000 N 
ATOM     11  C   UNL     1       3.547   6.769  18.159  0.00  0.00    +0.000 C 
ATOM     12  O   UNL     1       3.569   7.354  17.076  0.00  0.00    +0.000 OA
ATOM     13  C   UNL     1       2.639   7.211  19.327  0.00  0.00    +0.000 C 
ENDROOT
BRANCH  13  14
ATOM     14  N   UNL     1       1.772   8.308  18.880  0.00  0.00    +0.000 N 
ATOM     15  C   UNL     1       1.397   9.319  19.742  0.00  0.00    +0.000 C 
ATOM     16  O   UNL     1       1.795   9.353  20.905  0.00  0.00    +0.000 OA
ATOM     17  H   UNL     1       1.495   8.337  17.904  0.00  0.00    +0.000 HD
BRANCH  15  18
ATOM     18  C   UNL     1       0.377  10.311  19.185  0.00  0.00    +0.000 C 
BRANCH  18  19
ATOM     19  S   UNL     1       1.280  11.881  18.849  0.00  0.00    +0.000 S 
ATOM     20  H   UNL     1       1.295  12.312  20.122  0.00  0.00    +0.000 HD
ENDBRANCH  18  19
BRANCH  18  21
ATOM     21  C   UNL     1      -0.265   9.723  17.916  0.00  0.00    +0.000 C 
BRANCH  21  22
ATOM     22  C   UNL     1      -1.648  10.237  17.586  0.00  0.00    +0.000 A 
ATOM     23  C   UNL     1      -2.235   9.908  16.355  0.00  0.00    +0.000 A 
ATOM     24  C   UNL     1      -3.499  10.392  16.020  0.00  0.00    +0.000 A 
ATOM     25  C   UNL     1      -4.192  11.206  16.912  0.00  0.00    +0.000 A 
ATOM     26  C   UNL     1      -3.627  11.522  18.147  0.00  0.00    +0.000 A 
ATOM     27  C   UNL     1      -2.364  11.035  18.487  0.00  0.00    +0.000 A 
ENDBRANCH  21  22
ENDBRANCH  18  21
ENDBRANCH  15  18
ENDBRANCH  13  14
BRANCH  10  28
ATOM     28  C   UNL     1       5.820   5.923  17.911  0.00  0.00    +0.000 C 
BRANCH  28  29
ATOM     29  C   UNL     1       6.852   5.192  18.772  0.00  0.00    +0.000 C 
ATOM     30  O   UNL     1       7.067   5.464  19.946  0.00  0.00    +0.000 OA
BRANCH  29  31
ATOM     31  O   UNL     1       7.619   4.305  18.094  0.00  0.00    +0.000 OA
ATOM     32  H   UNL     1       7.457   4.339  17.132  0.00  0.00    +0.000 HD
ENDBRANCH  29  31
ENDBRANCH  28  29
ENDBRANCH  10  28
TORSDOF 8
ENDMDL
MODEL 4
REMARK VINA RESULT:      -6.6      2.160      2.747
REMARK  Name = 
REMARK  9 active torsions:
REMARK  status: ('A' for Active; 'I' for Inactive)
REMARK    1  A    between atoms: C_1  and  C_2
REMARK    2  A    between atoms: N_10  and  C_11
REMARK    3  A    between atoms: C_11  and  C_12
REMARK    4  A    between atoms: C_12  and  O_14
REMARK    5  A    between atoms: C_17  and  N_18
REMARK    6  A    between atoms: C_19  and  C_21
REMARK    7  A    between atoms: C_21  and  S_22
REMARK    8  A    between atoms: C_21  and  C_23
REMARK    9  A    between atoms: C_23  and  C_24
REMARK                            x       y       z     vdW  Elec       q    Type
REMARK                         _______ _______ _______ _____ _____    ______ ____
ROOT
ATOM      1  C   UNL     1      -1.938   9.913  16.901  0.00  0.00    +0.000 C 
ATOM      2  C   UNL     1      -2.303  10.550  18.241  0.00  0.00    +0.000 C 
ATOM      3  O   UNL     1      -3.166  11.645  17.885  0.00  0.00    +0.000 OA
ATOM      4  C   UNL     1      -4.027  11.916  18.912  0.00  0.00    +0.000 A 
ATOM      5  C   UNL     1      -5.362  11.546  18.771  0.00  0.00    +0.000 A 
ATOM      6  C   UNL     1      -6.259  11.820  19.798  0.00  0.00    +0.000 A 
ATOM      7  C   UNL     1      -5.824  12.487  20.943  0.00  0.00    +0.000 A 
ATOM      8  C   UNL     1      -4.491  12.899  21.059  0.00  0.00    +0.000 A 
ATOM      9  C   UNL     1      -3.577  12.610  20.038  0.00  0.00    +0.000 A 
ATOM     10  N   UNL     1      -2.187  12.939  20.125  0.00  0.00    +0.000 N 
ATOM     11  C   UNL     1      -1.367  11.803  20.300  0.00  0.00    +0.000 C 
ATOM     12  O   UNL     1      -0.817  11.544  21.371  0.00  0.00    +0.000 OA
ATOM     13  C   UNL     1      -1.053  11.040  18.995  0.00  0.00    +0.000 C 
ENDROOT
BRANCH  13  14
ATOM     14  N   UNL     1      -0.129   9.937  19.288  0.00  0.00    +0.000 N 
ATOM     15  C   UNL     1       1.198   9.997  18.912  0.00  0.00    +0.000 C 
ATOM     16  O   UNL     1       1.661  10.985  18.344  0.00  0.00    +0.000 OA
ATOM     17  H   UNL     1      -0.476   9.146  19.821  0.00  0.00    +0.000 HD
BRANCH  15  18
ATOM     18  C   UNL     1       2.004   8.722  19.147  0.00  0.00    +0.000 C 
BRANCH  18  19
ATOM     19  S   UNL     1       1.423   8.003  20.741  0.00  0.00    +0.000 S 
ATOM     20  H   UNL     1       2.305   8.651  21.520  0.00  0.00    +0.000 HD
ENDBRANCH  18  19
BRANCH  18  21
ATOM     21  C   UNL     1       1.798   7.763  17.963  0.00  0.00    +0.000 C 
BRANCH  21  22
ATOM     22  C   UNL     1       2.688   6.541  17.948  0.00  0.00    +0.000 A 
ATOM     23  C   UNL     1       4.079   6.696  17.848  0.00  0.00    +0.000 A 
ATOM     24  C   UNL     1       4.917   5.582  17.807  0.00  0.00    +0.000 A 
ATOM     25  C   UNL     1       4.374   4.301  17.873  0.00  0.00    +0.000 A 
ATOM     26  C   UNL     1       2.996   4.135  17.994  0.00  0.00    +0.000 A 
ATOM     27  C   UNL     1       2.156   5.249  18.039  0.00  0.00    +0.000 A 
ENDBRANCH  21  22
ENDBRANCH  18  21
ENDBRANCH  15  18
ENDBRANCH  13  14
BRANCH  10  28
ATOM     28  C   UNL     1      -1.825  14.113  20.930  0.00  0.00    +0.000 C 
BRANCH  28  29
ATOM     29  C   UNL     1      -0.698  14.884  20.241  0.00  0.00    +0.000 C 
ATOM     30  O   UNL     1       0.199  15.456  20.847  0.00  0.00    +0.000 OA
BRANCH  29  31
ATOM     31  O   UNL     1      -0.843  15.011  18.900  0.00  0.00    +0.000 OA
ATOM     32  H   UNL     1      -1.757  15.249  18.651  0.00  0.00    +0.000 HD
ENDBRANCH  29  31
ENDBRANCH  28  29
ENDBRANCH  10  28
TORSDOF 8
ENDMDL
MODEL 5
REMARK VINA RESULT:      -6.6      1.331      1.671
REMARK  Name = 
REMARK  9 active torsions:
REMARK  status: ('A' for Active; 'I' for Inactive)
REMARK    1  A    between atoms: C_1  and  C_2
REMARK    2  A    between atoms: N_10  and  C_11
REMARK    3  A    between atoms: C_11  and  C_12
REMARK    4  A    between atoms: C_12  and  O_14
REMARK    5  A    between atoms: C_17  and  N_18
REMARK    6  A    between atoms: C_19  and  C_21
REMARK    7  A    between atoms: C_21  and  S_22
REMARK    8  A    between atoms: C_21  and  C_23
REMARK    9  A    between atoms: C_23  and  C_24
REMARK                            x       y       z     vdW  Elec       q    Type
REMARK                         _______ _______ _______ _____ _____    ______ ____
ROOT
ATOM      1  C   UNL     1      -1.176   9.672  17.450  0.00  0.00    +0.000 C 
ATOM      2  C   UNL     1      -1.055  10.469  18.748  0.00  0.00    +0.000 C 
ATOM      3  O   UNL     1      -1.640  11.745  18.432  0.00  0.00    +0.000 OA
ATOM      4  C   UNL     1      -2.152  12.319  19.562  0.00  0.00    +0.000 A 
ATOM      5  C   UNL     1      -3.535  12.348  19.721  0.00  0.00    +0.000 A 
ATOM      6  C   UNL     1      -4.080  12.936  20.858  0.00  0.00    +0.000 A 
ATOM      7  C   UNL     1      -3.243  13.515  21.812  0.00  0.00    +0.000 A 
ATOM      8  C   UNL     1      -1.855  13.524  21.624  0.00  0.00    +0.000 A 
ATOM      9  C   UNL     1      -1.297  12.918  20.491  0.00  0.00    +0.000 A 
ATOM     10  N   UNL     1       0.114  12.829  20.274  0.00  0.00    +0.000 N 
ATOM     11  C   UNL     1       0.609  11.516  20.428  0.00  0.00    +0.000 C 
ATOM     12  O   UNL     1       1.284  11.173  21.398  0.00  0.00    +0.000 OA
ATOM     13  C   UNL     1       0.413  10.616  19.188  0.00  0.00    +0.000 C 
ENDROOT
BRANCH  13  14
ATOM     14  N   UNL     1       1.039   9.311  19.432  0.00  0.00    +0.000 N 
ATOM     15  C   UNL     1       1.954   8.780  18.545  0.00  0.00    +0.000 C 
ATOM     16  O   UNL     1       2.298   9.391  17.534  0.00  0.00    +0.000 OA
ATOM     17  H   UNL     1       0.824   8.826  20.297  0.00  0.00    +0.000 HD
BRANCH  15  18
ATOM     18  C   UNL     1       2.411   7.355  18.848  0.00  0.00    +0.000 C 
BRANCH  18  19
ATOM     19  S   UNL     1       1.762   6.924  20.518  0.00  0.00    +0.000 S 
ATOM     20  H   UNL     1       1.824   8.169  21.020  0.00  0.00    +0.000 HD
ENDBRANCH  18  19
BRANCH  18  21
ATOM     21  C   UNL     1       1.887   6.408  17.755  0.00  0.00    +0.000 C 
BRANCH  21  22
ATOM     22  C   UNL     1       2.383   4.982  17.833  0.00  0.00    +0.000 A 
ATOM     23  C   UNL     1       1.477   3.943  18.093  0.00  0.00    +0.000 A 
ATOM     24  C   UNL     1       1.918   2.624  18.193  0.00  0.00    +0.000 A 
ATOM     25  C   UNL     1       3.268   2.328  18.029  0.00  0.00    +0.000 A 
ATOM     26  C   UNL     1       4.175   3.349  17.750  0.00  0.00    +0.000 A 
ATOM     27  C   UNL     1       3.735   4.670  17.644  0.00  0.00    +0.000 A 
ENDBRANCH  21  22
ENDBRANCH  18  21
ENDBRANCH  15  18
ENDBRANCH  13  14
BRANCH  10  28
ATOM     28  C   UNL     1       0.949  13.893  20.849  0.00  0.00    +0.000 C 
BRANCH  28  29
ATOM     29  C   UNL     1       2.063  14.263  19.868  0.00  0.00    +0.000 C 
ATOM     30  O   UNL     1       1.862  14.556  18.696  0.00  0.00    +0.000 OA
BRANCH  29  31
ATOM     31  O   UNL     1       3.316  14.102  20.356  0.00  0.00    +0.000 OA
ATOM     32  H   UNL     1       3.980  14.594  19.834  0.00  0.00    +0.000 HD
ENDBRANCH  29  31
ENDBRANCH  28  29
ENDBRANCH  10  28
TORSDOF 8
ENDMDL
MODEL 6
REMARK VINA RESULT:      -6.6      2.294      3.063
REMARK  Name = 
REMARK  9 active torsions:
REMARK  status: ('A' for Active; 'I' for Inactive)
REMARK    1  A    between atoms: C_1  and  C_2
REMARK    2  A    between atoms: N_10  and  C_11
REMARK    3  A    between atoms: C_11  and  C_12
REMARK    4  A    between atoms: C_12  and  O_14
REMARK    5  A    between atoms: C_17  and  N_18
REMARK    6  A    between atoms: C_19  and  C_21
REMARK    7  A    between atoms: C_21  and  S_22
REMARK    8  A    between atoms: C_21  and  C_23
REMARK    9  A    between atoms: C_23  and  C_24
REMARK                            x       y       z     vdW  Elec       q    Type
REMARK                         _______ _______ _______ _____ _____    ______ ____
ROOT
ATOM      1  C   UNL     1      -2.104  10.028  16.833  0.00  0.00    +0.000 C 
ATOM      2  C   UNL     1      -2.502  10.615  18.187  0.00  0.00    +0.000 C 
ATOM      3  O   UNL     1      -3.403  11.686  17.854  0.00  0.00    +0.000 OA
ATOM      4  C   UNL     1      -4.281  11.896  18.881  0.00  0.00    +0.000 A 
ATOM      5  C   UNL     1      -5.599  11.480  18.720  0.00  0.00    +0.000 A 
ATOM      6  C   UNL     1      -6.514  11.693  19.747  0.00  0.00    +0.000 A 
ATOM      7  C   UNL     1      -6.112  12.344  20.913  0.00  0.00    +0.000 A 
ATOM      8  C   UNL     1      -4.795  12.803  21.050  0.00  0.00    +0.000 A 
ATOM      9  C   UNL     1      -3.864  12.576  20.029  0.00  0.00    +0.000 A 
ATOM     10  N   UNL     1      -2.489  12.954  20.135  0.00  0.00    +0.000 N 
ATOM     11  C   UNL     1      -1.628  11.845  20.286  0.00  0.00    +0.000 C 
ATOM     12  O   UNL     1      -1.075  11.579  21.353  0.00  0.00    +0.000 OA
ATOM     13  C   UNL     1      -1.276  11.131  18.963  0.00  0.00    +0.000 C 
ENDROOT
BRANCH  13  14
ATOM     14  N   UNL     1      -0.314  10.056  19.233  0.00  0.00    +0.000 N 
ATOM     15  C   UNL     1       1.033  10.221  18.977  0.00  0.00    +0.000 C 
ATOM     16  O   UNL     1       1.479  11.281  18.540  0.00  0.00    +0.000 OA
ATOM     17  H   UNL     1      -0.652   9.201  19.663  0.00  0.00    +0.000 HD
BRANCH  15  18
ATOM     18  C   UNL     1       1.894   8.974  19.165  0.00  0.00    +0.000 C 
BRANCH  18  19
ATOM     19  S   UNL     1       1.353   8.177  20.735  0.00  0.00    +0.000 S 
ATOM     20  H   UNL     1       1.835   9.129  21.552  0.00  0.00    +0.000 HD
ENDBRANCH  18  19
BRANCH  18  21
ATOM     21  C   UNL     1       1.721   8.047  17.949  0.00  0.00    +0.000 C 
BRANCH  21  22
ATOM     22  C   UNL     1       2.724   6.921  17.838  0.00  0.00    +0.000 A 
ATOM     23  C   UNL     1       2.314   5.601  18.077  0.00  0.00    +0.000 A 
ATOM     24  C   UNL     1       3.228   4.550  18.004  0.00  0.00    +0.000 A 
ATOM     25  C   UNL     1       4.560   4.806  17.688  0.00  0.00    +0.000 A 
ATOM     26  C   UNL     1       4.973   6.112  17.428  0.00  0.00    +0.000 A 
ATOM     27  C   UNL     1       4.059   7.165  17.495  0.00  0.00    +0.000 A 
ENDBRANCH  21  22
ENDBRANCH  18  21
ENDBRANCH  15  18
ENDBRANCH  13  14
BRANCH  10  28
ATOM     28  C   UNL     1      -2.176  14.119  20.974  0.00  0.00    +0.000 C 
BRANCH  28  29
ATOM     29  C   UNL     1      -1.253  15.072  20.212  0.00  0.00    +0.000 C 
ATOM     30  O   UNL     1      -0.031  14.992  20.235  0.00  0.00    +0.000 OA
BRANCH  29  31
ATOM     31  O   UNL     1      -1.887  16.111  19.617  0.00  0.00    +0.000 OA
ATOM     32  H   UNL     1      -1.798  16.938  20.130  0.00  0.00    +0.000 HD
ENDBRANCH  29  31
ENDBRANCH  28  29
ENDBRANCH  10  28
TORSDOF 8
ENDMDL
MODEL 7
REMARK VINA RESULT:      -6.4      4.480      9.195
REMARK  Name = 
REMARK  9 active torsions:
REMARK  status: ('A' for Active; 'I' for Inactive)
REMARK    1  A    between atoms: C_1  and  C_2
REMARK    2  A    between atoms: N_10  and  C_11
REMARK    3  A    between atoms: C_11  and  C_12
REMARK    4  A    between atoms: C_12  and  O_14
REMARK    5  A    between atoms: C_17  and  N_18
REMARK    6  A    between atoms: C_19  and  C_21
REMARK    7  A    between atoms: C_21  and  S_22
REMARK    8  A    between atoms: C_21  and  C_23
REMARK    9  A    between atoms: C_23  and  C_24
REMARK                            x       y       z     vdW  Elec       q    Type
REMARK                         _______ _______ _______ _____ _____    ______ ____
ROOT
ATOM      1  C   UNL     1       2.076   4.104  17.403  0.00  0.00    +0.000 C 
ATOM      2  C   UNL     1       3.367   4.796  16.968  0.00  0.00    +0.000 C 
ATOM      3  O   UNL     1       4.296   3.714  16.775  0.00  0.00    +0.000 OA
ATOM      4  C   UNL     1       5.239   4.066  15.848  0.00  0.00    +0.000 A 
ATOM      5  C   UNL     1       5.166   3.495  14.581  0.00  0.00    +0.000 A 
ATOM      6  C   UNL     1       6.120   3.829  13.625  0.00  0.00    +0.000 A 
ATOM      7  C   UNL     1       7.153   4.707  13.950  0.00  0.00    +0.000 A 
ATOM      8  C   UNL     1       7.248   5.242  15.241  0.00  0.00    +0.000 A 
ATOM      9  C   UNL     1       6.282   4.925  16.203  0.00  0.00    +0.000 A 
ATOM     10  N   UNL     1       6.279   5.492  17.517  0.00  0.00    +0.000 N 
ATOM     11  C   UNL     1       5.235   6.423  17.708  0.00  0.00    +0.000 C 
ATOM     12  O   UNL     1       5.435   7.636  17.773  0.00  0.00    +0.000 OA
ATOM     13  C   UNL     1       3.869   5.784  18.037  0.00  0.00    +0.000 C 
ENDROOT
BRANCH  13  14
ATOM     14  N   UNL     1       2.887   6.844  18.299  0.00  0.00    +0.000 N 
ATOM     15  C   UNL     1       2.339   7.018  19.554  0.00  0.00    +0.000 C 
ATOM     16  O   UNL     1       2.672   6.310  20.504  0.00  0.00    +0.000 OA
ATOM     17  H   UNL     1       2.656   7.484  17.546  0.00  0.00    +0.000 HD
BRANCH  15  18
ATOM     18  C   UNL     1       1.226   8.059  19.645  0.00  0.00    +0.000 C 
BRANCH  18  19
ATOM     19  S   UNL     1       1.171   8.638  21.394  0.00  0.00    +0.000 S 
ATOM     20  H   UNL     1       0.126   9.467  21.236  0.00  0.00    +0.000 HD
ENDBRANCH  18  19
BRANCH  18  21
ATOM     21  C   UNL     1       1.517   9.204  18.660  0.00  0.00    +0.000 C 
BRANCH  21  22
ATOM     22  C   UNL     1       0.380  10.174  18.432  0.00  0.00    +0.000 A 
ATOM     23  C   UNL     1      -0.796   9.732  17.807  0.00  0.00    +0.000 A 
ATOM     24  C   UNL     1      -1.846  10.617  17.565  0.00  0.00    +0.000 A 
ATOM     25  C   UNL     1      -1.735  11.951  17.949  0.00  0.00    +0.000 A 
ATOM     26  C   UNL     1      -0.580  12.396  18.589  0.00  0.00    +0.000 A 
ATOM     27  C   UNL     1       0.471  11.511  18.837  0.00  0.00    +0.000 A 
ENDBRANCH  21  22
ENDBRANCH  18  21
ENDBRANCH  15  18
ENDBRANCH  13  14
BRANCH  10  28
ATOM     28  C   UNL     1       7.580   5.872  18.085  0.00  0.00    +0.000 C 
BRANCH  28  29
ATOM     29  C   UNL     1       7.674   5.384  19.532  0.00  0.00    +0.000 C 
ATOM     30  O   UNL     1       6.697   5.162  20.236  0.00  0.00    +0.000 OA
BRANCH  29  31
ATOM     31  O   UNL     1       8.933   5.350  20.031  0.00  0.00    +0.000 OA
ATOM     32  H   UNL     1       9.298   6.246  20.167  0.00  0.00    +0.000 HD
ENDBRANCH  29  31
ENDBRANCH  28  29
ENDBRANCH  10  28
TORSDOF 8
ENDMDL
MODEL 8
REMARK VINA RESULT:      -6.3      2.790      4.758
REMARK  Name = 
REMARK  9 active torsions:
REMARK  status: ('A' for Active; 'I' for Inactive)
REMARK    1  A    between atoms: C_1  and  C_2
REMARK    2  A    between atoms: N_10  and  C_11
REMARK    3  A    between atoms: C_11  and  C_12
REMARK    4  A    between atoms: C_12  and  O_14
REMARK    5  A    between atoms: C_17  and  N_18
REMARK    6  A    between atoms: C_19  and  C_21
REMARK    7  A    between atoms: C_21  and  S_22
REMARK    8  A    between atoms: C_21  and  C_23
REMARK    9  A    between atoms: C_23  and  C_24
REMARK                            x       y       z     vdW  Elec       q    Type
REMARK                         _______ _______ _______ _____ _____    ______ ____
ROOT
ATOM      1  C   UNL     1       1.321   8.982  22.387  0.00  0.00    +0.000 C 
ATOM      2  C   UNL     1       1.241   9.768  21.079  0.00  0.00    +0.000 C 
ATOM      3  O   UNL     1       0.142  10.674  21.281  0.00  0.00    +0.000 OA
ATOM      4  C   UNL     1       0.315  11.798  20.521  0.00  0.00    +0.000 A 
ATOM      5  C   UNL     1       0.682  12.979  21.160  0.00  0.00    +0.000 A 
ATOM      6  C   UNL     1       0.854  14.138  20.409  0.00  0.00    +0.000 A 
ATOM      7  C   UNL     1       0.630  14.114  19.032  0.00  0.00    +0.000 A 
ATOM      8  C   UNL     1       0.215  12.935  18.402  0.00  0.00    +0.000 A 
ATOM      9  C   UNL     1       0.058  11.760  19.148  0.00  0.00    +0.000 A 
ATOM     10  N   UNL     1      -0.293  10.506  18.555  0.00  0.00    +0.000 N 
ATOM     11  C   UNL     1       0.780   9.589  18.541  0.00  0.00    +0.000 C 
ATOM     12  O   UNL     1       1.381   9.291  17.509  0.00  0.00    +0.000 OA
ATOM     13  C   UNL     1       0.992   8.841  19.875  0.00  0.00    +0.000 C 
ENDROOT
BRANCH  13  14
ATOM     14  N   UNL     1       2.072   7.859  19.715  0.00  0.00    +0.000 N 
ATOM     15  C   UNL     1       1.893   6.536  20.066  0.00  0.00    +0.000 C 
ATOM     16  O   UNL     1       0.817   6.126  20.498  0.00  0.00    +0.000 OA
ATOM     17  H   UNL     1       2.942   8.163  19.290  0.00  0.00    +0.000 HD
BRANCH  15  18
ATOM     18  C   UNL     1       3.142   5.661  19.985  0.00  0.00    +0.000 C 
BRANCH  18  19
ATOM     19  S   UNL     1       2.665   3.983  20.577  0.00  0.00    +0.000 S 
ATOM     20  H   UNL     1       3.703   3.335  20.021  0.00  0.00    +0.000 HD
ENDBRANCH  18  19
BRANCH  18  21
ATOM     21  C   UNL     1       3.661   5.645  18.537  0.00  0.00    +0.000 C 
BRANCH  21  22
ATOM     22  C   UNL     1       5.125   5.976  18.363  0.00  0.00    +0.000 A 
ATOM     23  C   UNL     1       6.076   5.388  19.211  0.00  0.00    +0.000 A 
ATOM     24  C   UNL     1       7.429   5.700  19.085  0.00  0.00    +0.000 A 
ATOM     25  C   UNL     1       7.848   6.598  18.106  0.00  0.00    +0.000 A 
ATOM     26  C   UNL     1       6.915   7.172  17.245  0.00  0.00    +0.000 A 
ATOM     27  C   UNL     1       5.560   6.858  17.367  0.00  0.00    +0.000 A 
ENDBRANCH  21  22
ENDBRANCH  18  21
ENDBRANCH  15  18
ENDBRANCH  13  14
BRANCH  10  28
ATOM     28  C   UNL     1      -1.109  10.546  17.334  0.00  0.00    +0.000 C 
BRANCH  28  29
ATOM     29  C   UNL     1      -2.589  10.671  17.705  0.00  0.00    +0.000 C 
ATOM     30  O   UNL     1      -3.304   9.711  17.962  0.00  0.00    +0.000 OA
BRANCH  29  31
ATOM     31  O   UNL     1      -3.092  11.923  17.588  0.00  0.00    +0.000 OA
ATOM     32  H   UNL     1      -2.604  12.455  16.930  0.00  0.00    +0.000 HD
ENDBRANCH  29  31
ENDBRANCH  28  29
ENDBRANCH  10  28
TORSDOF 8
ENDMDL
MODEL 9
REMARK VINA RESULT:      -6.2      2.758      7.835
REMARK  Name = 
REMARK  9 active torsions:
REMARK  status: ('A' for Active; 'I' for Inactive)
REMARK    1  A    between atoms: C_1  and  C_2
REMARK    2  A    between atoms: N_10  and  C_11
REMARK    3  A    between atoms: C_11  and  C_12
REMARK    4  A    between atoms: C_12  and  O_14
REMARK    5  A    between atoms: C_17  and  N_18
REMARK    6  A    between atoms: C_19  and  C_21
REMARK    7  A    between atoms: C_21  and  S_22
REMARK    8  A    between atoms: C_21  and  C_23
REMARK    9  A    between atoms: C_23  and  C_24
REMARK                            x       y       z     vdW  Elec       q    Type
REMARK                         _______ _______ _______ _____ _____    ______ ____
ROOT
ATOM      1  C   UNL     1       0.531   8.194  21.951  0.00  0.00    +0.000 C 
ATOM      2  C   UNL     1       0.929   7.570  20.614  0.00  0.00    +0.000 C 
ATOM      3  O   UNL     1       1.798   6.482  20.980  0.00  0.00    +0.000 OA
ATOM      4  C   UNL     1       1.746   5.501  20.029  0.00  0.00    +0.000 A 
ATOM      5  C   UNL     1       1.064   4.325  20.329  0.00  0.00    +0.000 A 
ATOM      6  C   UNL     1       1.006   3.308  19.382  0.00  0.00    +0.000 A 
ATOM      7  C   UNL     1       1.653   3.461  18.156  0.00  0.00    +0.000 A 
ATOM      8  C   UNL     1       2.377   4.627  17.878  0.00  0.00    +0.000 A 
ATOM      9  C   UNL     1       2.425   5.663  18.819  0.00  0.00    +0.000 A 
ATOM     10  N   UNL     1       3.086   6.907  18.571  0.00  0.00    +0.000 N 
ATOM     11  C   UNL     1       2.184   7.979  18.391  0.00  0.00    +0.000 C 
ATOM     12  O   UNL     1       1.976   8.490  17.290  0.00  0.00    +0.000 OA
ATOM     13  C   UNL     1       1.649   8.584  19.707  0.00  0.00    +0.000 C 
ENDROOT
BRANCH  13  14
ATOM     14  N   UNL     1       0.794   9.737  19.398  0.00  0.00    +0.000 N 
ATOM     15  C   UNL     1       0.827  10.879  20.173  0.00  0.00    +0.000 C 
ATOM     16  O   UNL     1       1.591  10.983  21.132  0.00  0.00    +0.000 OA
ATOM     17  H   UNL     1       0.211   9.698  18.568  0.00  0.00    +0.000 HD
BRANCH  15  18
ATOM     18  C   UNL     1      -0.218  11.938  19.826  0.00  0.00    +0.000 C 
BRANCH  18  19
ATOM     19  S   UNL     1       0.562  13.581  20.117  0.00  0.00    +0.000 S 
ATOM     20  H   UNL     1       1.817  13.121  20.255  0.00  0.00    +0.000 HD
ENDBRANCH  18  19
BRANCH  18  21
ATOM     21  C   UNL     1      -0.665  11.753  18.366  0.00  0.00    +0.000 C 
BRANCH  21  22
ATOM     22  C   UNL     1      -2.159  11.677  18.145  0.00  0.00    +0.000 A 
ATOM     23  C   UNL     1      -2.657  11.272  16.897  0.00  0.00    +0.000 A 
ATOM     24  C   UNL     1      -4.031  11.220  16.664  0.00  0.00    +0.000 A 
ATOM     25  C   UNL     1      -4.922  11.565  17.677  0.00  0.00    +0.000 A 
ATOM     26  C   UNL     1      -4.439  11.948  18.927  0.00  0.00    +0.000 A 
ATOM     27  C   UNL     1      -3.064  11.997  19.164  0.00  0.00    +0.000 A 
ENDBRANCH  21  22
ENDBRANCH  18  21
ENDBRANCH  15  18
ENDBRANCH  13  14
BRANCH  10  28
ATOM     28  C   UNL     1       4.234   6.885  17.655  0.00  0.00    +0.000 C 
BRANCH  28  29
ATOM     29  C   UNL     1       5.248   5.839  18.123  0.00  0.00    +0.000 C 
ATOM     30  O   UNL     1       5.640   5.748  19.279  0.00  0.00    +0.000 OA
BRANCH  29  31
ATOM     31  O   UNL     1       5.795   5.103  17.126  0.00  0.00    +0.000 OA
ATOM     32  H   UNL     1       5.898   4.164  17.376  0.00  0.00    +0.000 HD
ENDBRANCH  29  31
ENDBRANCH  28  29
ENDBRANCH  10  28
TORSDOF 8
ENDMDL
