MODEL 1
REMARK VINA RESULT:      -7.9      0.000      0.000
REMARK  Name = 
REMARK  9 active torsions:
REMARK  status: ('A' for Active; 'I' for Inactive)
REMARK    1  A    between atoms: N_1  and  S_2
REMARK    2  A    between atoms: S_2  and  C_5
REMARK    3  A    between atoms: C_8  and  C_9
REMARK    4  A    between atoms: N_11  and  CA_12
REMARK    5  A    between atoms: CA_12  and  C_13
REMARK    6  A    between atoms: CA_12  and  C_23
REMARK    7  A    between atoms: C_13  and  C_14
REMARK    8  A    between atoms: C_17  and  N_18
REMARK    9  A    between atoms: C_23  and  OXT_25
REMARK                            x       y       z     vdW  Elec       q    Type
REMARK                         _______ _______ _______ _____ _____    ______ ____
ROOT
ATOM      1  C   UNL     1       7.903   7.813  18.124  0.00  0.00    +0.000 C 
ATOM      2  O   UNL     1       8.452   6.981  18.835  0.00  0.00    +0.000 OA
ATOM      3  N   UNL     1       6.899   7.493  17.245  0.00  0.00    +0.000 N 
ATOM      4  H   UNL     1       6.562   8.171  16.567  0.00  0.00    +0.000 HD
ENDROOT
BRANCH   1   8
ATOM      5  C   UNL     1       9.174  11.903  18.272  0.00  0.00    +0.000 A 
ATOM      6  C   UNL     1       9.768  10.955  19.108  0.00  0.00    +0.000 A 
ATOM      7  C   UNL     1       9.329   9.628  19.059  0.00  0.00    +0.000 A 
ATOM      8  C   UNL     1       8.306   9.249  18.177  0.00  0.00    +0.000 A 
ATOM      9  C   UNL     1       7.677  10.225  17.388  0.00  0.00    +0.000 A 
ATOM     10  C   UNL     1       8.115  11.551  17.431  0.00  0.00    +0.000 A 
BRANCH   5  11
ATOM     11  S   UNL     1       9.789  13.561  18.236  0.00  0.00    +0.000 S 
ATOM     12  O   UNL     1      10.690  13.747  19.350  0.00  0.00    +0.000 OA
ATOM     13  O   UNL     1       8.704  14.470  17.947  0.00  0.00    +0.000 OA
BRANCH  11  14
ATOM     14  N   UNL     1      10.738  13.546  16.851  0.00  0.00    +0.000 NA
ATOM     15  H   UNL     1      10.598  12.669  16.349  0.00  0.00    +0.000 HD
ATOM     16  H   UNL     1      11.714  13.730  17.090  0.00  0.00    +0.000 HD
ENDBRANCH  11  14
ENDBRANCH   5  11
ENDBRANCH   1   8
BRANCH   3  17
ATOM     17  CA  UNL     1       6.325   6.148  17.126  0.00  0.00    +0.000 C 
BRANCH  17  18
ATOM     18  C   UNL     1       7.280   5.342  16.226  0.00  0.00    +0.000 C 
ATOM     19  O   UNL     1       7.342   5.487  15.006  0.00  0.00    +0.000 OA
BRANCH  18  20
ATOM     20  OXT UNL     1       8.077   4.465  16.877  0.00  0.00    +0.000 OA
ATOM     21  HXT UNL     1       7.757   3.543  16.901  0.00  0.00    +0.000 HD
ENDBRANCH  18  20
ENDBRANCH  17  18
BRANCH  17  22
ATOM     22  C   UNL     1       4.879   6.153  16.583  0.00  0.00    +0.000 C 
BRANCH  22  23
ATOM     23  C   UNL     1       3.956   5.246  17.368  0.00  0.00    +0.000 A 
ATOM     24  C   UNL     1       3.733   3.928  16.946  0.00  0.00    +0.000 A 
ATOM     25  C   UNL     1       2.738   3.153  17.544  0.00  0.00    +0.000 A 
ATOM     26  C   UNL     1       1.972   3.698  18.582  0.00  0.00    +0.000 A 
ATOM     27  C   UNL     1       2.231   4.989  19.059  0.00  0.00    +0.000 A 
ATOM     28  C   UNL     1       3.229   5.755  18.455  0.00  0.00    +0.000 A 
BRANCH  26  29
ATOM     29  N   UNL     1       0.865   2.924  19.145  0.00  0.00    +0.000 N 
ATOM     30  O   UNL     1       0.588   3.094  20.341  0.00  0.00    +0.000 OA
ATOM     31  O   UNL     1       0.277   2.126  18.396  0.00  0.00    +0.000 OA
ENDBRANCH  26  29
ENDBRANCH  22  23
ENDBRANCH  17  22
ENDBRANCH   3  17
TORSDOF 9
ENDMDL
MODEL 2
REMARK VINA RESULT:      -7.8      5.390      7.609
REMARK  Name = 
REMARK  9 active torsions:
REMARK  status: ('A' for Active; 'I' for Inactive)
REMARK    1  A    between atoms: N_1  and  S_2
REMARK    2  A    between atoms: S_2  and  C_5
REMARK    3  A    between atoms: C_8  and  C_9
REMARK    4  A    between atoms: N_11  and  CA_12
REMARK    5  A    between atoms: CA_12  and  C_13
REMARK    6  A    between atoms: CA_12  and  C_23
REMARK    7  A    between atoms: C_13  and  C_14
REMARK    8  A    between atoms: C_17  and  N_18
REMARK    9  A    between atoms: C_23  and  OXT_25
REMARK                            x       y       z     vdW  Elec       q    Type
REMARK                         _______ _______ _______ _____ _____    ______ ____
ROOT
ATOM      1  C   UNL     1       2.212   7.052  19.195  0.00  0.00    +0.000 C 
ATOM      2  O   UNL     1       2.084   6.904  17.986  0.00  0.00    +0.000 OA
ATOM      3  N   UNL     1       2.919   6.176  19.979  0.00  0.00    +0.000 N 
ATOM      4  H   UNL     1       2.889   6.243  20.993  0.00  0.00    +0.000 HD
ENDROOT
BRANCH   1   8
ATOM      5  C   UNL     1       0.358  10.410  21.106  0.00  0.00    +0.000 A 
ATOM      6  C   UNL     1       0.692  10.472  19.752  0.00  0.00    +0.000 A 
ATOM      7  C   UNL     1       1.313   9.374  19.147  0.00  0.00    +0.000 A 
ATOM      8  C   UNL     1       1.594   8.218  19.891  0.00  0.00    +0.000 A 
ATOM      9  C   UNL     1       1.308   8.194  21.265  0.00  0.00    +0.000 A 
ATOM     10  C   UNL     1       0.685   9.287  21.871  0.00  0.00    +0.000 A 
BRANCH   5  11
ATOM     11  S   UNL     1      -0.528  11.742  21.861  0.00  0.00    +0.000 S 
ATOM     12  O   UNL     1      -0.647  11.478  23.276  0.00  0.00    +0.000 OA
ATOM     13  O   UNL     1      -1.657  12.097  21.033  0.00  0.00    +0.000 OA
BRANCH  11  14
ATOM     14  N   UNL     1       0.559  13.011  21.700  0.00  0.00    +0.000 NA
ATOM     15  H   UNL     1       1.271  12.768  21.012  0.00  0.00    +0.000 HD
ATOM     16  H   UNL     1       0.941  13.265  22.613  0.00  0.00    +0.000 HD
ENDBRANCH  11  14
ENDBRANCH   5  11
ENDBRANCH   1   8
BRANCH   3  17
ATOM     17  CA  UNL     1       3.658   5.026  19.446  0.00  0.00    +0.000 C 
BRANCH  17  18
ATOM     18  C   UNL     1       3.241   3.808  20.290  0.00  0.00    +0.000 C 
ATOM     19  O   UNL     1       3.732   2.689  20.148  0.00  0.00    +0.000 OA
BRANCH  18  20
ATOM     20  OXT UNL     1       2.300   4.056  21.228  0.00  0.00    +0.000 OA
ATOM     21  HXT UNL     1       2.615   4.053  22.152  0.00  0.00    +0.000 HD
ENDBRANCH  18  20
ENDBRANCH  17  18
BRANCH  17  22
ATOM     22  C   UNL     1       5.188   5.238  19.446  0.00  0.00    +0.000 C 
BRANCH  22  23
ATOM     23  C   UNL     1       5.770   5.302  18.050  0.00  0.00    +0.000 A 
ATOM     24  C   UNL     1       5.037   5.880  17.004  0.00  0.00    +0.000 A 
ATOM     25  C   UNL     1       5.478   5.766  15.685  0.00  0.00    +0.000 A 
ATOM     26  C   UNL     1       6.669   5.081  15.415  0.00  0.00    +0.000 A 
ATOM     27  C   UNL     1       7.446   4.559  16.456  0.00  0.00    +0.000 A 
ATOM     28  C   UNL     1       6.996   4.680  17.772  0.00  0.00    +0.000 A 
BRANCH  26  29
ATOM     29  N   UNL     1       7.084   4.876  14.025  0.00  0.00    +0.000 N 
ATOM     30  O   UNL     1       6.490   4.012  13.365  0.00  0.00    +0.000 OA
ATOM     31  O   UNL     1       8.020   5.568  13.593  0.00  0.00    +0.000 OA
ENDBRANCH  26  29
ENDBRANCH  22  23
ENDBRANCH  17  22
ENDBRANCH   3  17
TORSDOF 9
ENDMDL
MODEL 3
REMARK VINA RESULT:      -7.7      5.040      7.598
REMARK  Name = 
REMARK  9 active torsions:
REMARK  status: ('A' for Active; 'I' for Inactive)
REMARK    1  A    between atoms: N_1  and  S_2
REMARK    2  A    between atoms: S_2  and  C_5
REMARK    3  A    between atoms: C_8  and  C_9
REMARK    4  A    between atoms: N_11  and  CA_12
REMARK    5  A    between atoms: CA_12  and  C_13
REMARK    6  A    between atoms: CA_12  and  C_23
REMARK    7  A    between atoms: C_13  and  C_14
REMARK    8  A    between atoms: C_17  and  N_18
REMARK    9  A    between atoms: C_23  and  OXT_25
REMARK                            x       y       z     vdW  Elec       q    Type
REMARK                         _______ _______ _______ _____ _____    ______ ____
ROOT
ATOM      1  C   UNL     1       2.236   7.283  19.210  0.00  0.00    +0.000 C 
ATOM      2  O   UNL     1       2.642   7.391  18.059  0.00  0.00    +0.000 OA
ATOM      3  N   UNL     1       2.413   6.145  19.956  0.00  0.00    +0.000 N 
ATOM      4  H   UNL     1       1.944   6.029  20.850  0.00  0.00    +0.000 HD
ENDROOT
BRANCH   1   8
ATOM      5  C   UNL     1       0.247  10.514  21.202  0.00  0.00    +0.000 A 
ATOM      6  C   UNL     1       0.641   9.384  21.922  0.00  0.00    +0.000 A 
ATOM      7  C   UNL     1       1.274   8.331  21.253  0.00  0.00    +0.000 A 
ATOM      8  C   UNL     1       1.515   8.408  19.873  0.00  0.00    +0.000 A 
ATOM      9  C   UNL     1       1.057   9.523  19.153  0.00  0.00    +0.000 A 
ATOM     10  C   UNL     1       0.428  10.578  19.818  0.00  0.00    +0.000 A 
BRANCH   5  11
ATOM     11  S   UNL     1      -0.452  11.902  22.046  0.00  0.00    +0.000 S 
ATOM     12  O   UNL     1       0.436  13.031  21.900  0.00  0.00    +0.000 OA
ATOM     13  O   UNL     1      -0.971  11.474  23.325  0.00  0.00    +0.000 OA
BRANCH  11  14
ATOM     14  N   UNL     1      -1.804  12.231  21.106  0.00  0.00    +0.000 NA
ATOM     15  H   UNL     1      -1.511  12.532  20.177  0.00  0.00    +0.000 HD
ATOM     16  H   UNL     1      -2.409  12.902  21.581  0.00  0.00    +0.000 HD
ENDBRANCH  11  14
ENDBRANCH   5  11
ENDBRANCH   1   8
BRANCH   3  17
ATOM     17  CA  UNL     1       3.172   4.980  19.488  0.00  0.00    +0.000 C 
BRANCH  17  18
ATOM     18  C   UNL     1       2.808   3.815  20.427  0.00  0.00    +0.000 C 
ATOM     19  O   UNL     1       2.951   2.632  20.121  0.00  0.00    +0.000 OA
BRANCH  18  20
ATOM     20  OXT UNL     1       2.333   4.182  21.638  0.00  0.00    +0.000 OA
ATOM     21  HXT UNL     1       2.382   3.500  22.334  0.00  0.00    +0.000 HD
ENDBRANCH  18  20
ENDBRANCH  17  18
BRANCH  17  22
ATOM     22  C   UNL     1       4.695   5.231  19.434  0.00  0.00    +0.000 C 
BRANCH  22  23
ATOM     23  C   UNL     1       5.230   5.288  18.020  0.00  0.00    +0.000 A 
ATOM     24  C   UNL     1       4.592   4.577  16.993  0.00  0.00    +0.000 A 
ATOM     25  C   UNL     1       5.187   4.464  15.737  0.00  0.00    +0.000 A 
ATOM     26  C   UNL     1       6.423   5.079  15.503  0.00  0.00    +0.000 A 
ATOM     27  C   UNL     1       7.038   5.849  16.498  0.00  0.00    +0.000 A 
ATOM     28  C   UNL     1       6.433   5.957  17.751  0.00  0.00    +0.000 A 
BRANCH  26  29
ATOM     29  N   UNL     1       7.096   4.881  14.218  0.00  0.00    +0.000 N 
ATOM     30  O   UNL     1       8.081   5.588  13.965  0.00  0.00    +0.000 OA
ATOM     31  O   UNL     1       6.630   4.027  13.446  0.00  0.00    +0.000 OA
ENDBRANCH  26  29
ENDBRANCH  22  23
ENDBRANCH  17  22
ENDBRANCH   3  17
TORSDOF 9
ENDMDL
MODEL 4
REMARK VINA RESULT:      -7.7      0.866      1.281
REMARK  Name = 
REMARK  9 active torsions:
REMARK  status: ('A' for Active; 'I' for Inactive)
REMARK    1  A    between atoms: N_1  and  S_2
REMARK    2  A    between atoms: S_2  and  C_5
REMARK    3  A    between atoms: C_8  and  C_9
REMARK    4  A    between atoms: N_11  and  CA_12
REMARK    5  A    between atoms: CA_12  and  C_13
REMARK    6  A    between atoms: CA_12  and  C_23
REMARK    7  A    between atoms: C_13  and  C_14
REMARK    8  A    between atoms: C_17  and  N_18
REMARK    9  A    between atoms: C_23  and  OXT_25
REMARK                            x       y       z     vdW  Elec       q    Type
REMARK                         _______ _______ _______ _____ _____    ______ ____
ROOT
ATOM      1  C   UNL     1       7.971   7.867  18.178  0.00  0.00    +0.000 C 
ATOM      2  O   UNL     1       8.473   7.039  18.928  0.00  0.00    +0.000 OA
ATOM      3  N   UNL     1       7.004   7.547  17.259  0.00  0.00    +0.000 N 
ATOM      4  H   UNL     1       6.710   8.219  16.555  0.00  0.00    +0.000 HD
ENDROOT
BRANCH   1   8
ATOM      5  C   UNL     1       9.069  12.007  18.322  0.00  0.00    +0.000 A 
ATOM      6  C   UNL     1       8.121  11.566  17.396  0.00  0.00    +0.000 A 
ATOM      7  C   UNL     1       7.787  10.209  17.350  0.00  0.00    +0.000 A 
ATOM      8  C   UNL     1       8.393   9.297  18.228  0.00  0.00    +0.000 A 
ATOM      9  C   UNL     1       9.388   9.746  19.111  0.00  0.00    +0.000 A 
ATOM     10  C   UNL     1       9.722  11.102  19.161  0.00  0.00    +0.000 A 
BRANCH   5  11
ATOM     11  S   UNL     1       9.422  13.734  18.472  0.00  0.00    +0.000 S 
ATOM     12  O   UNL     1      10.603  14.036  17.697  0.00  0.00    +0.000 OA
ATOM     13  O   UNL     1       9.266  14.137  19.850  0.00  0.00    +0.000 OA
BRANCH  11  14
ATOM     14  N   UNL     1       8.125  14.422  17.657  0.00  0.00    +0.000 NA
ATOM     15  H   UNL     1       7.255  14.181  18.132  0.00  0.00    +0.000 HD
ATOM     16  H   UNL     1       8.143  14.151  16.673  0.00  0.00    +0.000 HD
ENDBRANCH  11  14
ENDBRANCH   5  11
ENDBRANCH   1   8
BRANCH   3  17
ATOM     17  CA  UNL     1       6.416   6.209  17.135  0.00  0.00    +0.000 C 
BRANCH  17  18
ATOM     18  C   UNL     1       7.316   5.422  16.164  0.00  0.00    +0.000 C 
ATOM     19  O   UNL     1       7.444   5.714  14.976  0.00  0.00    +0.000 OA
BRANCH  18  20
ATOM     20  OXT UNL     1       7.986   4.386  16.717  0.00  0.00    +0.000 OA
ATOM     21  HXT UNL     1       7.801   3.510  16.328  0.00  0.00    +0.000 HD
ENDBRANCH  18  20
ENDBRANCH  17  18
BRANCH  17  22
ATOM     22  C   UNL     1       4.943   6.236  16.670  0.00  0.00    +0.000 C 
BRANCH  22  23
ATOM     23  C   UNL     1       4.051   5.334  17.496  0.00  0.00    +0.000 A 
ATOM     24  C   UNL     1       4.421   4.004  17.739  0.00  0.00    +0.000 A 
ATOM     25  C   UNL     1       3.519   3.115  18.325  0.00  0.00    +0.000 A 
ATOM     26  C   UNL     1       2.244   3.567  18.685  0.00  0.00    +0.000 A 
ATOM     27  C   UNL     1       1.886   4.910  18.511  0.00  0.00    +0.000 A 
ATOM     28  C   UNL     1       2.796   5.790  17.925  0.00  0.00    +0.000 A 
BRANCH  26  29
ATOM     29  N   UNL     1       1.263   2.616  19.211  0.00  0.00    +0.000 N 
ATOM     30  O   UNL     1       1.438   2.176  20.355  0.00  0.00    +0.000 OA
ATOM     31  O   UNL     1       0.319   2.290  18.472  0.00  0.00    +0.000 OA
ENDBRANCH  26  29
ENDBRANCH  22  23
ENDBRANCH  17  22
ENDBRANCH   3  17
TORSDOF 9
ENDMDL
MODEL 5
REMARK VINA RESULT:      -7.7      5.139      7.489
REMARK  Name = 
REMARK  9 active torsions:
REMARK  status: ('A' for Active; 'I' for Inactive)
REMARK    1  A    between atoms: N_1  and  S_2
REMARK    2  A    between atoms: S_2  and  C_5
REMARK    3  A    between atoms: C_8  and  C_9
REMARK    4  A    between atoms: N_11  and  CA_12
REMARK    5  A    between atoms: CA_12  and  C_13
REMARK    6  A    between atoms: CA_12  and  C_23
REMARK    7  A    between atoms: C_13  and  C_14
REMARK    8  A    between atoms: C_17  and  N_18
REMARK    9  A    between atoms: C_23  and  OXT_25
REMARK                            x       y       z     vdW  Elec       q    Type
REMARK                         _______ _______ _______ _____ _____    ______ ____
ROOT
ATOM      1  C   UNL     1       2.344   6.945  19.078  0.00  0.00    +0.000 C 
ATOM      2  O   UNL     1       2.908   7.057  17.997  0.00  0.00    +0.000 OA
ATOM      3  N   UNL     1       2.283   5.759  19.765  0.00  0.00    +0.000 N 
ATOM      4  H   UNL     1       1.689   5.660  20.584  0.00  0.00    +0.000 HD
ENDROOT
BRANCH   1   8
ATOM      5  C   UNL     1       0.513  10.308  21.003  0.00  0.00    +0.000 A 
ATOM      6  C   UNL     1       0.772   9.142  21.728  0.00  0.00    +0.000 A 
ATOM      7  C   UNL     1       1.354   8.048  21.080  0.00  0.00    +0.000 A 
ATOM      8  C   UNL     1       1.680   8.119  19.717  0.00  0.00    +0.000 A 
ATOM      9  C   UNL     1       1.357   9.275  18.989  0.00  0.00    +0.000 A 
ATOM     10  C   UNL     1       0.779  10.371  19.634  0.00  0.00    +0.000 A 
BRANCH   5  11
ATOM     11  S   UNL     1      -0.117  11.741  21.828  0.00  0.00    +0.000 S 
ATOM     12  O   UNL     1       0.791  12.842  21.608  0.00  0.00    +0.000 OA
ATOM     13  O   UNL     1      -0.592  11.368  23.141  0.00  0.00    +0.000 OA
BRANCH  11  14
ATOM     14  N   UNL     1      -1.499  12.071  20.933  0.00  0.00    +0.000 NA
ATOM     15  H   UNL     1      -2.227  11.395  21.163  0.00  0.00    +0.000 HD
ATOM     16  H   UNL     1      -1.273  12.108  19.938  0.00  0.00    +0.000 HD
ENDBRANCH  11  14
ENDBRANCH   5  11
ENDBRANCH   1   8
BRANCH   3  17
ATOM     17  CA  UNL     1       2.953   4.531  19.323  0.00  0.00    +0.000 C 
BRANCH  17  18
ATOM     18  C   UNL     1       2.323   3.376  20.122  0.00  0.00    +0.000 C 
ATOM     19  O   UNL     1       1.501   2.595  19.645  0.00  0.00    +0.000 OA
BRANCH  18  20
ATOM     20  OXT UNL     1       2.755   3.260  21.398  0.00  0.00    +0.000 OA
ATOM     21  HXT UNL     1       3.722   3.191  21.510  0.00  0.00    +0.000 HD
ENDBRANCH  18  20
ENDBRANCH  17  18
BRANCH  17  22
ATOM     22  C   UNL     1       4.488   4.586  19.489  0.00  0.00    +0.000 C 
BRANCH  22  23
ATOM     23  C   UNL     1       5.224   4.459  18.173  0.00  0.00    +0.000 A 
ATOM     24  C   UNL     1       6.563   4.859  18.070  0.00  0.00    +0.000 A 
ATOM     25  C   UNL     1       7.185   4.933  16.823  0.00  0.00    +0.000 A 
ATOM     26  C   UNL     1       6.465   4.588  15.673  0.00  0.00    +0.000 A 
ATOM     27  C   UNL     1       5.148   4.121  15.768  0.00  0.00    +0.000 A 
ATOM     28  C   UNL     1       4.536   4.051  17.020  0.00  0.00    +0.000 A 
BRANCH  26  29
ATOM     29  N   UNL     1       7.083   4.756  14.357  0.00  0.00    +0.000 N 
ATOM     30  O   UNL     1       8.005   5.576  14.250  0.00  0.00    +0.000 OA
ATOM     31  O   UNL     1       6.635   4.079  13.417  0.00  0.00    +0.000 OA
ENDBRANCH  26  29
ENDBRANCH  22  23
ENDBRANCH  17  22
ENDBRANCH   3  17
TORSDOF 9
ENDMDL
MODEL 6
REMARK VINA RESULT:      -7.6      5.138      7.532
REMARK  Name = 
REMARK  9 active torsions:
REMARK  status: ('A' for Active; 'I' for Inactive)
REMARK    1  A    between atoms: N_1  and  S_2
REMARK    2  A    between atoms: S_2  and  C_5
REMARK    3  A    between atoms: C_8  and  C_9
REMARK    4  A    between atoms: N_11  and  CA_12
REMARK    5  A    between atoms: CA_12  and  C_13
REMARK    6  A    between atoms: CA_12  and  C_23
REMARK    7  A    between atoms: C_13  and  C_14
REMARK    8  A    between atoms: C_17  and  N_18
REMARK    9  A    between atoms: C_23  and  OXT_25
REMARK                            x       y       z     vdW  Elec       q    Type
REMARK                         _______ _______ _______ _____ _____    ______ ____
ROOT
ATOM      1  C   UNL     1       2.204   7.106  19.496  0.00  0.00    +0.000 C 
ATOM      2  O   UNL     1       2.965   7.121  18.536  0.00  0.00    +0.000 OA
ATOM      3  N   UNL     1       1.906   5.960  20.189  0.00  0.00    +0.000 N 
ATOM      4  H   UNL     1       1.166   5.950  20.886  0.00  0.00    +0.000 HD
ENDROOT
BRANCH   1   8
ATOM      5  C   UNL     1       0.408  10.716  20.949  0.00  0.00    +0.000 A 
ATOM      6  C   UNL     1       0.716   9.681  21.835  0.00  0.00    +0.000 A 
ATOM      7  C   UNL     1       1.286   8.503  21.342  0.00  0.00    +0.000 A 
ATOM      8  C   UNL     1       1.551   8.360  19.972  0.00  0.00    +0.000 A 
ATOM      9  C   UNL     1       1.179   9.384  19.086  0.00  0.00    +0.000 A 
ATOM     10  C   UNL     1       0.612  10.564  19.575  0.00  0.00    +0.000 A 
BRANCH   5  11
ATOM     11  S   UNL     1      -0.209  12.255  21.565  0.00  0.00    +0.000 S 
ATOM     12  O   UNL     1      -1.393  12.614  20.821  0.00  0.00    +0.000 OA
ATOM     13  O   UNL     1       0.894  13.166  21.769  0.00  0.00    +0.000 OA
BRANCH  11  14
ATOM     14  N   UNL     1      -0.722  11.827  23.106  0.00  0.00    +0.000 NA
ATOM     15  H   UNL     1      -1.171  12.626  23.552  0.00  0.00    +0.000 HD
ATOM     16  H   UNL     1       0.057  11.441  23.642  0.00  0.00    +0.000 HD
ENDBRANCH  11  14
ENDBRANCH   5  11
ENDBRANCH   1   8
BRANCH   3  17
ATOM     17  CA  UNL     1       2.524   4.660  19.909  0.00  0.00    +0.000 C 
BRANCH  17  18
ATOM     18  C   UNL     1       1.822   3.635  20.819  0.00  0.00    +0.000 C 
ATOM     19  O   UNL     1       2.284   3.260  21.896  0.00  0.00    +0.000 OA
BRANCH  18  20
ATOM     20  OXT UNL     1       0.633   3.183  20.361  0.00  0.00    +0.000 OA
ATOM     21  HXT UNL     1      -0.048   3.865  20.211  0.00  0.00    +0.000 HD
ENDBRANCH  18  20
ENDBRANCH  17  18
BRANCH  17  22
ATOM     22  C   UNL     1       4.056   4.662  20.108  0.00  0.00    +0.000 C 
BRANCH  22  23
ATOM     23  C   UNL     1       4.815   4.460  18.814  0.00  0.00    +0.000 A 
ATOM     24  C   UNL     1       6.178   4.776  18.737  0.00  0.00    +0.000 A 
ATOM     25  C   UNL     1       6.834   4.782  17.505  0.00  0.00    +0.000 A 
ATOM     26  C   UNL     1       6.122   4.453  16.346  0.00  0.00    +0.000 A 
ATOM     27  C   UNL     1       4.777   4.069  16.417  0.00  0.00    +0.000 A 
ATOM     28  C   UNL     1       4.131   4.066  17.654  0.00  0.00    +0.000 A 
BRANCH  26  29
ATOM     29  N   UNL     1       6.781   4.552  15.042  0.00  0.00    +0.000 N 
ATOM     30  O   UNL     1       7.655   5.417  14.899  0.00  0.00    +0.000 OA
ATOM     31  O   UNL     1       6.412   3.773  14.147  0.00  0.00    +0.000 OA
ENDBRANCH  26  29
ENDBRANCH  22  23
ENDBRANCH  17  22
ENDBRANCH   3  17
TORSDOF 9
ENDMDL
MODEL 7
REMARK VINA RESULT:      -7.6      5.120      7.503
REMARK  Name = 
REMARK  9 active torsions:
REMARK  status: ('A' for Active; 'I' for Inactive)
REMARK    1  A    between atoms: N_1  and  S_2
REMARK    2  A    between atoms: S_2  and  C_5
REMARK    3  A    between atoms: C_8  and  C_9
REMARK    4  A    between atoms: N_11  and  CA_12
REMARK    5  A    between atoms: CA_12  and  C_13
REMARK    6  A    between atoms: CA_12  and  C_23
REMARK    7  A    between atoms: C_13  and  C_14
REMARK    8  A    between atoms: C_17  and  N_18
REMARK    9  A    between atoms: C_23  and  OXT_25
REMARK                            x       y       z     vdW  Elec       q    Type
REMARK                         _______ _______ _______ _____ _____    ______ ____
ROOT
ATOM      1  C   UNL     1       2.479   6.845  19.025  0.00  0.00    +0.000 C 
ATOM      2  O   UNL     1       2.897   6.950  17.878  0.00  0.00    +0.000 OA
ATOM      3  N   UNL     1       2.674   5.720  19.786  0.00  0.00    +0.000 N 
ATOM      4  H   UNL     1       2.196   5.602  20.675  0.00  0.00    +0.000 HD
ENDROOT
BRANCH   1   8
ATOM      5  C   UNL     1       0.377  10.036  20.965  0.00  0.00    +0.000 A 
ATOM      6  C   UNL     1       0.627   8.844  21.650  0.00  0.00    +0.000 A 
ATOM      7  C   UNL     1       1.299   7.806  20.996  0.00  0.00    +0.000 A 
ATOM      8  C   UNL     1       1.723   7.959  19.667  0.00  0.00    +0.000 A 
ATOM      9  C   UNL     1       1.410   9.139  18.974  0.00  0.00    +0.000 A 
ATOM     10  C   UNL     1       0.741  10.179  19.624  0.00  0.00    +0.000 A 
BRANCH   5  11
ATOM     11  S   UNL     1      -0.371  11.400  21.808  0.00  0.00    +0.000 S 
ATOM     12  O   UNL     1      -0.397  11.115  23.223  0.00  0.00    +0.000 OA
ATOM     13  O   UNL     1      -1.538  11.835  21.075  0.00  0.00    +0.000 OA
BRANCH  11  14
ATOM     14  N   UNL     1       0.772  12.610  21.583  0.00  0.00    +0.000 NA
ATOM     15  H   UNL     1       1.641  12.202  21.239  0.00  0.00    +0.000 HD
ATOM     16  H   UNL     1       0.885  13.151  22.441  0.00  0.00    +0.000 HD
ENDBRANCH  11  14
ENDBRANCH   5  11
ENDBRANCH   1   8
BRANCH   3  17
ATOM     17  CA  UNL     1       3.466   4.568  19.340  0.00  0.00    +0.000 C 
BRANCH  17  18
ATOM     18  C   UNL     1       3.163   3.422  20.323  0.00  0.00    +0.000 C 
ATOM     19  O   UNL     1       2.167   3.396  21.045  0.00  0.00    +0.000 OA
BRANCH  18  20
ATOM     20  OXT UNL     1       4.068   2.417  20.326  0.00  0.00    +0.000 OA
ATOM     21  HXT UNL     1       4.334   2.088  19.447  0.00  0.00    +0.000 HD
ENDBRANCH  18  20
ENDBRANCH  17  18
BRANCH  17  22
ATOM     22  C   UNL     1       4.978   4.873  19.248  0.00  0.00    +0.000 C 
BRANCH  22  23
ATOM     23  C   UNL     1       5.458   5.027  17.821  0.00  0.00    +0.000 A 
ATOM     24  C   UNL     1       4.780   4.388  16.774  0.00  0.00    +0.000 A 
ATOM     25  C   UNL     1       5.327   4.362  15.491  0.00  0.00    +0.000 A 
ATOM     26  C   UNL     1       6.553   4.993  15.252  0.00  0.00    +0.000 A 
ATOM     27  C   UNL     1       7.207   5.694  16.274  0.00  0.00    +0.000 A 
ATOM     28  C   UNL     1       6.651   5.715  17.553  0.00  0.00    +0.000 A 
BRANCH  26  29
ATOM     29  N   UNL     1       7.177   4.885  13.931  0.00  0.00    +0.000 N 
ATOM     30  O   UNL     1       6.736   4.029  13.152  0.00  0.00    +0.000 OA
ATOM     31  O   UNL     1       8.123   5.647  13.675  0.00  0.00    +0.000 OA
ENDBRANCH  26  29
ENDBRANCH  22  23
ENDBRANCH  17  22
ENDBRANCH   3  17
TORSDOF 9
ENDMDL
MODEL 8
REMARK VINA RESULT:      -7.6      5.205      7.466
REMARK  Name = 
REMARK  9 active torsions:
REMARK  status: ('A' for Active; 'I' for Inactive)
REMARK    1  A    between atoms: N_1  and  S_2
REMARK    2  A    between atoms: S_2  and  C_5
REMARK    3  A    between atoms: C_8  and  C_9
REMARK    4  A    between atoms: N_11  and  CA_12
REMARK    5  A    between atoms: CA_12  and  C_13
REMARK    6  A    between atoms: CA_12  and  C_23
REMARK    7  A    between atoms: C_13  and  C_14
REMARK    8  A    between atoms: C_17  and  N_18
REMARK    9  A    between atoms: C_23  and  OXT_25
REMARK                            x       y       z     vdW  Elec       q    Type
REMARK                         _______ _______ _______ _____ _____    ______ ____
ROOT
ATOM      1  C   UNL     1       2.962   6.799  17.911  0.00  0.00    +0.000 C 
ATOM      2  O   UNL     1       3.831   7.098  17.103  0.00  0.00    +0.000 OA
ATOM      3  N   UNL     1       2.560   5.505  18.125  0.00  0.00    +0.000 N 
ATOM      4  H   UNL     1       1.742   5.299  18.692  0.00  0.00    +0.000 HD
ENDROOT
BRANCH   1   8
ATOM      5  C   UNL     1       0.930   9.832  20.157  0.00  0.00    +0.000 A 
ATOM      6  C   UNL     1       1.309  10.075  18.834  0.00  0.00    +0.000 A 
ATOM      7  C   UNL     1       1.987   9.081  18.121  0.00  0.00    +0.000 A 
ATOM      8  C   UNL     1       2.281   7.849  18.724  0.00  0.00    +0.000 A 
ATOM      9  C   UNL     1       1.949   7.643  20.073  0.00  0.00    +0.000 A 
ATOM     10  C   UNL     1       1.269   8.632  20.787  0.00  0.00    +0.000 A 
BRANCH   5  11
ATOM     11  S   UNL     1      -0.025  11.032  21.038  0.00  0.00    +0.000 S 
ATOM     12  O   UNL     1       0.121  10.793  22.455  0.00  0.00    +0.000 OA
ATOM     13  O   UNL     1      -1.312  11.184  20.399  0.00  0.00    +0.000 OA
BRANCH  11  14
ATOM     14  N   UNL     1       0.809  12.449  20.702  0.00  0.00    +0.000 NA
ATOM     15  H   UNL     1       0.499  12.826  19.807  0.00  0.00    +0.000 HD
ATOM     16  H   UNL     1       1.816  12.285  20.750  0.00  0.00    +0.000 HD
ENDBRANCH  11  14
ENDBRANCH   5  11
ENDBRANCH   1   8
BRANCH   3  17
ATOM     17  CA  UNL     1       3.180   4.346  17.474  0.00  0.00    +0.000 C 
BRANCH  17  18
ATOM     18  C   UNL     1       2.352   3.115  17.886  0.00  0.00    +0.000 C 
ATOM     19  O   UNL     1       1.122   3.114  17.932  0.00  0.00    +0.000 OA
BRANCH  18  20
ATOM     20  OXT UNL     1       3.074   2.010  18.178  0.00  0.00    +0.000 OA
ATOM     21  HXT UNL     1       3.225   1.397  17.434  0.00  0.00    +0.000 HD
ENDBRANCH  18  20
ENDBRANCH  17  18
BRANCH  17  22
ATOM     22  C   UNL     1       4.676   4.185  17.824  0.00  0.00    +0.000 C 
BRANCH  22  23
ATOM     23  C   UNL     1       5.575   4.279  16.610  0.00  0.00    +0.000 A 
ATOM     24  C   UNL     1       6.849   4.853  16.716  0.00  0.00    +0.000 A 
ATOM     25  C   UNL     1       7.600   5.123  15.571  0.00  0.00    +0.000 A 
ATOM     26  C   UNL     1       7.077   4.802  14.313  0.00  0.00    +0.000 A 
ATOM     27  C   UNL     1       5.835   4.165  14.197  0.00  0.00    +0.000 A 
ATOM     28  C   UNL     1       5.093   3.899  15.348  0.00  0.00    +0.000 A 
BRANCH  26  29
ATOM     29  N   UNL     1       7.819   5.172  13.107  0.00  0.00    +0.000 N 
ATOM     30  O   UNL     1       7.434   4.708  12.025  0.00  0.00    +0.000 OA
ATOM     31  O   UNL     1       8.804   5.917  13.239  0.00  0.00    +0.000 OA
ENDBRANCH  26  29
ENDBRANCH  22  23
ENDBRANCH  17  22
ENDBRANCH   3  17
TORSDOF 9
ENDMDL
MODEL 9
REMARK VINA RESULT:      -7.6      0.844      1.678
REMARK  Name = 
REMARK  9 active torsions:
REMARK  status: ('A' for Active; 'I' for Inactive)
REMARK    1  A    between atoms: N_1  and  S_2
REMARK    2  A    between atoms: S_2  and  C_5
REMARK    3  A    between atoms: C_8  and  C_9
REMARK    4  A    between atoms: N_11  and  CA_12
REMARK    5  A    between atoms: CA_12  and  C_13
REMARK    6  A    between atoms: CA_12  and  C_23
REMARK    7  A    between atoms: C_13  and  C_14
REMARK    8  A    between atoms: C_17  and  N_18
REMARK    9  A    between atoms: C_23  and  OXT_25
REMARK                            x       y       z     vdW  Elec       q    Type
REMARK                         _______ _______ _______ _____ _____    ______ ____
ROOT
ATOM      1  C   UNL     1       7.958   7.879  18.209  0.00  0.00    +0.000 C 
ATOM      2  O   UNL     1       8.379   7.035  18.991  0.00  0.00    +0.000 OA
ATOM      3  N   UNL     1       7.034   7.594  17.236  0.00  0.00    +0.000 N 
ATOM      4  H   UNL     1       6.811   8.273  16.513  0.00  0.00    +0.000 HD
ENDROOT
BRANCH   1   8
ATOM      5  C   UNL     1       9.221  11.969  18.410  0.00  0.00    +0.000 A 
ATOM      6  C   UNL     1       8.257  11.579  17.478  0.00  0.00    +0.000 A 
ATOM      7  C   UNL     1       7.869  10.237  17.413  0.00  0.00    +0.000 A 
ATOM      8  C   UNL     1       8.437   9.290  18.279  0.00  0.00    +0.000 A 
ATOM      9  C   UNL     1       9.449   9.686  19.168  0.00  0.00    +0.000 A 
ATOM     10  C   UNL     1       9.837  11.026  19.237  0.00  0.00    +0.000 A 
BRANCH   5  11
ATOM     11  S   UNL     1       9.644  13.678  18.583  0.00  0.00    +0.000 S 
ATOM     12  O   UNL     1      10.942  13.899  17.990  0.00  0.00    +0.000 OA
ATOM     13  O   UNL     1       9.307  14.122  19.916  0.00  0.00    +0.000 OA
BRANCH  11  14
ATOM     14  N   UNL     1       8.523  14.413  17.572  0.00  0.00    +0.000 NA
ATOM     15  H   UNL     1       8.774  15.391  17.436  0.00  0.00    +0.000 HD
ATOM     16  H   UNL     1       7.578  14.279  17.938  0.00  0.00    +0.000 HD
ENDBRANCH  11  14
ENDBRANCH   5  11
ENDBRANCH   1   8
BRANCH   3  17
ATOM     17  CA  UNL     1       6.398   6.281  17.082  0.00  0.00    +0.000 C 
BRANCH  17  18
ATOM     18  C   UNL     1       7.397   5.397  16.314  0.00  0.00    +0.000 C 
ATOM     19  O   UNL     1       7.983   4.442  16.823  0.00  0.00    +0.000 OA
BRANCH  18  20
ATOM     20  OXT UNL     1       7.577   5.729  15.016  0.00  0.00    +0.000 OA
ATOM     21  HXT UNL     1       7.735   4.982  14.408  0.00  0.00    +0.000 HD
ENDBRANCH  18  20
ENDBRANCH  17  18
BRANCH  17  22
ATOM     22  C   UNL     1       5.024   6.353  16.378  0.00  0.00    +0.000 C 
BRANCH  22  23
ATOM     23  C   UNL     1       3.932   5.647  17.151  0.00  0.00    +0.000 A 
ATOM     24  C   UNL     1       3.104   6.366  18.024  0.00  0.00    +0.000 A 
ATOM     25  C   UNL     1       2.233   5.697  18.884  0.00  0.00    +0.000 A 
ATOM     26  C   UNL     1       2.180   4.299  18.859  0.00  0.00    +0.000 A 
ATOM     27  C   UNL     1       2.952   3.571  17.944  0.00  0.00    +0.000 A 
ATOM     28  C   UNL     1       3.819   4.250  17.088  0.00  0.00    +0.000 A 
BRANCH  26  29
ATOM     29  N   UNL     1       1.340   3.590  19.826  0.00  0.00    +0.000 N 
ATOM     30  O   UNL     1       1.276   4.042  20.978  0.00  0.00    +0.000 OA
ATOM     31  O   UNL     1       0.752   2.566  19.441  0.00  0.00    +0.000 OA
ENDBRANCH  26  29
ENDBRANCH  22  23
ENDBRANCH  17  22
ENDBRANCH   3  17
TORSDOF 9
ENDMDL
