MODEL 1
REMARK VINA RESULT:      -6.4      0.000      0.000
REMARK  Name = 
REMARK  7 active torsions:
REMARK  status: ('A' for Active; 'I' for Inactive)
REMARK    1  A    between atoms: C_1  and  C_2
REMARK    2  A    between atoms: C_2  and  N_3
REMARK    3  A    between atoms: N_3  and  C_4
REMARK    4  A    between atoms: C_4  and  C_5
REMARK    5  A    between atoms: N_8  and  C_9
REMARK    6  A    between atoms: C_9  and  C_10
REMARK    7  A    between atoms: C_19  and  C_20
REMARK                            x       y       z     vdW  Elec       q    Type
REMARK                         _______ _______ _______ _____ _____    ______ ____
ROOT
ATOM      1  C   UNL     1       2.651   4.964  18.354  0.00  0.00    +0.000 C 
ATOM      2  C   UNL     1       2.532   6.459  18.025  0.00  0.00    +0.000 C 
ATOM      3  C   UNL     1       2.630   7.345  19.269  0.00  0.00    +0.000 C 
ATOM      4  N   UNL     1       1.646   6.972  20.297  0.00  0.00    +0.000 NA
ATOM      5  C   UNL     1       1.755   5.550  20.661  0.00  0.00    +0.000 C 
ATOM      6  C   UNL     1       1.618   4.638  19.440  0.00  0.00    +0.000 C 
ENDROOT
BRANCH   1   7
ATOM      7  C   UNL     1       4.071   4.518  18.780  0.00  0.00    +0.000 C 
BRANCH   7   8
ATOM      8  N   UNL     1       5.136   5.120  17.963  0.00  0.00    +0.000 N 
ATOM      9  C   UNL     1       6.315   5.463  18.617  0.00  0.00    +0.000 C 
ATOM     10  C   UNL     1       7.491   5.957  17.809  0.00  0.00    +0.000 C 
ATOM     11  O   UNL     1       6.441   5.365  19.842  0.00  0.00    +0.000 OA
BRANCH   8  13
ATOM     12  C   UNL     1       5.397   3.931  15.777  0.00  0.00    +0.000 C 
ATOM     13  C   UNL     1       4.933   5.179  16.516  0.00  0.00    +0.000 C 
ENDBRANCH   8  13
ENDBRANCH   7   8
ENDBRANCH   1   7
BRANCH   4  14
ATOM     14  C   UNL     1       1.796   7.860  21.470  0.00  0.00    +0.000 C 
BRANCH  14  15
ATOM     15  C   UNL     1       0.727   8.932  21.560  0.00  0.00    +0.000 A 
ATOM     16  C   UNL     1       0.330   9.631  20.410  0.00  0.00    +0.000 A 
ATOM     17  C   UNL     1      -0.561  10.702  20.506  0.00  0.00    +0.000 A 
ATOM     18  C   UNL     1      -1.065  11.072  21.751  0.00  0.00    +0.000 A 
ATOM     19 CL   UNL     1      -2.113  12.431  21.877  0.00  0.00    +0.000 Cl
ATOM     20  C   UNL     1      -0.710  10.363  22.896  0.00  0.00    +0.000 A 
ATOM     21  C   UNL     1       0.180   9.291  22.800  0.00  0.00    +0.000 A 
ENDBRANCH  14  15
ENDBRANCH   4  14
TORSDOF 5
ENDMDL
MODEL 2
REMARK VINA RESULT:      -6.3      2.575      3.876
REMARK  Name = 
REMARK  7 active torsions:
REMARK  status: ('A' for Active; 'I' for Inactive)
REMARK    1  A    between atoms: C_1  and  C_2
REMARK    2  A    between atoms: C_2  and  N_3
REMARK    3  A    between atoms: N_3  and  C_4
REMARK    4  A    between atoms: C_4  and  C_5
REMARK    5  A    between atoms: N_8  and  C_9
REMARK    6  A    between atoms: C_9  and  C_10
REMARK    7  A    between atoms: C_19  and  C_20
REMARK                            x       y       z     vdW  Elec       q    Type
REMARK                         _______ _______ _______ _____ _____    ______ ____
ROOT
ATOM      1  C   UNL     1       4.462   5.324  18.411  0.00  0.00    +0.000 C 
ATOM      2  C   UNL     1       3.536   5.854  19.514  0.00  0.00    +0.000 C 
ATOM      3  C   UNL     1       2.418   6.744  18.968  0.00  0.00    +0.000 C 
ATOM      4  N   UNL     1       2.938   7.861  18.165  0.00  0.00    +0.000 NA
ATOM      5  C   UNL     1       3.806   7.387  17.075  0.00  0.00    +0.000 C 
ATOM      6  C   UNL     1       4.958   6.526  17.597  0.00  0.00    +0.000 C 
ENDROOT
BRANCH   1   7
ATOM      7  C   UNL     1       3.814   4.258  17.494  0.00  0.00    +0.000 C 
BRANCH   7   8
ATOM      8  N   UNL     1       3.043   3.249  18.237  0.00  0.00    +0.000 N 
ATOM      9  C   UNL     1       1.660   3.275  18.085  0.00  0.00    +0.000 C 
ATOM     10  C   UNL     1       0.828   2.182  18.712  0.00  0.00    +0.000 C 
ATOM     11  O   UNL     1       1.085   4.156  17.440  0.00  0.00    +0.000 OA
BRANCH   8  13
ATOM     12  C   UNL     1       3.861   2.443  20.460  0.00  0.00    +0.000 C 
ATOM     13  C   UNL     1       3.787   2.217  18.956  0.00  0.00    +0.000 C 
ENDBRANCH   8  13
ENDBRANCH   7   8
ENDBRANCH   1   7
BRANCH   4  14
ATOM     14  C   UNL     1       1.812   8.678  17.665  0.00  0.00    +0.000 C 
BRANCH  14  15
ATOM     15  C   UNL     1       1.546   9.919  18.496  0.00  0.00    +0.000 A 
ATOM     16  C   UNL     1       2.048  11.164  18.086  0.00  0.00    +0.000 A 
ATOM     17  C   UNL     1       1.914  12.285  18.909  0.00  0.00    +0.000 A 
ATOM     18  C   UNL     1       1.268  12.168  20.137  0.00  0.00    +0.000 A 
ATOM     19 CL   UNL     1       1.159  13.534  21.177  0.00  0.00    +0.000 Cl
ATOM     20  C   UNL     1       0.731  10.947  20.540  0.00  0.00    +0.000 A 
ATOM     21  C   UNL     1       0.864   9.826  19.717  0.00  0.00    +0.000 A 
ENDBRANCH  14  15
ENDBRANCH   4  14
TORSDOF 5
ENDMDL
MODEL 3
REMARK VINA RESULT:      -6.3      3.246      7.124
REMARK  Name = 
REMARK  7 active torsions:
REMARK  status: ('A' for Active; 'I' for Inactive)
REMARK    1  A    between atoms: C_1  and  C_2
REMARK    2  A    between atoms: C_2  and  N_3
REMARK    3  A    between atoms: N_3  and  C_4
REMARK    4  A    between atoms: C_4  and  C_5
REMARK    5  A    between atoms: N_8  and  C_9
REMARK    6  A    between atoms: C_9  and  C_10
REMARK    7  A    between atoms: C_19  and  C_20
REMARK                            x       y       z     vdW  Elec       q    Type
REMARK                         _______ _______ _______ _____ _____    ______ ____
ROOT
ATOM      1  C   UNL     1       2.072   5.846  19.595  0.00  0.00    +0.000 C 
ATOM      2  C   UNL     1       2.894   4.747  20.283  0.00  0.00    +0.000 C 
ATOM      3  C   UNL     1       4.259   4.533  19.624  0.00  0.00    +0.000 C 
ATOM      4  N   UNL     1       4.144   4.252  18.186  0.00  0.00    +0.000 NA
ATOM      5  C   UNL     1       3.389   5.305  17.487  0.00  0.00    +0.000 C 
ATOM      6  C   UNL     1       2.002   5.513  18.099  0.00  0.00    +0.000 C 
ENDROOT
BRANCH   1   7
ATOM      7  C   UNL     1       2.611   7.280  19.823  0.00  0.00    +0.000 C 
BRANCH   7   8
ATOM      8  N   UNL     1       1.546   8.294  19.886  0.00  0.00    +0.000 N 
ATOM      9  C   UNL     1       1.362   9.085  18.756  0.00  0.00    +0.000 C 
ATOM     10  C   UNL     1       0.199  10.048  18.711  0.00  0.00    +0.000 C 
ATOM     11  O   UNL     1       2.111   9.019  17.777  0.00  0.00    +0.000 OA
BRANCH   8  13
ATOM     12  C   UNL     1       1.240   9.079  22.242  0.00  0.00    +0.000 C 
ATOM     13  C   UNL     1       0.678   8.297  21.062  0.00  0.00    +0.000 C 
ENDBRANCH   8  13
ENDBRANCH   7   8
ENDBRANCH   1   7
BRANCH   4  14
ATOM     14  C   UNL     1       5.492   4.059  17.610  0.00  0.00    +0.000 C 
BRANCH  14  15
ATOM     15  C   UNL     1       6.386   5.278  17.736  0.00  0.00    +0.000 A 
ATOM     16  C   UNL     1       7.369   5.332  18.736  0.00  0.00    +0.000 A 
ATOM     17  C   UNL     1       8.109   6.499  18.936  0.00  0.00    +0.000 A 
ATOM     18  C   UNL     1       7.877   7.612  18.132  0.00  0.00    +0.000 A 
ATOM     19 CL   UNL     1       8.746   9.069  18.420  0.00  0.00    +0.000 Cl
ATOM     20  C   UNL     1       6.932   7.561  17.110  0.00  0.00    +0.000 A 
ATOM     21  C   UNL     1       6.191   6.394  16.908  0.00  0.00    +0.000 A 
ENDBRANCH  14  15
ENDBRANCH   4  14
TORSDOF 5
ENDMDL
MODEL 4
REMARK VINA RESULT:      -6.3      1.162      1.676
REMARK  Name = 
REMARK  7 active torsions:
REMARK  status: ('A' for Active; 'I' for Inactive)
REMARK    1  A    between atoms: C_1  and  C_2
REMARK    2  A    between atoms: C_2  and  N_3
REMARK    3  A    between atoms: N_3  and  C_4
REMARK    4  A    between atoms: C_4  and  C_5
REMARK    5  A    between atoms: N_8  and  C_9
REMARK    6  A    between atoms: C_9  and  C_10
REMARK    7  A    between atoms: C_19  and  C_20
REMARK                            x       y       z     vdW  Elec       q    Type
REMARK                         _______ _______ _______ _____ _____    ______ ____
ROOT
ATOM      1  C   UNL     1       2.713   5.730  18.221  0.00  0.00    +0.000 C 
ATOM      2  C   UNL     1       2.322   7.202  18.027  0.00  0.00    +0.000 C 
ATOM      3  C   UNL     1       2.360   7.998  19.334  0.00  0.00    +0.000 C 
ATOM      4  N   UNL     1       1.529   7.388  20.382  0.00  0.00    +0.000 NA
ATOM      5  C   UNL     1       1.901   5.983  20.618  0.00  0.00    +0.000 C 
ATOM      6  C   UNL     1       1.832   5.152  19.335  0.00  0.00    +0.000 C 
ENDROOT
BRANCH   1   7
ATOM      7  C   UNL     1       4.215   5.507  18.524  0.00  0.00    +0.000 C 
BRANCH   7   8
ATOM      8  N   UNL     1       5.044   5.427  17.311  0.00  0.00    +0.000 N 
ATOM      9  C   UNL     1       5.033   4.220  16.618  0.00  0.00    +0.000 C 
ATOM     10  C   UNL     1       5.754   4.121  15.296  0.00  0.00    +0.000 C 
ATOM     11  O   UNL     1       4.438   3.223  17.042  0.00  0.00    +0.000 OA
BRANCH   8  13
ATOM     12  C   UNL     1       7.081   6.874  17.443  0.00  0.00    +0.000 C 
ATOM     13  C   UNL     1       5.696   6.651  16.850  0.00  0.00    +0.000 C 
ENDBRANCH   8  13
ENDBRANCH   7   8
ENDBRANCH   1   7
BRANCH   4  14
ATOM     14  C   UNL     1       1.612   8.199  21.615  0.00  0.00    +0.000 C 
BRANCH  14  15
ATOM     15  C   UNL     1       0.524   9.250  21.725  0.00  0.00    +0.000 A 
ATOM     16  C   UNL     1       0.173  10.022  20.607  0.00  0.00    +0.000 A 
ATOM     17  C   UNL     1      -0.738  11.073  20.732  0.00  0.00    +0.000 A 
ATOM     18  C   UNL     1      -1.309  11.349  21.972  0.00  0.00    +0.000 A 
ATOM     19 CL   UNL     1      -2.383  12.683  22.138  0.00  0.00    +0.000 Cl
ATOM     20  C   UNL     1      -1.000  10.567  23.082  0.00  0.00    +0.000 A 
ATOM     21  C   UNL     1      -0.090   9.515  22.958  0.00  0.00    +0.000 A 
ENDBRANCH  14  15
ENDBRANCH   4  14
TORSDOF 5
ENDMDL
MODEL 5
REMARK VINA RESULT:      -6.3      4.047      8.092
REMARK  Name = 
REMARK  7 active torsions:
REMARK  status: ('A' for Active; 'I' for Inactive)
REMARK    1  A    between atoms: C_1  and  C_2
REMARK    2  A    between atoms: C_2  and  N_3
REMARK    3  A    between atoms: N_3  and  C_4
REMARK    4  A    between atoms: C_4  and  C_5
REMARK    5  A    between atoms: N_8  and  C_9
REMARK    6  A    between atoms: C_9  and  C_10
REMARK    7  A    between atoms: C_19  and  C_20
REMARK                            x       y       z     vdW  Elec       q    Type
REMARK                         _______ _______ _______ _____ _____    ______ ____
ROOT
ATOM      1  C   UNL     1       0.094  10.062  20.185  0.00  0.00    +0.000 C 
ATOM      2  C   UNL     1       0.520   8.699  20.749  0.00  0.00    +0.000 C 
ATOM      3  C   UNL     1       1.826   8.190  20.133  0.00  0.00    +0.000 C 
ATOM      4  N   UNL     1       1.764   8.133  18.665  0.00  0.00    +0.000 NA
ATOM      5  C   UNL     1       1.390   9.434  18.088  0.00  0.00    +0.000 C 
ATOM      6  C   UNL     1       0.066   9.949  18.655  0.00  0.00    +0.000 C 
ENDROOT
BRANCH   1   7
ATOM      7  C   UNL     1       0.983  11.245  20.641  0.00  0.00    +0.000 C 
BRANCH   7   8
ATOM      8  N   UNL     1       0.210  12.449  20.985  0.00  0.00    +0.000 N 
ATOM      9  C   UNL     1      -0.428  12.457  22.222  0.00  0.00    +0.000 C 
ATOM     10  C   UNL     1      -1.120  13.715  22.688  0.00  0.00    +0.000 C 
ATOM     11  O   UNL     1      -0.437  11.470  22.965  0.00  0.00    +0.000 OA
BRANCH   8  13
ATOM     12  C   UNL     1      -0.724  13.547  18.940  0.00  0.00    +0.000 C 
ATOM     13  C   UNL     1       0.289  13.591  20.076  0.00  0.00    +0.000 C 
ENDBRANCH   8  13
ENDBRANCH   7   8
ENDBRANCH   1   7
BRANCH   4  14
ATOM     14  C   UNL     1       3.052   7.638  18.134  0.00  0.00    +0.000 C 
BRANCH  14  15
ATOM     15  C   UNL     1       3.144   6.125  18.076  0.00  0.00    +0.000 A 
ATOM     16  C   UNL     1       1.991   5.356  17.860  0.00  0.00    +0.000 A 
ATOM     17  C   UNL     1       2.048   3.962  17.930  0.00  0.00    +0.000 A 
ATOM     18  C   UNL     1       3.260   3.333  18.205  0.00  0.00    +0.000 A 
ATOM     19 CL   UNL     1       3.317   1.620  18.353  0.00  0.00    +0.000 Cl
ATOM     20  C   UNL     1       4.421   4.082  18.383  0.00  0.00    +0.000 A 
ATOM     21  C   UNL     1       4.365   5.476  18.313  0.00  0.00    +0.000 A 
ENDBRANCH  14  15
ENDBRANCH   4  14
TORSDOF 5
ENDMDL
MODEL 6
REMARK VINA RESULT:      -6.3      5.134      7.911
REMARK  Name = 
REMARK  7 active torsions:
REMARK  status: ('A' for Active; 'I' for Inactive)
REMARK    1  A    between atoms: C_1  and  C_2
REMARK    2  A    between atoms: C_2  and  N_3
REMARK    3  A    between atoms: N_3  and  C_4
REMARK    4  A    between atoms: C_4  and  C_5
REMARK    5  A    between atoms: N_8  and  C_9
REMARK    6  A    between atoms: C_9  and  C_10
REMARK    7  A    between atoms: C_19  and  C_20
REMARK                            x       y       z     vdW  Elec       q    Type
REMARK                         _______ _______ _______ _____ _____    ______ ____
ROOT
ATOM      1  C   UNL     1       3.359   5.902  18.758  0.00  0.00    +0.000 C 
ATOM      2  C   UNL     1       3.711   6.963  17.705  0.00  0.00    +0.000 C 
ATOM      3  C   UNL     1       4.924   6.572  16.858  0.00  0.00    +0.000 C 
ATOM      4  N   UNL     1       6.103   6.267  17.683  0.00  0.00    +0.000 NA
ATOM      5  C   UNL     1       5.810   5.227  18.683  0.00  0.00    +0.000 C 
ATOM      6  C   UNL     1       4.625   5.610  19.572  0.00  0.00    +0.000 C 
ENDROOT
BRANCH   1   7
ATOM      7  C   UNL     1       2.759   4.600  18.172  0.00  0.00    +0.000 C 
BRANCH   7   8
ATOM      8  N   UNL     1       2.533   3.559  19.188  0.00  0.00    +0.000 N 
ATOM      9  C   UNL     1       1.632   3.857  20.206  0.00  0.00    +0.000 C 
ATOM     10  C   UNL     1       1.257   2.782  21.197  0.00  0.00    +0.000 C 
ATOM     11  O   UNL     1       1.114   4.972  20.321  0.00  0.00    +0.000 OA
BRANCH   8  13
ATOM     12  C   UNL     1       4.422   2.032  19.787  0.00  0.00    +0.000 C 
ATOM     13  C   UNL     1       3.154   2.254  18.974  0.00  0.00    +0.000 C 
ENDBRANCH   8  13
ENDBRANCH   7   8
ENDBRANCH   1   7
BRANCH   4  14
ATOM     14  C   UNL     1       7.236   5.894  16.808  0.00  0.00    +0.000 C 
BRANCH  14  15
ATOM     15  C   UNL     1       6.825   5.073  15.601  0.00  0.00    +0.000 A 
ATOM     16  C   UNL     1       7.397   5.330  14.345  0.00  0.00    +0.000 A 
ATOM     17  C   UNL     1       6.934   4.664  13.209  0.00  0.00    +0.000 A 
ATOM     18  C   UNL     1       5.906   3.732  13.324  0.00  0.00    +0.000 A 
ATOM     19 CL   UNL     1       5.294   2.958  11.915  0.00  0.00    +0.000 Cl
ATOM     20  C   UNL     1       5.355   3.438  14.569  0.00  0.00    +0.000 A 
ATOM     21  C   UNL     1       5.818   4.103  15.707  0.00  0.00    +0.000 A 
ENDBRANCH  14  15
ENDBRANCH   4  14
TORSDOF 5
ENDMDL
MODEL 7
REMARK VINA RESULT:      -6.3      2.159      3.195
REMARK  Name = 
REMARK  7 active torsions:
REMARK  status: ('A' for Active; 'I' for Inactive)
REMARK    1  A    between atoms: C_1  and  C_2
REMARK    2  A    between atoms: C_2  and  N_3
REMARK    3  A    between atoms: N_3  and  C_4
REMARK    4  A    between atoms: C_4  and  C_5
REMARK    5  A    between atoms: N_8  and  C_9
REMARK    6  A    between atoms: C_9  and  C_10
REMARK    7  A    between atoms: C_19  and  C_20
REMARK                            x       y       z     vdW  Elec       q    Type
REMARK                         _______ _______ _______ _____ _____    ______ ____
ROOT
ATOM      1  C   UNL     1       4.307   3.703  17.368  0.00  0.00    +0.000 C 
ATOM      2  C   UNL     1       2.846   3.258  17.526  0.00  0.00    +0.000 C 
ATOM      3  C   UNL     1       2.050   4.170  18.463  0.00  0.00    +0.000 C 
ATOM      4  N   UNL     1       2.684   4.302  19.782  0.00  0.00    +0.000 NA
ATOM      5  C   UNL     1       4.078   4.761  19.670  0.00  0.00    +0.000 C 
ATOM      6  C   UNL     1       4.909   3.843  18.771  0.00  0.00    +0.000 C 
ENDROOT
BRANCH   1   7
ATOM      7  C   UNL     1       4.489   5.005  16.550  0.00  0.00    +0.000 C 
BRANCH   7   8
ATOM      8  N   UNL     1       5.887   5.462  16.494  0.00  0.00    +0.000 N 
ATOM      9  C   UNL     1       6.181   6.668  17.123  0.00  0.00    +0.000 C 
ATOM     10  C   UNL     1       7.618   7.120  17.217  0.00  0.00    +0.000 C 
ATOM     11  O   UNL     1       5.305   7.381  17.623  0.00  0.00    +0.000 OA
BRANCH   8  13
ATOM     12  C   UNL     1       6.705   4.330  14.418  0.00  0.00    +0.000 C 
ATOM     13  C   UNL     1       6.876   4.556  15.914  0.00  0.00    +0.000 C 
ENDBRANCH   8  13
ENDBRANCH   7   8
ENDBRANCH   1   7
BRANCH   4  14
ATOM     14  C   UNL     1       1.871   5.196  20.635  0.00  0.00    +0.000 C 
BRANCH  14  15
ATOM     15  C   UNL     1       1.825   6.629  20.141  0.00  0.00    +0.000 A 
ATOM     16  C   UNL     1       1.309   7.643  20.962  0.00  0.00    +0.000 A 
ATOM     17  C   UNL     1       1.148   8.939  20.468  0.00  0.00    +0.000 A 
ATOM     18  C   UNL     1       1.512   9.229  19.155  0.00  0.00    +0.000 A 
ATOM     19 CL   UNL     1       1.256  10.810  18.529  0.00  0.00    +0.000 Cl
ATOM     20  C   UNL     1       2.062   8.242  18.340  0.00  0.00    +0.000 A 
ATOM     21  C   UNL     1       2.224   6.945  18.834  0.00  0.00    +0.000 A 
ENDBRANCH  14  15
ENDBRANCH   4  14
TORSDOF 5
ENDMDL
MODEL 8
REMARK VINA RESULT:      -6.3      4.240      7.982
REMARK  Name = 
REMARK  7 active torsions:
REMARK  status: ('A' for Active; 'I' for Inactive)
REMARK    1  A    between atoms: C_1  and  C_2
REMARK    2  A    between atoms: C_2  and  N_3
REMARK    3  A    between atoms: N_3  and  C_4
REMARK    4  A    between atoms: C_4  and  C_5
REMARK    5  A    between atoms: N_8  and  C_9
REMARK    6  A    between atoms: C_9  and  C_10
REMARK    7  A    between atoms: C_19  and  C_20
REMARK                            x       y       z     vdW  Elec       q    Type
REMARK                         _______ _______ _______ _____ _____    ______ ____
ROOT
ATOM      1  C   UNL     1       0.233  10.182  19.869  0.00  0.00    +0.000 C 
ATOM      2  C   UNL     1       0.584   8.853  20.554  0.00  0.00    +0.000 C 
ATOM      3  C   UNL     1       1.872   8.232  20.009  0.00  0.00    +0.000 C 
ATOM      4  N   UNL     1       1.829   8.052  18.551  0.00  0.00    +0.000 NA
ATOM      5  C   UNL     1       1.527   9.316  17.858  0.00  0.00    +0.000 C 
ATOM      6  C   UNL     1       0.222   9.940  18.355  0.00  0.00    +0.000 C 
ENDROOT
BRANCH   1   7
ATOM      7  C   UNL     1       1.171  11.356  20.240  0.00  0.00    +0.000 C 
BRANCH   7   8
ATOM      8  N   UNL     1       0.517  12.671  20.147  0.00  0.00    +0.000 N 
ATOM      9  C   UNL     1      -0.089  13.156  21.302  0.00  0.00    +0.000 C 
ATOM     10  C   UNL     1      -0.656  14.556  21.305  0.00  0.00    +0.000 C 
ATOM     11  O   UNL     1      -0.169  12.485  22.336  0.00  0.00    +0.000 OA
BRANCH   8  13
ATOM     12  C   UNL     1       2.044  13.260  18.254  0.00  0.00    +0.000 C 
ATOM     13  C   UNL     1       0.677  13.424  18.904  0.00  0.00    +0.000 C 
ENDBRANCH   8  13
ENDBRANCH   7   8
ENDBRANCH   1   7
BRANCH   4  14
ATOM     14  C   UNL     1       3.099   7.454  18.088  0.00  0.00    +0.000 C 
BRANCH  14  15
ATOM     15  C   UNL     1       3.162   5.949  18.268  0.00  0.00    +0.000 A 
ATOM     16  C   UNL     1       4.330   5.345  18.759  0.00  0.00    +0.000 A 
ATOM     17  C   UNL     1       4.438   3.954  18.809  0.00  0.00    +0.000 A 
ATOM     18  C   UNL     1       3.376   3.162  18.378  0.00  0.00    +0.000 A 
ATOM     19 CL   UNL     1       3.534   1.448  18.382  0.00  0.00    +0.000 Cl
ATOM     20  C   UNL     1       2.196   3.747  17.924  0.00  0.00    +0.000 A 
ATOM     21  C   UNL     1       2.087   5.139  17.875  0.00  0.00    +0.000 A 
ENDBRANCH  14  15
ENDBRANCH   4  14
TORSDOF 5
ENDMDL
MODEL 9
REMARK VINA RESULT:      -6.3      5.226      8.086
REMARK  Name = 
REMARK  7 active torsions:
REMARK  status: ('A' for Active; 'I' for Inactive)
REMARK    1  A    between atoms: C_1  and  C_2
REMARK    2  A    between atoms: C_2  and  N_3
REMARK    3  A    between atoms: N_3  and  C_4
REMARK    4  A    between atoms: C_4  and  C_5
REMARK    5  A    between atoms: N_8  and  C_9
REMARK    6  A    between atoms: C_9  and  C_10
REMARK    7  A    between atoms: C_19  and  C_20
REMARK                            x       y       z     vdW  Elec       q    Type
REMARK                         _______ _______ _______ _____ _____    ______ ____
ROOT
ATOM      1  C   UNL     1       3.491   5.905  18.733  0.00  0.00    +0.000 C 
ATOM      2  C   UNL     1       3.849   6.968  17.684  0.00  0.00    +0.000 C 
ATOM      3  C   UNL     1       5.003   6.535  16.777  0.00  0.00    +0.000 C 
ATOM      4  N   UNL     1       6.200   6.155  17.542  0.00  0.00    +0.000 NA
ATOM      5  C   UNL     1       5.899   5.112  18.536  0.00  0.00    +0.000 C 
ATOM      6  C   UNL     1       4.776   5.535  19.484  0.00  0.00    +0.000 C 
ENDROOT
BRANCH   1   7
ATOM      7  C   UNL     1       2.801   4.647  18.152  0.00  0.00    +0.000 C 
BRANCH   7   8
ATOM      8  N   UNL     1       2.576   3.595  19.157  0.00  0.00    +0.000 N 
ATOM      9  C   UNL     1       1.660   3.874  20.167  0.00  0.00    +0.000 C 
ATOM     10  C   UNL     1       1.287   2.787  21.146  0.00  0.00    +0.000 C 
ATOM     11  O   UNL     1       1.127   4.982  20.285  0.00  0.00    +0.000 OA
BRANCH   8  13
ATOM     12  C   UNL     1       4.401   2.033  19.857  0.00  0.00    +0.000 C 
ATOM     13  C   UNL     1       3.214   2.298  18.939  0.00  0.00    +0.000 C 
ENDBRANCH   8  13
ENDBRANCH   7   8
ENDBRANCH   1   7
BRANCH   4  14
ATOM     14  C   UNL     1       7.273   5.744  16.611  0.00  0.00    +0.000 C 
BRANCH  14  15
ATOM     15  C   UNL     1       6.760   5.054  15.361  0.00  0.00    +0.000 A 
ATOM     16  C   UNL     1       5.734   4.101  15.451  0.00  0.00    +0.000 A 
ATOM     17  C   UNL     1       5.345   3.374  14.325  0.00  0.00    +0.000 A 
ATOM     18  C   UNL     1       5.973   3.603  13.103  0.00  0.00    +0.000 A 
ATOM     19 CL   UNL     1       5.537   2.662  11.730  0.00  0.00    +0.000 Cl
ATOM     20  C   UNL     1       6.966   4.573  12.990  0.00  0.00    +0.000 A 
ATOM     21  C   UNL     1       7.355   5.302  14.116  0.00  0.00    +0.000 A 
ENDBRANCH  14  15
ENDBRANCH   4  14
TORSDOF 5
ENDMDL
