MODEL 1
REMARK VINA RESULT:      -7.0      0.000      0.000
REMARK  Name = 
REMARK  5 active torsions:
REMARK  status: ('A' for Active; 'I' for Inactive)
REMARK    1  A    between atoms: C_1  and  C_2
REMARK    2  A    between atoms: C_2  and  O_3
REMARK    3  A    between atoms: O_3  and  C_4
REMARK    4  A    between atoms: C_4  and  C_6
REMARK    5  A    between atoms: C_12  and  C_13
REMARK                            x       y       z     vdW  Elec       q    Type
REMARK                         _______ _______ _______ _____ _____    ______ ____
ROOT
ATOM      1  C   UNL     1       4.054   4.771  18.293  0.00  0.00    +0.000 C 
ATOM      2  C   UNL     1       2.929   5.807  18.175  0.00  0.00    +0.000 C 
ATOM      3  N   UNL     1       3.428   7.140  17.810  0.00  0.00    +0.000 N 
ATOM      4  C   UNL     1       2.604   8.234  17.880  0.00  0.00    +0.000 A 
ATOM      5  N   UNL     1       2.955   9.470  17.573  0.00  0.00    +0.000 NA
ATOM      6  N   UNL     1       1.941  10.395  17.751  0.00  0.00    +0.000 NA
ATOM      7  C   UNL     1       0.826   9.839  18.189  0.00  0.00    +0.000 A 
ATOM      8  S   UNL     1       0.953   8.141  18.387  0.00  0.00    +0.000 S 
ATOM      9  C   UNL     1       4.669   7.259  17.041  0.00  0.00    +0.000 C 
ATOM     10  C   UNL     1       5.073   5.958  16.365  0.00  0.00    +0.000 A 
ATOM     11  C   UNL     1       5.781   5.984  15.156  0.00  0.00    +0.000 A 
ATOM     12  C   UNL     1       6.190   4.795  14.554  0.00  0.00    +0.000 A 
ATOM     13  C   UNL     1       5.914   3.572  15.163  0.00  0.00    +0.000 A 
ATOM     14  C   UNL     1       5.227   3.530  16.377  0.00  0.00    +0.000 A 
ATOM     15  C   UNL     1       4.796   4.717  16.979  0.00  0.00    +0.000 A 
ENDROOT
BRANCH   7  16
ATOM     16  C   UNL     1      -0.423  10.540  18.519  0.00  0.00    +0.000 A 
ATOM     17  C   UNL     1      -1.589  10.326  17.788  0.00  0.00    +0.000 A 
ATOM     18  C   UNL     1      -2.734  11.048  18.126  0.00  0.00    +0.000 A 
ATOM     19  C   UNL     1      -2.688  11.955  19.180  0.00  0.00    +0.000 A 
ATOM     20  C   UNL     1      -1.493  12.103  19.860  0.00  0.00    +0.000 A 
ATOM     21  N   UNL     1      -0.371  11.421  19.554  0.00  0.00    +0.000 NA
ENDBRANCH   7  16
BRANCH   1  22
ATOM     22  C   UNL     1       3.429   3.485  18.778  0.00  0.00    +0.000 C 
ATOM     23  O   UNL     1       4.019   2.588  19.371  0.00  0.00    +0.000 OA
BRANCH  22  24
ATOM     24  O   UNL     1       2.129   3.419  18.366  0.00  0.00    +0.000 OA
BRANCH  24  26
ATOM     25  C   UNL     1       1.008   3.600  20.464  0.00  0.00    +0.000 C 
ATOM     26  C   UNL     1       1.239   2.720  19.248  0.00  0.00    +0.000 C 
ENDBRANCH  24  26
ENDBRANCH  22  24
ENDBRANCH   1  22
TORSDOF 4
ENDMDL
MODEL 2
REMARK VINA RESULT:      -6.9      3.947      8.651
REMARK  Name = 
REMARK  5 active torsions:
REMARK  status: ('A' for Active; 'I' for Inactive)
REMARK    1  A    between atoms: C_1  and  C_2
REMARK    2  A    between atoms: C_2  and  O_3
REMARK    3  A    between atoms: O_3  and  C_4
REMARK    4  A    between atoms: C_4  and  C_6
REMARK    5  A    between atoms: C_12  and  C_13
REMARK                            x       y       z     vdW  Elec       q    Type
REMARK                         _______ _______ _______ _____ _____    ______ ____
ROOT
ATOM      1  C   UNL     1      -0.285  11.463  20.729  0.00  0.00    +0.000 C 
ATOM      2  C   UNL     1       0.532  10.166  20.786  0.00  0.00    +0.000 C 
ATOM      3  N   UNL     1       1.097   9.798  19.481  0.00  0.00    +0.000 N 
ATOM      4  C   UNL     1       1.662   8.564  19.290  0.00  0.00    +0.000 A 
ATOM      5  N   UNL     1       2.196   8.139  18.159  0.00  0.00    +0.000 NA
ATOM      6  N   UNL     1       2.678   6.843  18.226  0.00  0.00    +0.000 NA
ATOM      7  C   UNL     1       2.504   6.304  19.418  0.00  0.00    +0.000 A 
ATOM      8  S   UNL     1       1.756   7.367  20.535  0.00  0.00    +0.000 S 
ATOM      9  C   UNL     1       1.384  10.847  18.499  0.00  0.00    +0.000 C 
ATOM     10  C   UNL     1       1.437  12.237  19.116  0.00  0.00    +0.000 A 
ATOM     11  C   UNL     1       2.270  13.220  18.564  0.00  0.00    +0.000 A 
ATOM     12  C   UNL     1       2.290  14.506  19.100  0.00  0.00    +0.000 A 
ATOM     13  C   UNL     1       1.467  14.828  20.177  0.00  0.00    +0.000 A 
ATOM     14  C   UNL     1       0.618  13.866  20.726  0.00  0.00    +0.000 A 
ATOM     15  C   UNL     1       0.604  12.566  20.207  0.00  0.00    +0.000 A 
ENDROOT
BRANCH   7  16
ATOM     16  C   UNL     1       2.864   4.934  19.813  0.00  0.00    +0.000 A 
ATOM     17  C   UNL     1       2.171   4.264  20.818  0.00  0.00    +0.000 A 
ATOM     18  C   UNL     1       2.582   2.979  21.173  0.00  0.00    +0.000 A 
ATOM     19  C   UNL     1       3.663   2.398  20.518  0.00  0.00    +0.000 A 
ATOM     20  C   UNL     1       4.292   3.128  19.526  0.00  0.00    +0.000 A 
ATOM     21  N   UNL     1       3.918   4.371  19.164  0.00  0.00    +0.000 NA
ENDBRANCH   7  16
BRANCH   1  22
ATOM     22  C   UNL     1      -0.897  11.667  22.094  0.00  0.00    +0.000 C 
ATOM     23  O   UNL     1      -0.403  11.304  23.156  0.00  0.00    +0.000 OA
BRANCH  22  24
ATOM     24  O   UNL     1      -2.137  12.225  21.965  0.00  0.00    +0.000 OA
BRANCH  24  26
ATOM     25  C   UNL     1      -3.688  12.530  23.752  0.00  0.00    +0.000 C 
ATOM     26  C   UNL     1      -2.512  13.137  23.006  0.00  0.00    +0.000 C 
ENDBRANCH  24  26
ENDBRANCH  22  24
ENDBRANCH   1  22
TORSDOF 4
ENDMDL
MODEL 3
REMARK VINA RESULT:      -6.9      3.851      8.233
REMARK  Name = 
REMARK  5 active torsions:
REMARK  status: ('A' for Active; 'I' for Inactive)
REMARK    1  A    between atoms: C_1  and  C_2
REMARK    2  A    between atoms: C_2  and  O_3
REMARK    3  A    between atoms: O_3  and  C_4
REMARK    4  A    between atoms: C_4  and  C_6
REMARK    5  A    between atoms: C_12  and  C_13
REMARK                            x       y       z     vdW  Elec       q    Type
REMARK                         _______ _______ _______ _____ _____    ______ ____
ROOT
ATOM      1  C   UNL     1      -0.066  11.753  19.764  0.00  0.00    +0.000 C 
ATOM      2  C   UNL     1       0.639  10.428  20.076  0.00  0.00    +0.000 C 
ATOM      3  N   UNL     1       1.423   9.925  18.940  0.00  0.00    +0.000 N 
ATOM      4  C   UNL     1       1.934   8.653  18.956  0.00  0.00    +0.000 A 
ATOM      5  N   UNL     1       2.651   8.110  17.988  0.00  0.00    +0.000 NA
ATOM      6  N   UNL     1       3.027   6.803  18.242  0.00  0.00    +0.000 NA
ATOM      7  C   UNL     1       2.589   6.374  19.412  0.00  0.00    +0.000 A 
ATOM      8  S   UNL     1       1.707   7.562  20.277  0.00  0.00    +0.000 S 
ATOM      9  C   UNL     1       1.963  10.873  17.962  0.00  0.00    +0.000 C 
ATOM     10  C   UNL     1       1.983  12.306  18.475  0.00  0.00    +0.000 A 
ATOM     11  C   UNL     1       2.969  13.198  18.032  0.00  0.00    +0.000 A 
ATOM     12  C   UNL     1       2.966  14.522  18.467  0.00  0.00    +0.000 A 
ATOM     13  C   UNL     1       1.971  14.972  19.331  0.00  0.00    +0.000 A 
ATOM     14  C   UNL     1       0.972  14.101  19.767  0.00  0.00    +0.000 A 
ATOM     15  C   UNL     1       0.976  12.765  19.351  0.00  0.00    +0.000 A 
ENDROOT
BRANCH   7  16
ATOM     16  C   UNL     1       2.777   5.026  19.968  0.00  0.00    +0.000 A 
ATOM     17  C   UNL     1       3.656   4.117  19.385  0.00  0.00    +0.000 A 
ATOM     18  C   UNL     1       3.765   2.841  19.937  0.00  0.00    +0.000 A 
ATOM     19  C   UNL     1       3.003   2.508  21.052  0.00  0.00    +0.000 A 
ATOM     20  C   UNL     1       2.159   3.470  21.576  0.00  0.00    +0.000 A 
ATOM     21  N   UNL     1       2.032   4.710  21.062  0.00  0.00    +0.000 NA
ENDBRANCH   7  16
BRANCH   1  22
ATOM     22  C   UNL     1      -0.919  12.100  20.961  0.00  0.00    +0.000 C 
ATOM     23  O   UNL     1      -2.001  12.676  20.919  0.00  0.00    +0.000 OA
BRANCH  22  24
ATOM     24  O   UNL     1      -0.259  11.771  22.109  0.00  0.00    +0.000 OA
BRANCH  24  26
ATOM     25  C   UNL     1      -0.476   9.698  23.270  0.00  0.00    +0.000 C 
ATOM     26  C   UNL     1      -1.046  11.095  23.099  0.00  0.00    +0.000 C 
ENDBRANCH  24  26
ENDBRANCH  22  24
ENDBRANCH   1  22
TORSDOF 4
ENDMDL
MODEL 4
REMARK VINA RESULT:      -6.8      3.662      8.716
REMARK  Name = 
REMARK  5 active torsions:
REMARK  status: ('A' for Active; 'I' for Inactive)
REMARK    1  A    between atoms: C_1  and  C_2
REMARK    2  A    between atoms: C_2  and  O_3
REMARK    3  A    between atoms: O_3  and  C_4
REMARK    4  A    between atoms: C_4  and  C_6
REMARK    5  A    between atoms: C_12  and  C_13
REMARK                            x       y       z     vdW  Elec       q    Type
REMARK                         _______ _______ _______ _____ _____    ______ ____
ROOT
ATOM      1  C   UNL     1      -0.416  11.521  21.133  0.00  0.00    +0.000 C 
ATOM      2  C   UNL     1       0.467  10.308  20.820  0.00  0.00    +0.000 C 
ATOM      3  N   UNL     1       1.022  10.350  19.460  0.00  0.00    +0.000 N 
ATOM      4  C   UNL     1       1.645   9.251  18.928  0.00  0.00    +0.000 A 
ATOM      5  N   UNL     1       2.175   9.189  17.720  0.00  0.00    +0.000 NA
ATOM      6  N   UNL     1       2.725   7.955  17.418  0.00  0.00    +0.000 NA
ATOM      7  C   UNL     1       2.605   7.096  18.413  0.00  0.00    +0.000 A 
ATOM      8  S   UNL     1       1.828   7.762  19.788  0.00  0.00    +0.000 S 
ATOM      9  C   UNL     1       1.233  11.646  18.809  0.00  0.00    +0.000 C 
ATOM     10  C   UNL     1       1.227  12.809  19.789  0.00  0.00    +0.000 A 
ATOM     11  C   UNL     1       1.996  13.951  19.529  0.00  0.00    +0.000 A 
ATOM     12  C   UNL     1       1.962  15.037  20.403  0.00  0.00    +0.000 A 
ATOM     13  C   UNL     1       1.147  14.999  21.533  0.00  0.00    +0.000 A 
ATOM     14  C   UNL     1       0.361  13.876  21.796  0.00  0.00    +0.000 A 
ATOM     15  C   UNL     1       0.403  12.774  20.935  0.00  0.00    +0.000 A 
ENDROOT
BRANCH   7  16
ATOM     16  C   UNL     1       3.043   5.693  18.406  0.00  0.00    +0.000 A 
ATOM     17  C   UNL     1       2.289   4.700  17.786  0.00  0.00    +0.000 A 
ATOM     18  C   UNL     1       2.738   3.382  17.845  0.00  0.00    +0.000 A 
ATOM     19  C   UNL     1       3.924   3.089  18.511  0.00  0.00    +0.000 A 
ATOM     20  C   UNL     1       4.619   4.133  19.093  0.00  0.00    +0.000 A 
ATOM     21  N   UNL     1       4.207   5.416  19.055  0.00  0.00    +0.000 NA
ENDBRANCH   7  16
BRANCH   1  22
ATOM     22  C   UNL     1      -1.008  11.302  22.505  0.00  0.00    +0.000 C 
ATOM     23  O   UNL     1      -0.444  10.749  23.443  0.00  0.00    +0.000 OA
BRANCH  22  24
ATOM     24  O   UNL     1      -2.309  11.719  22.518  0.00  0.00    +0.000 OA
BRANCH  24  26
ATOM     25  C   UNL     1      -4.148  12.857  23.525  0.00  0.00    +0.000 C 
ATOM     26  C   UNL     1      -2.641  12.662  23.546  0.00  0.00    +0.000 C 
ENDBRANCH  24  26
ENDBRANCH  22  24
ENDBRANCH   1  22
TORSDOF 4
ENDMDL
MODEL 5
REMARK VINA RESULT:      -6.7      3.858      8.395
REMARK  Name = 
REMARK  5 active torsions:
REMARK  status: ('A' for Active; 'I' for Inactive)
REMARK    1  A    between atoms: C_1  and  C_2
REMARK    2  A    between atoms: C_2  and  O_3
REMARK    3  A    between atoms: O_3  and  C_4
REMARK    4  A    between atoms: C_4  and  C_6
REMARK    5  A    between atoms: C_12  and  C_13
REMARK                            x       y       z     vdW  Elec       q    Type
REMARK                         _______ _______ _______ _____ _____    ______ ____
ROOT
ATOM      1  C   UNL     1      -0.310  11.668  19.286  0.00  0.00    +0.000 C 
ATOM      2  C   UNL     1       0.388  10.366  19.699  0.00  0.00    +0.000 C 
ATOM      3  N   UNL     1       1.397   9.934  18.724  0.00  0.00    +0.000 N 
ATOM      4  C   UNL     1       1.958   8.686  18.810  0.00  0.00    +0.000 A 
ATOM      5  N   UNL     1       2.872   8.204  17.986  0.00  0.00    +0.000 NA
ATOM      6  N   UNL     1       3.256   6.908  18.279  0.00  0.00    +0.000 NA
ATOM      7  C   UNL     1       2.625   6.425  19.334  0.00  0.00    +0.000 A 
ATOM      8  S   UNL     1       1.538   7.545  20.040  0.00  0.00    +0.000 S 
ATOM      9  C   UNL     1       2.066  10.934  17.888  0.00  0.00    +0.000 C 
ATOM     10  C   UNL     1       1.918  12.349  18.426  0.00  0.00    +0.000 A 
ATOM     11  C   UNL     1       2.925  13.297  18.199  0.00  0.00    +0.000 A 
ATOM     12  C   UNL     1       2.775  14.606  18.653  0.00  0.00    +0.000 A 
ATOM     13  C   UNL     1       1.612  14.985  19.321  0.00  0.00    +0.000 A 
ATOM     14  C   UNL     1       0.592  14.058  19.538  0.00  0.00    +0.000 A 
ATOM     15  C   UNL     1       0.741  12.737  19.102  0.00  0.00    +0.000 A 
ENDROOT
BRANCH   7  16
ATOM     16  C   UNL     1       2.770   5.070  19.887  0.00  0.00    +0.000 A 
ATOM     17  C   UNL     1       1.961   4.622  20.928  0.00  0.00    +0.000 A 
ATOM     18  C   UNL     1       2.169   3.340  21.435  0.00  0.00    +0.000 A 
ATOM     19  C   UNL     1       3.169   2.540  20.891  0.00  0.00    +0.000 A 
ATOM     20  C   UNL     1       3.923   3.056  19.853  0.00  0.00    +0.000 A 
ATOM     21  N   UNL     1       3.746   4.293  19.345  0.00  0.00    +0.000 NA
ENDBRANCH   7  16
BRANCH   1  22
ATOM     22  C   UNL     1      -1.391  11.940  20.304  0.00  0.00    +0.000 C 
ATOM     23  O   UNL     1      -2.442  12.532  20.083  0.00  0.00    +0.000 OA
BRANCH  22  24
ATOM     24  O   UNL     1      -0.980  11.522  21.537  0.00  0.00    +0.000 OA
BRANCH  24  26
ATOM     25  C   UNL     1      -2.411  11.862  23.415  0.00  0.00    +0.000 C 
ATOM     26  C   UNL     1      -1.250  12.428  22.615  0.00  0.00    +0.000 C 
ENDBRANCH  24  26
ENDBRANCH  22  24
ENDBRANCH   1  22
TORSDOF 4
ENDMDL
MODEL 6
REMARK VINA RESULT:      -6.7      3.843      8.279
REMARK  Name = 
REMARK  5 active torsions:
REMARK  status: ('A' for Active; 'I' for Inactive)
REMARK    1  A    between atoms: C_1  and  C_2
REMARK    2  A    between atoms: C_2  and  O_3
REMARK    3  A    between atoms: O_3  and  C_4
REMARK    4  A    between atoms: C_4  and  C_6
REMARK    5  A    between atoms: C_12  and  C_13
REMARK                            x       y       z     vdW  Elec       q    Type
REMARK                         _______ _______ _______ _____ _____    ______ ____
ROOT
ATOM      1  C   UNL     1      -0.307  11.545  18.993  0.00  0.00    +0.000 C 
ATOM      2  C   UNL     1       0.372  10.257  19.474  0.00  0.00    +0.000 C 
ATOM      3  N   UNL     1       1.470   9.837  18.593  0.00  0.00    +0.000 N 
ATOM      4  C   UNL     1       2.041   8.598  18.736  0.00  0.00    +0.000 A 
ATOM      5  N   UNL     1       3.031   8.128  17.998  0.00  0.00    +0.000 NA
ATOM      6  N   UNL     1       3.409   6.839  18.332  0.00  0.00    +0.000 NA
ATOM      7  C   UNL     1       2.696   6.351  19.330  0.00  0.00    +0.000 A 
ATOM      8  S   UNL     1       1.533   7.457  19.932  0.00  0.00    +0.000 S 
ATOM      9  C   UNL     1       2.194  10.843  17.813  0.00  0.00    +0.000 C 
ATOM     10  C   UNL     1       1.976  12.259  18.327  0.00  0.00    +0.000 A 
ATOM     11  C   UNL     1       2.984  13.222  18.182  0.00  0.00    +0.000 A 
ATOM     12  C   UNL     1       2.774  14.531  18.614  0.00  0.00    +0.000 A 
ATOM     13  C   UNL     1       1.551  14.894  19.175  0.00  0.00    +0.000 A 
ATOM     14  C   UNL     1       0.531  13.951  19.308  0.00  0.00    +0.000 A 
ATOM     15  C   UNL     1       0.739  12.630  18.895  0.00  0.00    +0.000 A 
ENDROOT
BRANCH   7  16
ATOM     16  C   UNL     1       2.813   5.002  19.903  0.00  0.00    +0.000 A 
ATOM     17  C   UNL     1       2.041   4.607  20.992  0.00  0.00    +0.000 A 
ATOM     18  C   UNL     1       2.222   3.326  21.514  0.00  0.00    +0.000 A 
ATOM     19  C   UNL     1       3.159   2.476  20.936  0.00  0.00    +0.000 A 
ATOM     20  C   UNL     1       3.880   2.941  19.851  0.00  0.00    +0.000 A 
ATOM     21  N   UNL     1       3.727   4.175  19.328  0.00  0.00    +0.000 NA
ENDBRANCH   7  16
BRANCH   1  22
ATOM     22  C   UNL     1      -1.477  11.805  19.912  0.00  0.00    +0.000 C 
ATOM     23  O   UNL     1      -1.484  11.620  21.124  0.00  0.00    +0.000 OA
BRANCH  22  24
ATOM     24  O   UNL     1      -2.566  12.178  19.177  0.00  0.00    +0.000 OA
BRANCH  24  26
ATOM     25  C   UNL     1      -3.756  10.615  17.823  0.00  0.00    +0.000 C 
ATOM     26  C   UNL     1      -2.629  11.633  17.852  0.00  0.00    +0.000 C 
ENDBRANCH  24  26
ENDBRANCH  22  24
ENDBRANCH   1  22
TORSDOF 4
ENDMDL
MODEL 7
REMARK VINA RESULT:      -6.6      0.938      1.302
REMARK  Name = 
REMARK  5 active torsions:
REMARK  status: ('A' for Active; 'I' for Inactive)
REMARK    1  A    between atoms: C_1  and  C_2
REMARK    2  A    between atoms: C_2  and  O_3
REMARK    3  A    between atoms: O_3  and  C_4
REMARK    4  A    between atoms: C_4  and  C_6
REMARK    5  A    between atoms: C_12  and  C_13
REMARK                            x       y       z     vdW  Elec       q    Type
REMARK                         _______ _______ _______ _____ _____    ______ ____
ROOT
ATOM      1  C   UNL     1       3.883   5.324  18.963  0.00  0.00    +0.000 C 
ATOM      2  C   UNL     1       2.727   6.324  18.851  0.00  0.00    +0.000 C 
ATOM      3  N   UNL     1       3.140   7.596  18.241  0.00  0.00    +0.000 N 
ATOM      4  C   UNL     1       2.304   8.682  18.265  0.00  0.00    +0.000 A 
ATOM      5  N   UNL     1       2.581   9.865  17.746  0.00  0.00    +0.000 NA
ATOM      6  N   UNL     1       1.575  10.799  17.926  0.00  0.00    +0.000 NA
ATOM      7  C   UNL     1       0.542  10.303  18.581  0.00  0.00    +0.000 A 
ATOM      8  S   UNL     1       0.737   8.651  18.995  0.00  0.00    +0.000 S 
ATOM      9  C   UNL     1       4.267   7.614  17.306  0.00  0.00    +0.000 C 
ATOM     10  C   UNL     1       4.614   6.232  16.770  0.00  0.00    +0.000 A 
ATOM     11  C   UNL     1       5.157   6.092  15.486  0.00  0.00    +0.000 A 
ATOM     12  C   UNL     1       5.515   4.833  15.008  0.00  0.00    +0.000 A 
ATOM     13  C   UNL     1       5.352   3.706  15.812  0.00  0.00    +0.000 A 
ATOM     14  C   UNL     1       4.829   3.832  17.100  0.00  0.00    +0.000 A 
ATOM     15  C   UNL     1       4.450   5.089  17.583  0.00  0.00    +0.000 A 
ENDROOT
BRANCH   7  16
ATOM     16  C   UNL     1      -0.672  11.035  18.971  0.00  0.00    +0.000 A 
ATOM     17  C   UNL     1      -0.737  11.745  20.167  0.00  0.00    +0.000 A 
ATOM     18  C   UNL     1      -1.927  12.390  20.501  0.00  0.00    +0.000 A 
ATOM     19  C   UNL     1      -3.014  12.315  19.636  0.00  0.00    +0.000 A 
ATOM     20  C   UNL     1      -2.866  11.596  18.464  0.00  0.00    +0.000 A 
ATOM     21  N   UNL     1      -1.729  10.961  18.118  0.00  0.00    +0.000 NA
ENDBRANCH   7  16
BRANCH   1  22
ATOM     22  C   UNL     1       3.360   4.114  19.701  0.00  0.00    +0.000 C 
ATOM     23  O   UNL     1       4.029   3.143  20.037  0.00  0.00    +0.000 OA
BRANCH  22  24
ATOM     24  O   UNL     1       2.006   4.214  19.847  0.00  0.00    +0.000 OA
BRANCH  24  26
ATOM     25  C   UNL     1       0.910   2.440  18.688  0.00  0.00    +0.000 C 
ATOM     26  C   UNL     1       1.318   2.972  20.051  0.00  0.00    +0.000 C 
ENDBRANCH  24  26
ENDBRANCH  22  24
ENDBRANCH   1  22
TORSDOF 4
ENDMDL
MODEL 8
REMARK VINA RESULT:      -6.6      3.924      8.503
REMARK  Name = 
REMARK  5 active torsions:
REMARK  status: ('A' for Active; 'I' for Inactive)
REMARK    1  A    between atoms: C_1  and  C_2
REMARK    2  A    between atoms: C_2  and  O_3
REMARK    3  A    between atoms: O_3  and  C_4
REMARK    4  A    between atoms: C_4  and  C_6
REMARK    5  A    between atoms: C_12  and  C_13
REMARK                            x       y       z     vdW  Elec       q    Type
REMARK                         _______ _______ _______ _____ _____    ______ ____
ROOT
ATOM      1  C   UNL     1      -0.018  11.868  20.349  0.00  0.00    +0.000 C 
ATOM      2  C   UNL     1       0.691  10.521  20.533  0.00  0.00    +0.000 C 
ATOM      3  N   UNL     1       1.285  10.022  19.286  0.00  0.00    +0.000 N 
ATOM      4  C   UNL     1       1.759   8.738  19.206  0.00  0.00    +0.000 A 
ATOM      5  N   UNL     1       2.311   8.197  18.135  0.00  0.00    +0.000 NA
ATOM      6  N   UNL     1       2.685   6.876  18.311  0.00  0.00    +0.000 NA
ATOM      7  C   UNL     1       2.413   6.435  19.525  0.00  0.00    +0.000 A 
ATOM      8  S   UNL     1       1.700   7.627  20.530  0.00  0.00    +0.000 S 
ATOM      9  C   UNL     1       1.700  10.975  18.254  0.00  0.00    +0.000 C 
ATOM     10  C   UNL     1       1.834  12.397  18.781  0.00  0.00    +0.000 A 
ATOM     11  C   UNL     1       2.767  13.273  18.210  0.00  0.00    +0.000 A 
ATOM     12  C   UNL     1       2.863  14.588  18.661  0.00  0.00    +0.000 A 
ATOM     13  C   UNL     1       2.018  15.046  19.671  0.00  0.00    +0.000 A 
ATOM     14  C   UNL     1       1.071  14.190  20.236  0.00  0.00    +0.000 A 
ATOM     15  C   UNL     1       0.979  12.863  19.803  0.00  0.00    +0.000 A 
ENDROOT
BRANCH   7  16
ATOM     16  C   UNL     1       2.645   5.073  20.027  0.00  0.00    +0.000 A 
ATOM     17  C   UNL     1       3.552   4.217  19.407  0.00  0.00    +0.000 A 
ATOM     18  C   UNL     1       3.702   2.924  19.907  0.00  0.00    +0.000 A 
ATOM     19  C   UNL     1       2.953   2.521  21.008  0.00  0.00    +0.000 A 
ATOM     20  C   UNL     1       2.080   3.434  21.570  0.00  0.00    +0.000 A 
ATOM     21  N   UNL     1       1.912   4.689  21.107  0.00  0.00    +0.000 NA
ENDBRANCH   7  16
BRANCH   1  22
ATOM     22  C   UNL     1      -0.676  12.213  21.664  0.00  0.00    +0.000 C 
ATOM     23  O   UNL     1      -0.313  11.814  22.766  0.00  0.00    +0.000 OA
BRANCH  22  24
ATOM     24  O   UNL     1      -1.802  12.950  21.437  0.00  0.00    +0.000 OA
BRANCH  24  26
ATOM     25  C   UNL     1      -4.068  12.857  20.697  0.00  0.00    +0.000 C 
ATOM     26  C   UNL     1      -2.632  12.489  20.363  0.00  0.00    +0.000 C 
ENDBRANCH  24  26
ENDBRANCH  22  24
ENDBRANCH   1  22
TORSDOF 4
ENDMDL
MODEL 9
REMARK VINA RESULT:      -6.6      0.859      1.330
REMARK  Name = 
REMARK  5 active torsions:
REMARK  status: ('A' for Active; 'I' for Inactive)
REMARK    1  A    between atoms: C_1  and  C_2
REMARK    2  A    between atoms: C_2  and  O_3
REMARK    3  A    between atoms: O_3  and  C_4
REMARK    4  A    between atoms: C_4  and  C_6
REMARK    5  A    between atoms: C_12  and  C_13
REMARK                            x       y       z     vdW  Elec       q    Type
REMARK                         _______ _______ _______ _____ _____    ______ ____
ROOT
ATOM      1  C   UNL     1       3.545   4.880  18.433  0.00  0.00    +0.000 C 
ATOM      2  C   UNL     1       2.481   5.975  18.292  0.00  0.00    +0.000 C 
ATOM      3  N   UNL     1       3.063   7.295  18.016  0.00  0.00    +0.000 N 
ATOM      4  C   UNL     1       2.289   8.425  18.082  0.00  0.00    +0.000 A 
ATOM      5  N   UNL     1       2.716   9.653  17.852  0.00  0.00    +0.000 NA
ATOM      6  N   UNL     1       1.737  10.620  18.008  0.00  0.00    +0.000 NA
ATOM      7  C   UNL     1       0.573  10.102  18.352  0.00  0.00    +0.000 A 
ATOM      8  S   UNL     1       0.607   8.394  18.484  0.00  0.00    +0.000 S 
ATOM      9  C   UNL     1       4.354   7.383  17.330  0.00  0.00    +0.000 C 
ATOM     10  C   UNL     1       4.739   6.092  16.624  0.00  0.00    +0.000 A 
ATOM     11  C   UNL     1       5.522   6.131  15.463  0.00  0.00    +0.000 A 
ATOM     12  C   UNL     1       5.912   4.949  14.836  0.00  0.00    +0.000 A 
ATOM     13  C   UNL     1       5.541   3.718  15.373  0.00  0.00    +0.000 A 
ATOM     14  C   UNL     1       4.777   3.661  16.540  0.00  0.00    +0.000 A 
ATOM     15  C   UNL     1       4.365   4.843  17.166  0.00  0.00    +0.000 A 
ENDROOT
BRANCH   7  16
ATOM     16  C   UNL     1      -0.660  10.851  18.635  0.00  0.00    +0.000 A 
ATOM     17  C   UNL     1      -0.745  11.728  19.713  0.00  0.00    +0.000 A 
ATOM     18  C   UNL     1      -1.953  12.383  19.952  0.00  0.00    +0.000 A 
ATOM     19  C   UNL     1      -3.037  12.151  19.112  0.00  0.00    +0.000 A 
ATOM     20  C   UNL     1      -2.869  11.271  18.059  0.00  0.00    +0.000 A 
ATOM     21  N   UNL     1      -1.715  10.622  17.806  0.00  0.00    +0.000 NA
ENDBRANCH   7  16
BRANCH   1  22
ATOM     22  C   UNL     1       2.831   3.608  18.823  0.00  0.00    +0.000 C 
ATOM     23  O   UNL     1       1.958   3.053  18.164  0.00  0.00    +0.000 OA
BRANCH  22  24
ATOM     24  O   UNL     1       3.226   3.221  20.071  0.00  0.00    +0.000 OA
BRANCH  24  26
ATOM     25  C   UNL     1       1.542   2.596  21.642  0.00  0.00    +0.000 C 
ATOM     26  C   UNL     1       2.431   3.727  21.152  0.00  0.00    +0.000 C 
ENDBRANCH  24  26
ENDBRANCH  22  24
ENDBRANCH   1  22
TORSDOF 4
ENDMDL
