MODEL 1
REMARK VINA RESULT:      -7.3      0.000      0.000
REMARK  Name = 
REMARK  8 active torsions:
REMARK  status: ('A' for Active; 'I' for Inactive)
REMARK    1  A    between atoms: C_2  and  S_13
REMARK    2  A    between atoms: N_3  and  C_4
REMARK    3  A    between atoms: C_4  and  C_5
REMARK    4  A    between atoms: C_5  and  C_6
REMARK    5  A    between atoms: S_13  and  C_14
REMARK    6  A    between atoms: C_14  and  C_15
REMARK    7  A    between atoms: C_15  and  C_16
REMARK    8  A    between atoms: C_16  and  N_17
REMARK                            x       y       z     vdW  Elec       q    Type
REMARK                         _______ _______ _______ _____ _____    ______ ____
ROOT
ATOM      1  N   UNL     1       7.105   6.838  16.523  0.00  0.00    +0.000 NA
ATOM      2  C   UNL     1       7.483   6.793  17.748  0.00  0.00    +0.000 C 
ATOM      3  N   UNL     1       8.277   7.700  18.389  0.00  0.00    +0.000 N 
ATOM      4  H   UNL     1       7.520   7.650  16.074  0.00  0.00    +0.000 HD
ATOM      5  H   UNL     1       8.312   7.515  19.388  0.00  0.00    +0.000 HD
ENDROOT
BRANCH   3   6
ATOM      6  C   UNL     1       8.313   9.109  18.030  0.00  0.00    +0.000 C 
BRANCH   6   7
ATOM      7  C   UNL     1       9.104   9.924  19.058  0.00  0.00    +0.000 C 
BRANCH   7   8
ATOM      8  C   UNL     1       9.634  11.208  18.461  0.00  0.00    +0.000 A 
ATOM      9  C   UNL     1      11.004  11.371  18.216  0.00  0.00    +0.000 A 
ATOM     10  C   UNL     1      11.491  12.575  17.697  0.00  0.00    +0.000 A 
ATOM     11  C   UNL     1      10.612  13.619  17.424  0.00  0.00    +0.000 A 
ATOM     12 CL   UNL     1      11.215  15.102  16.794  0.00  0.00    +0.000 Cl
ATOM     13  C   UNL     1       9.248  13.471  17.663  0.00  0.00    +0.000 A 
ATOM     14  C   UNL     1       8.760  12.270  18.182  0.00  0.00    +0.000 A 
ENDBRANCH   7   8
ENDBRANCH   6   7
ENDBRANCH   3   6
BRANCH   2  15
ATOM     15  S   UNL     1       6.942   5.492  18.775  0.00  0.00    +0.000 S 
BRANCH  15  16
ATOM     16  C   UNL     1       5.377   5.013  17.961  0.00  0.00    +0.000 C 
BRANCH  16  17
ATOM     17  C   UNL     1       4.238   5.867  18.525  0.00  0.00    +0.000 C 
BRANCH  17  18
ATOM     18  C   UNL     1       2.916   5.662  17.762  0.00  0.00    +0.000 C 
BRANCH  18  19
ATOM     19  N   UNL     1       1.956   4.808  18.496  0.00  0.00    +0.000 NA
ATOM     20  C   UNL     1       1.975   3.414  18.022  0.00  0.00    +0.000 C 
ATOM     21  C   UNL     1       0.929   2.562  18.742  0.00  0.00    +0.000 C 
ATOM     22  C   UNL     1       1.123   2.602  20.251  0.00  0.00    +0.000 C 
ATOM     23  C   UNL     1       1.192   4.044  20.736  0.00  0.00    +0.000 C 
ATOM     24  C   UNL     1       2.224   4.856  19.946  0.00  0.00    +0.000 C 
ENDBRANCH  18  19
ENDBRANCH  17  18
ENDBRANCH  16  17
ENDBRANCH  15  16
ENDBRANCH   2  15
TORSDOF 8
ENDMDL
MODEL 2
REMARK VINA RESULT:      -7.1      0.920      1.253
REMARK  Name = 
REMARK  8 active torsions:
REMARK  status: ('A' for Active; 'I' for Inactive)
REMARK    1  A    between atoms: C_2  and  S_13
REMARK    2  A    between atoms: N_3  and  C_4
REMARK    3  A    between atoms: C_4  and  C_5
REMARK    4  A    between atoms: C_5  and  C_6
REMARK    5  A    between atoms: S_13  and  C_14
REMARK    6  A    between atoms: C_14  and  C_15
REMARK    7  A    between atoms: C_15  and  C_16
REMARK    8  A    between atoms: C_16  and  N_17
REMARK                            x       y       z     vdW  Elec       q    Type
REMARK                         _______ _______ _______ _____ _____    ______ ____
ROOT
ATOM      1  N   UNL     1       6.242   7.348  16.623  0.00  0.00    +0.000 NA
ATOM      2  C   UNL     1       7.047   6.971  17.548  0.00  0.00    +0.000 C 
ATOM      3  N   UNL     1       8.127   7.661  18.018  0.00  0.00    +0.000 N 
ATOM      4  H   UNL     1       6.551   8.244  16.254  0.00  0.00    +0.000 HD
ATOM      5  H   UNL     1       8.515   7.216  18.845  0.00  0.00    +0.000 HD
ENDROOT
BRANCH   3   6
ATOM      6  C   UNL     1       8.194   9.114  18.023  0.00  0.00    +0.000 C 
BRANCH   6   7
ATOM      7  C   UNL     1       9.002   9.628  19.219  0.00  0.00    +0.000 C 
BRANCH   7   8
ATOM      8  C   UNL     1       9.557  11.011  18.960  0.00  0.00    +0.000 A 
ATOM      9  C   UNL     1       9.187  11.727  17.814  0.00  0.00    +0.000 A 
ATOM     10  C   UNL     1       9.732  12.991  17.563  0.00  0.00    +0.000 A 
ATOM     11  C   UNL     1      10.650  13.539  18.454  0.00  0.00    +0.000 A 
ATOM     12 CL   UNL     1      11.326  15.090  18.139  0.00  0.00    +0.000 Cl
ATOM     13  C   UNL     1      11.028  12.838  19.597  0.00  0.00    +0.000 A 
ATOM     14  C   UNL     1      10.484  11.577  19.848  0.00  0.00    +0.000 A 
ENDBRANCH   7   8
ENDBRANCH   6   7
ENDBRANCH   3   6
BRANCH   2  15
ATOM     15  S   UNL     1       6.781   5.452  18.361  0.00  0.00    +0.000 S 
BRANCH  15  16
ATOM     16  C   UNL     1       6.042   4.448  17.025  0.00  0.00    +0.000 C 
BRANCH  16  17
ATOM     17  C   UNL     1       4.711   3.869  17.513  0.00  0.00    +0.000 C 
BRANCH  17  18
ATOM     18  C   UNL     1       3.580   4.914  17.512  0.00  0.00    +0.000 C 
BRANCH  18  19
ATOM     19  N   UNL     1       2.408   4.493  18.311  0.00  0.00    +0.000 NA
ATOM     20  C   UNL     1       2.129   3.053  18.175  0.00  0.00    +0.000 C 
ATOM     21  C   UNL     1       0.874   2.649  18.951  0.00  0.00    +0.000 C 
ATOM     22  C   UNL     1       0.987   3.021  20.422  0.00  0.00    +0.000 C 
ATOM     23  C   UNL     1       1.362   4.490  20.567  0.00  0.00    +0.000 C 
ATOM     24  C   UNL     1       2.597   4.842  19.731  0.00  0.00    +0.000 C 
ENDBRANCH  18  19
ENDBRANCH  17  18
ENDBRANCH  16  17
ENDBRANCH  15  16
ENDBRANCH   2  15
TORSDOF 8
ENDMDL
MODEL 3
REMARK VINA RESULT:      -7.0      1.506      2.027
REMARK  Name = 
REMARK  8 active torsions:
REMARK  status: ('A' for Active; 'I' for Inactive)
REMARK    1  A    between atoms: C_2  and  S_13
REMARK    2  A    between atoms: N_3  and  C_4
REMARK    3  A    between atoms: C_4  and  C_5
REMARK    4  A    between atoms: C_5  and  C_6
REMARK    5  A    between atoms: S_13  and  C_14
REMARK    6  A    between atoms: C_14  and  C_15
REMARK    7  A    between atoms: C_15  and  C_16
REMARK    8  A    between atoms: C_16  and  N_17
REMARK                            x       y       z     vdW  Elec       q    Type
REMARK                         _______ _______ _______ _____ _____    ______ ____
ROOT
ATOM      1  N   UNL     1       7.721   5.512  19.824  0.00  0.00    +0.000 NA
ATOM      2  C   UNL     1       7.557   5.784  18.582  0.00  0.00    +0.000 C 
ATOM      3  N   UNL     1       7.622   7.018  18.002  0.00  0.00    +0.000 N 
ATOM      4  H   UNL     1       7.878   6.375  20.338  0.00  0.00    +0.000 HD
ATOM      5  H   UNL     1       7.599   6.949  16.989  0.00  0.00    +0.000 HD
ENDROOT
BRANCH   3   6
ATOM      6  C   UNL     1       8.462   8.088  18.519  0.00  0.00    +0.000 C 
BRANCH   6   7
ATOM      7  C   UNL     1       8.209   9.402  17.773  0.00  0.00    +0.000 C 
BRANCH   7   8
ATOM      8  C   UNL     1       8.851  10.574  18.479  0.00  0.00    +0.000 A 
ATOM      9  C   UNL     1       9.465  10.407  19.728  0.00  0.00    +0.000 A 
ATOM     10  C   UNL     1      10.026  11.504  20.393  0.00  0.00    +0.000 A 
ATOM     11  C   UNL     1       9.972  12.767  19.813  0.00  0.00    +0.000 A 
ATOM     12 CL   UNL     1      10.655  14.116  20.635  0.00  0.00    +0.000 Cl
ATOM     13  C   UNL     1       9.365  12.948  18.572  0.00  0.00    +0.000 A 
ATOM     14  C   UNL     1       8.804  11.855  17.909  0.00  0.00    +0.000 A 
ENDBRANCH   7   8
ENDBRANCH   6   7
ENDBRANCH   3   6
BRANCH   2  15
ATOM     15  S   UNL     1       7.251   4.496  17.447  0.00  0.00    +0.000 S 
BRANCH  15  16
ATOM     16  C   UNL     1       5.632   4.992  16.759  0.00  0.00    +0.000 C 
BRANCH  16  17
ATOM     17  C   UNL     1       4.739   5.496  17.896  0.00  0.00    +0.000 C 
BRANCH  17  18
ATOM     18  C   UNL     1       3.253   5.167  17.666  0.00  0.00    +0.000 C 
BRANCH  18  19
ATOM     19  N   UNL     1       2.749   4.115  18.577  0.00  0.00    +0.000 NA
ATOM     20  C   UNL     1       3.021   4.426  19.990  0.00  0.00    +0.000 C 
ATOM     21  C   UNL     1       2.558   3.297  20.912  0.00  0.00    +0.000 C 
ATOM     22  C   UNL     1       1.078   2.995  20.720  0.00  0.00    +0.000 C 
ATOM     23  C   UNL     1       0.775   2.759  19.246  0.00  0.00    +0.000 C 
ATOM     24  C   UNL     1       1.305   3.901  18.373  0.00  0.00    +0.000 C 
ENDBRANCH  18  19
ENDBRANCH  17  18
ENDBRANCH  16  17
ENDBRANCH  15  16
ENDBRANCH   2  15
TORSDOF 8
ENDMDL
MODEL 4
REMARK VINA RESULT:      -7.0      1.494      2.111
REMARK  Name = 
REMARK  8 active torsions:
REMARK  status: ('A' for Active; 'I' for Inactive)
REMARK    1  A    between atoms: C_2  and  S_13
REMARK    2  A    between atoms: N_3  and  C_4
REMARK    3  A    between atoms: C_4  and  C_5
REMARK    4  A    between atoms: C_5  and  C_6
REMARK    5  A    between atoms: S_13  and  C_14
REMARK    6  A    between atoms: C_14  and  C_15
REMARK    7  A    between atoms: C_15  and  C_16
REMARK    8  A    between atoms: C_16  and  N_17
REMARK                            x       y       z     vdW  Elec       q    Type
REMARK                         _______ _______ _______ _____ _____    ______ ____
ROOT
ATOM      1  N   UNL     1       7.984   5.431  19.981  0.00  0.00    +0.000 NA
ATOM      2  C   UNL     1       7.563   5.797  18.826  0.00  0.00    +0.000 C 
ATOM      3  N   UNL     1       7.576   7.064  18.319  0.00  0.00    +0.000 N 
ATOM      4  H   UNL     1       8.307   6.247  20.494  0.00  0.00    +0.000 HD
ATOM      5  H   UNL     1       7.322   7.068  17.335  0.00  0.00    +0.000 HD
ENDROOT
BRANCH   3   6
ATOM      6  C   UNL     1       8.577   8.052  18.691  0.00  0.00    +0.000 C 
BRANCH   6   7
ATOM      7  C   UNL     1       8.285   9.410  18.045  0.00  0.00    +0.000 C 
BRANCH   7   8
ATOM      8  C   UNL     1       9.255  10.470  18.515  0.00  0.00    +0.000 A 
ATOM      9  C   UNL     1      10.038  11.181  17.595  0.00  0.00    +0.000 A 
ATOM     10  C   UNL     1      10.960  12.134  18.040  0.00  0.00    +0.000 A 
ATOM     11  C   UNL     1      11.104  12.378  19.402  0.00  0.00    +0.000 A 
ATOM     12 CL   UNL     1      12.244  13.545  19.948  0.00  0.00    +0.000 Cl
ATOM     13  C   UNL     1      10.333  11.678  20.328  0.00  0.00    +0.000 A 
ATOM     14  C   UNL     1       9.412  10.726  19.885  0.00  0.00    +0.000 A 
ENDBRANCH   7   8
ENDBRANCH   6   7
ENDBRANCH   3   6
BRANCH   2  15
ATOM     15  S   UNL     1       6.929   4.609  17.719  0.00  0.00    +0.000 S 
BRANCH  15  16
ATOM     16  C   UNL     1       5.983   5.659  16.560  0.00  0.00    +0.000 C 
BRANCH  16  17
ATOM     17  C   UNL     1       4.509   5.659  16.975  0.00  0.00    +0.000 C 
BRANCH  17  18
ATOM     18  C   UNL     1       4.329   5.625  18.504  0.00  0.00    +0.000 C 
BRANCH  18  19
ATOM     19  N   UNL     1       3.417   4.548  18.950  0.00  0.00    +0.000 NA
ATOM     20  C   UNL     1       2.860   4.809  20.288  0.00  0.00    +0.000 C 
ATOM     21  C   UNL     1       1.976   3.654  20.763  0.00  0.00    +0.000 C 
ATOM     22  C   UNL     1       0.853   3.372  19.776  0.00  0.00    +0.000 C 
ATOM     23  C   UNL     1       1.417   3.187  18.373  0.00  0.00    +0.000 C 
ATOM     24  C   UNL     1       2.329   4.352  17.975  0.00  0.00    +0.000 C 
ENDBRANCH  18  19
ENDBRANCH  17  18
ENDBRANCH  16  17
ENDBRANCH  15  16
ENDBRANCH   2  15
TORSDOF 8
ENDMDL
MODEL 5
REMARK VINA RESULT:      -7.0      5.371      6.676
REMARK  Name = 
REMARK  8 active torsions:
REMARK  status: ('A' for Active; 'I' for Inactive)
REMARK    1  A    between atoms: C_2  and  S_13
REMARK    2  A    between atoms: N_3  and  C_4
REMARK    3  A    between atoms: C_4  and  C_5
REMARK    4  A    between atoms: C_5  and  C_6
REMARK    5  A    between atoms: S_13  and  C_14
REMARK    6  A    between atoms: C_14  and  C_15
REMARK    7  A    between atoms: C_15  and  C_16
REMARK    8  A    between atoms: C_16  and  N_17
REMARK                            x       y       z     vdW  Elec       q    Type
REMARK                         _______ _______ _______ _____ _____    ______ ____
ROOT
ATOM      1  N   UNL     1       5.093   6.750  15.587  0.00  0.00    +0.000 NA
ATOM      2  C   UNL     1       5.302   6.880  16.846  0.00  0.00    +0.000 C 
ATOM      3  N   UNL     1       4.429   7.382  17.768  0.00  0.00    +0.000 N 
ATOM      4  H   UNL     1       4.172   7.116  15.361  0.00  0.00    +0.000 HD
ATOM      5  H   UNL     1       4.776   7.246  18.714  0.00  0.00    +0.000 HD
ENDROOT
BRANCH   3   6
ATOM      6  C   UNL     1       2.985   7.270  17.630  0.00  0.00    +0.000 C 
BRANCH   6   7
ATOM      7  C   UNL     1       2.314   8.646  17.687  0.00  0.00    +0.000 C 
BRANCH   7   8
ATOM      8  C   UNL     1       1.570   8.848  18.988  0.00  0.00    +0.000 A 
ATOM      9  C   UNL     1       0.630   9.879  19.122  0.00  0.00    +0.000 A 
ATOM     10  C   UNL     1      -0.027  10.083  20.340  0.00  0.00    +0.000 A 
ATOM     11  C   UNL     1       0.255   9.261  21.426  0.00  0.00    +0.000 A 
ATOM     12 CL   UNL     1      -0.549   9.519  22.926  0.00  0.00    +0.000 Cl
ATOM     13  C   UNL     1       1.187   8.233  21.308  0.00  0.00    +0.000 A 
ATOM     14  C   UNL     1       1.844   8.028  20.093  0.00  0.00    +0.000 A 
ENDBRANCH   7   8
ENDBRANCH   6   7
ENDBRANCH   3   6
BRANCH   2  15
ATOM     15  S   UNL     1       6.815   6.352  17.533  0.00  0.00    +0.000 S 
BRANCH  15  16
ATOM     16  C   UNL     1       6.643   4.535  17.439  0.00  0.00    +0.000 C 
BRANCH  16  17
ATOM     17  C   UNL     1       5.457   4.099  18.304  0.00  0.00    +0.000 C 
BRANCH  17  18
ATOM     18  C   UNL     1       4.268   3.601  17.462  0.00  0.00    +0.000 C 
BRANCH  18  19
ATOM     19  N   UNL     1       2.976   3.702  18.176  0.00  0.00    +0.000 NA
ATOM     20  C   UNL     1       2.243   2.425  18.185  0.00  0.00    +0.000 C 
ATOM     21  C   UNL     1       0.880   2.564  18.866  0.00  0.00    +0.000 C 
ATOM     22  C   UNL     1       1.020   3.095  20.286  0.00  0.00    +0.000 C 
ATOM     23  C   UNL     1       1.852   4.370  20.292  0.00  0.00    +0.000 C 
ATOM     24  C   UNL     1       3.183   4.179  19.557  0.00  0.00    +0.000 C 
ENDBRANCH  18  19
ENDBRANCH  17  18
ENDBRANCH  16  17
ENDBRANCH  15  16
ENDBRANCH   2  15
TORSDOF 8
ENDMDL
MODEL 6
REMARK VINA RESULT:      -6.9      1.600      1.956
REMARK  Name = 
REMARK  8 active torsions:
REMARK  status: ('A' for Active; 'I' for Inactive)
REMARK    1  A    between atoms: C_2  and  S_13
REMARK    2  A    between atoms: N_3  and  C_4
REMARK    3  A    between atoms: C_4  and  C_5
REMARK    4  A    between atoms: C_5  and  C_6
REMARK    5  A    between atoms: S_13  and  C_14
REMARK    6  A    between atoms: C_14  and  C_15
REMARK    7  A    between atoms: C_15  and  C_16
REMARK    8  A    between atoms: C_16  and  N_17
REMARK                            x       y       z     vdW  Elec       q    Type
REMARK                         _______ _______ _______ _____ _____    ______ ____
ROOT
ATOM      1  N   UNL     1       5.372   7.098  17.016  0.00  0.00    +0.000 NA
ATOM      2  C   UNL     1       6.585   6.684  17.050  0.00  0.00    +0.000 C 
ATOM      3  N   UNL     1       7.710   7.457  17.044  0.00  0.00    +0.000 N 
ATOM      4  H   UNL     1       5.366   8.112  16.946  0.00  0.00    +0.000 HD
ATOM      5  H   UNL     1       8.540   6.899  17.222  0.00  0.00    +0.000 HD
ENDROOT
BRANCH   3   6
ATOM      6  C   UNL     1       7.748   8.798  17.607  0.00  0.00    +0.000 C 
BRANCH   6   7
ATOM      7  C   UNL     1       8.740   8.883  18.772  0.00  0.00    +0.000 C 
BRANCH   7   8
ATOM      8  C   UNL     1       9.193  10.305  19.013  0.00  0.00    +0.000 A 
ATOM      9  C   UNL     1       9.615  10.715  20.285  0.00  0.00    +0.000 A 
ATOM     10  C   UNL     1       9.998  12.042  20.509  0.00  0.00    +0.000 A 
ATOM     11  C   UNL     1       9.959  12.961  19.465  0.00  0.00    +0.000 A 
ATOM     12 CL   UNL     1      10.423  14.594  19.745  0.00  0.00    +0.000 Cl
ATOM     13  C   UNL     1       9.541  12.568  18.196  0.00  0.00    +0.000 A 
ATOM     14  C   UNL     1       9.158  11.244  17.971  0.00  0.00    +0.000 A 
ENDBRANCH   7   8
ENDBRANCH   6   7
ENDBRANCH   3   6
BRANCH   2  15
ATOM     15  S   UNL     1       6.915   4.975  17.153  0.00  0.00    +0.000 S 
BRANCH  15  16
ATOM     16  C   UNL     1       5.517   4.276  16.206  0.00  0.00    +0.000 C 
BRANCH  16  17
ATOM     17  C   UNL     1       4.681   3.387  17.131  0.00  0.00    +0.000 C 
BRANCH  17  18
ATOM     18  C   UNL     1       3.296   3.989  17.432  0.00  0.00    +0.000 C 
BRANCH  18  19
ATOM     19  N   UNL     1       2.692   3.448  18.670  0.00  0.00    +0.000 NA
ATOM     20  C   UNL     1       3.698   3.185  19.712  0.00  0.00    +0.000 C 
ATOM     21  C   UNL     1       3.066   2.562  20.958  0.00  0.00    +0.000 C 
ATOM     22  C   UNL     1       1.955   3.441  21.516  0.00  0.00    +0.000 C 
ATOM     23  C   UNL     1       0.957   3.790  20.420  0.00  0.00    +0.000 C 
ATOM     24  C   UNL     1       1.656   4.365  19.183  0.00  0.00    +0.000 C 
ENDBRANCH  18  19
ENDBRANCH  17  18
ENDBRANCH  16  17
ENDBRANCH  15  16
ENDBRANCH   2  15
TORSDOF 8
ENDMDL
MODEL 7
REMARK VINA RESULT:      -6.9      0.704      1.250
REMARK  Name = 
REMARK  8 active torsions:
REMARK  status: ('A' for Active; 'I' for Inactive)
REMARK    1  A    between atoms: C_2  and  S_13
REMARK    2  A    between atoms: N_3  and  C_4
REMARK    3  A    between atoms: C_4  and  C_5
REMARK    4  A    between atoms: C_5  and  C_6
REMARK    5  A    between atoms: S_13  and  C_14
REMARK    6  A    between atoms: C_14  and  C_15
REMARK    7  A    between atoms: C_15  and  C_16
REMARK    8  A    between atoms: C_16  and  N_17
REMARK                            x       y       z     vdW  Elec       q    Type
REMARK                         _______ _______ _______ _____ _____    ______ ____
ROOT
ATOM      1  N   UNL     1       7.559   6.343  16.189  0.00  0.00    +0.000 NA
ATOM      2  C   UNL     1       7.253   6.529  17.420  0.00  0.00    +0.000 C 
ATOM      3  N   UNL     1       7.733   7.509  18.240  0.00  0.00    +0.000 N 
ATOM      4  H   UNL     1       8.257   7.028  15.910  0.00  0.00    +0.000 HD
ATOM      5  H   UNL     1       7.230   7.529  19.122  0.00  0.00    +0.000 HD
ENDROOT
BRANCH   3   6
ATOM      6  C   UNL     1       8.148   8.814  17.748  0.00  0.00    +0.000 C 
BRANCH   6   7
ATOM      7  C   UNL     1       9.033   9.536  18.770  0.00  0.00    +0.000 C 
BRANCH   7   8
ATOM      8  C   UNL     1       9.536  10.857  18.234  0.00  0.00    +0.000 A 
ATOM      9  C   UNL     1      10.907  11.079  18.049  0.00  0.00    +0.000 A 
ATOM     10  C   UNL     1      11.368  12.317  17.588  0.00  0.00    +0.000 A 
ATOM     11  C   UNL     1      10.461  13.335  17.312  0.00  0.00    +0.000 A 
ATOM     12 CL   UNL     1      11.030  14.860  16.752  0.00  0.00    +0.000 Cl
ATOM     13  C   UNL     1       9.095  13.129  17.491  0.00  0.00    +0.000 A 
ATOM     14  C   UNL     1       8.634  11.894  17.953  0.00  0.00    +0.000 A 
ENDBRANCH   7   8
ENDBRANCH   6   7
ENDBRANCH   3   6
BRANCH   2  15
ATOM     15  S   UNL     1       6.084   5.488  18.189  0.00  0.00    +0.000 S 
BRANCH  15  16
ATOM     16  C   UNL     1       4.664   5.629  17.047  0.00  0.00    +0.000 C 
BRANCH  16  17
ATOM     17  C   UNL     1       3.628   6.580  17.652  0.00  0.00    +0.000 C 
BRANCH  17  18
ATOM     18  C   UNL     1       2.262   5.903  17.868  0.00  0.00    +0.000 C 
BRANCH  18  19
ATOM     19  N   UNL     1       2.333   4.750  18.793  0.00  0.00    +0.000 NA
ATOM     20  C   UNL     1       2.139   5.150  20.197  0.00  0.00    +0.000 C 
ATOM     21  C   UNL     1       2.284   3.959  21.146  0.00  0.00    +0.000 C 
ATOM     22  C   UNL     1       1.317   2.840  20.784  0.00  0.00    +0.000 C 
ATOM     23  C   UNL     1       1.453   2.482  19.310  0.00  0.00    +0.000 C 
ATOM     24  C   UNL     1       1.345   3.722  18.417  0.00  0.00    +0.000 C 
ENDBRANCH  18  19
ENDBRANCH  17  18
ENDBRANCH  16  17
ENDBRANCH  15  16
ENDBRANCH   2  15
TORSDOF 8
ENDMDL
MODEL 8
REMARK VINA RESULT:      -6.9      1.107      1.757
REMARK  Name = 
REMARK  8 active torsions:
REMARK  status: ('A' for Active; 'I' for Inactive)
REMARK    1  A    between atoms: C_2  and  S_13
REMARK    2  A    between atoms: N_3  and  C_4
REMARK    3  A    between atoms: C_4  and  C_5
REMARK    4  A    between atoms: C_5  and  C_6
REMARK    5  A    between atoms: S_13  and  C_14
REMARK    6  A    between atoms: C_14  and  C_15
REMARK    7  A    between atoms: C_15  and  C_16
REMARK    8  A    between atoms: C_16  and  N_17
REMARK                            x       y       z     vdW  Elec       q    Type
REMARK                         _______ _______ _______ _____ _____    ______ ____
ROOT
ATOM      1  N   UNL     1       6.267   7.350  16.493  0.00  0.00    +0.000 NA
ATOM      2  C   UNL     1       7.048   6.926  17.418  0.00  0.00    +0.000 C 
ATOM      3  N   UNL     1       8.108   7.595  17.959  0.00  0.00    +0.000 N 
ATOM      4  H   UNL     1       6.579   8.267  16.186  0.00  0.00    +0.000 HD
ATOM      5  H   UNL     1       8.475   7.106  18.771  0.00  0.00    +0.000 HD
ENDROOT
BRANCH   3   6
ATOM      6  C   UNL     1       8.161   9.046  18.050  0.00  0.00    +0.000 C 
BRANCH   6   7
ATOM      7  C   UNL     1       9.048   9.498  19.214  0.00  0.00    +0.000 C 
BRANCH   7   8
ATOM      8  C   UNL     1       9.529  10.919  19.028  0.00  0.00    +0.000 A 
ATOM      9  C   UNL     1       9.177  11.649  17.884  0.00  0.00    +0.000 A 
ATOM     10  C   UNL     1       9.655  12.951  17.701  0.00  0.00    +0.000 A 
ATOM     11  C   UNL     1      10.487  13.525  18.657  0.00  0.00    +0.000 A 
ATOM     12 CL   UNL     1      11.081  15.123  18.426  0.00  0.00    +0.000 Cl
ATOM     13  C   UNL     1      10.846  12.811  19.798  0.00  0.00    +0.000 A 
ATOM     14  C   UNL     1      10.370  11.511  19.982  0.00  0.00    +0.000 A 
ENDBRANCH   7   8
ENDBRANCH   6   7
ENDBRANCH   3   6
BRANCH   2  15
ATOM     15  S   UNL     1       6.772   5.361  18.136  0.00  0.00    +0.000 S 
BRANCH  15  16
ATOM     16  C   UNL     1       6.265   4.378  16.681  0.00  0.00    +0.000 C 
BRANCH  16  17
ATOM     17  C   UNL     1       4.816   3.918  16.869  0.00  0.00    +0.000 C 
BRANCH  17  18
ATOM     18  C   UNL     1       3.992   4.905  17.718  0.00  0.00    +0.000 C 
BRANCH  18  19
ATOM     19  N   UNL     1       3.216   4.235  18.785  0.00  0.00    +0.000 NA
ATOM     20  C   UNL     1       2.821   5.166  19.855  0.00  0.00    +0.000 C 
ATOM     21  C   UNL     1       2.081   4.445  20.982  0.00  0.00    +0.000 C 
ATOM     22  C   UNL     1       0.859   3.704  20.460  0.00  0.00    +0.000 C 
ATOM     23  C   UNL     1       1.247   2.804  19.294  0.00  0.00    +0.000 C 
ATOM     24  C   UNL     1       2.024   3.574  18.222  0.00  0.00    +0.000 C 
ENDBRANCH  18  19
ENDBRANCH  17  18
ENDBRANCH  16  17
ENDBRANCH  15  16
ENDBRANCH   2  15
TORSDOF 8
ENDMDL
MODEL 9
REMARK VINA RESULT:      -6.8      1.143      1.744
REMARK  Name = 
REMARK  8 active torsions:
REMARK  status: ('A' for Active; 'I' for Inactive)
REMARK    1  A    between atoms: C_2  and  S_13
REMARK    2  A    between atoms: N_3  and  C_4
REMARK    3  A    between atoms: C_4  and  C_5
REMARK    4  A    between atoms: C_5  and  C_6
REMARK    5  A    between atoms: S_13  and  C_14
REMARK    6  A    between atoms: C_14  and  C_15
REMARK    7  A    between atoms: C_15  and  C_16
REMARK    8  A    between atoms: C_16  and  N_17
REMARK                            x       y       z     vdW  Elec       q    Type
REMARK                         _______ _______ _______ _____ _____    ______ ____
ROOT
ATOM      1  N   UNL     1       7.509   6.480  16.247  0.00  0.00    +0.000 NA
ATOM      2  C   UNL     1       7.064   6.788  17.410  0.00  0.00    +0.000 C 
ATOM      3  N   UNL     1       7.575   7.732  18.253  0.00  0.00    +0.000 N 
ATOM      4  H   UNL     1       8.341   7.030  16.050  0.00  0.00    +0.000 HD
ATOM      5  H   UNL     1       6.961   7.885  19.048  0.00  0.00    +0.000 HD
ENDROOT
BRANCH   3   6
ATOM      6  C   UNL     1       8.262   8.923  17.780  0.00  0.00    +0.000 C 
BRANCH   6   7
ATOM      7  C   UNL     1       9.113   9.552  18.888  0.00  0.00    +0.000 C 
BRANCH   7   8
ATOM      8  C   UNL     1       9.579  10.940  18.512  0.00  0.00    +0.000 A 
ATOM      9  C   UNL     1       8.710  11.838  17.876  0.00  0.00    +0.000 A 
ATOM     10  C   UNL     1       9.159  13.108  17.498  0.00  0.00    +0.000 A 
ATOM     11  C   UNL     1      10.475  13.482  17.751  0.00  0.00    +0.000 A 
ATOM     12 CL   UNL     1      11.027  15.042  17.277  0.00  0.00    +0.000 Cl
ATOM     13  C   UNL     1      11.349  12.600  18.382  0.00  0.00    +0.000 A 
ATOM     14  C   UNL     1      10.903  11.332  18.759  0.00  0.00    +0.000 A 
ENDBRANCH   7   8
ENDBRANCH   6   7
ENDBRANCH   3   6
BRANCH   2  15
ATOM     15  S   UNL     1       5.644   5.991  18.034  0.00  0.00    +0.000 S 
BRANCH  15  16
ATOM     16  C   UNL     1       5.784   4.341  17.262  0.00  0.00    +0.000 C 
BRANCH  16  17
ATOM     17  C   UNL     1       4.409   3.913  16.743  0.00  0.00    +0.000 C 
BRANCH  17  18
ATOM     18  C   UNL     1       3.782   2.792  17.593  0.00  0.00    +0.000 C 
BRANCH  18  19
ATOM     19  N   UNL     1       3.189   3.290  18.853  0.00  0.00    +0.000 NA
ATOM     20  C   UNL     1       1.795   3.733  18.677  0.00  0.00    +0.000 C 
ATOM     21  C   UNL     1       1.221   4.309  19.972  0.00  0.00    +0.000 C 
ATOM     22  C   UNL     1       1.308   3.306  21.113  0.00  0.00    +0.000 C 
ATOM     23  C   UNL     1       2.731   2.779  21.244  0.00  0.00    +0.000 C 
ATOM     24  C   UNL     1       3.265   2.259  19.905  0.00  0.00    +0.000 C 
ENDBRANCH  18  19
ENDBRANCH  17  18
ENDBRANCH  16  17
ENDBRANCH  15  16
ENDBRANCH   2  15
TORSDOF 8
ENDMDL
