MODEL 1
REMARK VINA RESULT:      -7.3      0.000      0.000
REMARK  Name = 
REMARK  7 active torsions:
REMARK  status: ('A' for Active; 'I' for Inactive)
REMARK    1  A    between atoms: C_1  and  C_2
REMARK    2  A    between atoms: C_8  and  C_9
REMARK    3  A    between atoms: C_9  and  N_10
REMARK    4  A    between atoms: C_11  and  C_13
REMARK    5  A    between atoms: N_19  and  C_20
REMARK    6  A    between atoms: C_20  and  C_21
REMARK    7  A    between atoms: C_20  and  C_22
REMARK                            x       y       z     vdW  Elec       q    Type
REMARK                         _______ _______ _______ _____ _____    ______ ____
ROOT
ATOM      1  N   UNL     1       2.438   7.023  19.890  0.00  0.00    +0.000 N 
ATOM      2  C   UNL     1       2.936   5.732  19.947  0.00  0.00    +0.000 C 
ATOM      3  O   UNL     1       2.493   4.874  20.703  0.00  0.00    +0.000 OA
ATOM      4  H   UNL     1       2.946   7.695  19.326  0.00  0.00    +0.000 HD
ENDROOT
BRANCH   2   5
ATOM      5  C   UNL     1       4.067   5.462  18.967  0.00  0.00    +0.000 C 
ATOM      6  C   UNL     1       4.224   6.542  17.875  0.00  0.00    +0.000 C 
ATOM      7  C   UNL     1       5.096   5.987  16.749  0.00  0.00    +0.000 C 
ATOM      8  S   UNL     1       5.584   4.354  17.260  0.00  0.00    +0.000 S 
ATOM      9  O   UNL     1       5.627   3.465  16.129  0.00  0.00    +0.000 OA
ATOM     10  O   UNL     1       6.700   4.488  18.171  0.00  0.00    +0.000 OA
ATOM     11  N   UNL     1       4.130   4.117  18.247  0.00  0.00    +0.000 NA
BRANCH  11  12
ATOM     12  C   UNL     1       2.880   3.702  17.472  0.00  0.00    +0.000 C 
ATOM     13  C   UNL     1       2.382   2.314  17.904  0.00  0.00    +0.000 C 
ATOM     14  C   UNL     1       1.709   4.653  17.737  0.00  0.00    +0.000 C 
ENDBRANCH  11  12
ENDBRANCH   2   5
BRANCH   1  15
ATOM     15  C   UNL     1       1.496   7.527  20.868  0.00  0.00    +0.000 C 
BRANCH  15  23
ATOM     16  C   UNL     1      -0.149   9.207  22.776  0.00  0.00    +0.000 C 
ATOM     17  C   UNL     1       0.120   9.665  21.364  0.00  0.00    +0.000 A 
ATOM     18  C   UNL     1      -0.408  10.879  20.874  0.00  0.00    +0.000 A 
ATOM     19 CL   UNL     1      -1.401  11.924  21.836  0.00  0.00    +0.000 Cl
ATOM     20  C   UNL     1      -0.161  11.299  19.563  0.00  0.00    +0.000 A 
ATOM     21  C   UNL     1       0.632  10.531  18.721  0.00  0.00    +0.000 A 
ATOM     22  C   UNL     1       1.171   9.334  19.185  0.00  0.00    +0.000 A 
ATOM     23  C   UNL     1       0.918   8.875  20.494  0.00  0.00    +0.000 A 
ENDBRANCH  15  23
ENDBRANCH   1  15
TORSDOF 4
ENDMDL
MODEL 2
REMARK VINA RESULT:      -7.2      1.904      3.182
REMARK  Name = 
REMARK  7 active torsions:
REMARK  status: ('A' for Active; 'I' for Inactive)
REMARK    1  A    between atoms: C_1  and  C_2
REMARK    2  A    between atoms: C_8  and  C_9
REMARK    3  A    between atoms: C_9  and  N_10
REMARK    4  A    between atoms: C_11  and  C_13
REMARK    5  A    between atoms: N_19  and  C_20
REMARK    6  A    between atoms: C_20  and  C_21
REMARK    7  A    between atoms: C_20  and  C_22
REMARK                            x       y       z     vdW  Elec       q    Type
REMARK                         _______ _______ _______ _____ _____    ______ ____
ROOT
ATOM      1  N   UNL     1       1.732   8.249  19.398  0.00  0.00    +0.000 N 
ATOM      2  C   UNL     1       2.242   7.708  18.230  0.00  0.00    +0.000 C 
ATOM      3  O   UNL     1       2.601   8.389  17.275  0.00  0.00    +0.000 OA
ATOM      4  H   UNL     1       1.348   7.606  20.082  0.00  0.00    +0.000 HD
ENDROOT
BRANCH   2   5
ATOM      5  C   UNL     1       2.344   6.191  18.245  0.00  0.00    +0.000 C 
ATOM      6  C   UNL     1       2.234   5.566  19.652  0.00  0.00    +0.000 C 
ATOM      7  C   UNL     1       2.735   4.123  19.596  0.00  0.00    +0.000 C 
ATOM      8  S   UNL     1       3.157   3.811  17.896  0.00  0.00    +0.000 S 
ATOM      9  O   UNL     1       4.319   2.968  17.813  0.00  0.00    +0.000 OA
ATOM     10  O   UNL     1       1.935   3.503  17.184  0.00  0.00    +0.000 OA
ATOM     11  N   UNL     1       3.535   5.513  17.571  0.00  0.00    +0.000 NA
BRANCH  11  12
ATOM     12  C   UNL     1       4.921   5.968  18.023  0.00  0.00    +0.000 C 
ATOM     13  C   UNL     1       5.848   4.772  18.295  0.00  0.00    +0.000 C 
ATOM     14  C   UNL     1       5.628   6.791  16.942  0.00  0.00    +0.000 C 
ENDBRANCH  11  12
ENDBRANCH   2   5
BRANCH   1  15
ATOM     15  C   UNL     1       1.382   9.650  19.507  0.00  0.00    +0.000 C 
BRANCH  15  23
ATOM     16  C   UNL     1      -0.547  11.981  19.635  0.00  0.00    +0.000 C 
ATOM     17  C   UNL     1      -0.354  11.061  20.814  0.00  0.00    +0.000 A 
ATOM     18  C   UNL     1      -1.046  11.269  22.028  0.00  0.00    +0.000 A 
ATOM     19 CL   UNL     1      -2.149  12.585  22.261  0.00  0.00    +0.000 Cl
ATOM     20  C   UNL     1      -0.862  10.417  23.121  0.00  0.00    +0.000 A 
ATOM     21  C   UNL     1      -0.002   9.331  23.023  0.00  0.00    +0.000 A 
ATOM     22  C   UNL     1       0.683   9.099  21.834  0.00  0.00    +0.000 A 
ATOM     23  C   UNL     1       0.535   9.956  20.723  0.00  0.00    +0.000 A 
ENDBRANCH  15  23
ENDBRANCH   1  15
TORSDOF 4
ENDMDL
MODEL 3
REMARK VINA RESULT:      -7.1      1.921      2.737
REMARK  Name = 
REMARK  7 active torsions:
REMARK  status: ('A' for Active; 'I' for Inactive)
REMARK    1  A    between atoms: C_1  and  C_2
REMARK    2  A    between atoms: C_8  and  C_9
REMARK    3  A    between atoms: C_9  and  N_10
REMARK    4  A    between atoms: C_11  and  C_13
REMARK    5  A    between atoms: N_19  and  C_20
REMARK    6  A    between atoms: C_20  and  C_21
REMARK    7  A    between atoms: C_20  and  C_22
REMARK                            x       y       z     vdW  Elec       q    Type
REMARK                         _______ _______ _______ _____ _____    ______ ____
ROOT
ATOM      1  N   UNL     1       2.689   6.805  18.769  0.00  0.00    +0.000 N 
ATOM      2  C   UNL     1       3.770   5.942  18.824  0.00  0.00    +0.000 C 
ATOM      3  O   UNL     1       4.146   5.400  19.857  0.00  0.00    +0.000 OA
ATOM      4  H   UNL     1       2.528   7.301  17.900  0.00  0.00    +0.000 HD
ENDROOT
BRANCH   2   5
ATOM      5  C   UNL     1       4.438   5.704  17.478  0.00  0.00    +0.000 C 
ATOM      6  C   UNL     1       4.372   4.239  16.994  0.00  0.00    +0.000 C 
ATOM      7  C   UNL     1       5.387   4.043  15.867  0.00  0.00    +0.000 C 
ATOM      8  S   UNL     1       6.135   5.633  15.592  0.00  0.00    +0.000 S 
ATOM      9  O   UNL     1       7.530   5.484  15.273  0.00  0.00    +0.000 OA
ATOM     10  O   UNL     1       5.238   6.409  14.762  0.00  0.00    +0.000 OA
ATOM     11  N   UNL     1       5.881   6.157  17.267  0.00  0.00    +0.000 NA
BRANCH  11  12
ATOM     12  C   UNL     1       6.909   5.641  18.272  0.00  0.00    +0.000 C 
ATOM     13  C   UNL     1       7.735   4.482  17.692  0.00  0.00    +0.000 C 
ATOM     14  C   UNL     1       7.931   6.721  18.640  0.00  0.00    +0.000 C 
ENDBRANCH  11  12
ENDBRANCH   2   5
BRANCH   1  15
ATOM     15  C   UNL     1       2.043   7.304  19.967  0.00  0.00    +0.000 C 
BRANCH  15  23
ATOM     16  C   UNL     1       0.974   8.943  22.277  0.00  0.00    +0.000 C 
ATOM     17  C   UNL     1       0.952   9.475  20.866  0.00  0.00    +0.000 A 
ATOM     18  C   UNL     1       0.407  10.743  20.568  0.00  0.00    +0.000 A 
ATOM     19 CL   UNL     1      -0.278  11.775  21.780  0.00  0.00    +0.000 Cl
ATOM     20  C   UNL     1       0.384  11.232  19.258  0.00  0.00    +0.000 A 
ATOM     21  C   UNL     1       0.919  10.478  18.222  0.00  0.00    +0.000 A 
ATOM     22  C   UNL     1       1.471   9.229  18.492  0.00  0.00    +0.000 A 
ATOM     23  C   UNL     1       1.485   8.701  19.800  0.00  0.00    +0.000 A 
ENDBRANCH  15  23
ENDBRANCH   1  15
TORSDOF 4
ENDMDL
MODEL 4
REMARK VINA RESULT:      -7.1      4.635      7.739
REMARK  Name = 
REMARK  7 active torsions:
REMARK  status: ('A' for Active; 'I' for Inactive)
REMARK    1  A    between atoms: C_1  and  C_2
REMARK    2  A    between atoms: C_8  and  C_9
REMARK    3  A    between atoms: C_9  and  N_10
REMARK    4  A    between atoms: C_11  and  C_13
REMARK    5  A    between atoms: N_19  and  C_20
REMARK    6  A    between atoms: C_20  and  C_21
REMARK    7  A    between atoms: C_20  and  C_22
REMARK                            x       y       z     vdW  Elec       q    Type
REMARK                         _______ _______ _______ _____ _____    ______ ____
ROOT
ATOM      1  N   UNL     1       1.957   7.808  19.265  0.00  0.00    +0.000 N 
ATOM      2  C   UNL     1       1.704   9.081  18.780  0.00  0.00    +0.000 C 
ATOM      3  O   UNL     1       1.845   9.391  17.603  0.00  0.00    +0.000 OA
ATOM      4  H   UNL     1       1.932   7.676  20.270  0.00  0.00    +0.000 HD
ENDROOT
BRANCH   2   5
ATOM      5  C   UNL     1       1.208  10.056  19.837  0.00  0.00    +0.000 C 
ATOM      6  C   UNL     1       0.815   9.390  21.173  0.00  0.00    +0.000 C 
ATOM      7  C   UNL     1      -0.019  10.375  21.993  0.00  0.00    +0.000 C 
ATOM      8  S   UNL     1      -0.094  11.874  21.038  0.00  0.00    +0.000 S 
ATOM      9  O   UNL     1      -1.382  12.497  21.180  0.00  0.00    +0.000 OA
ATOM     10  O   UNL     1       1.137  12.604  21.258  0.00  0.00    +0.000 OA
ATOM     11  N   UNL     1       0.075  11.020  19.493  0.00  0.00    +0.000 NA
BRANCH  11  12
ATOM     12  C   UNL     1      -1.210  10.394  18.954  0.00  0.00    +0.000 C 
ATOM     13  C   UNL     1      -2.378  11.394  18.972  0.00  0.00    +0.000 C 
ATOM     14  C   UNL     1      -1.062   9.971  17.489  0.00  0.00    +0.000 C 
ENDBRANCH  11  12
ENDBRANCH   2   5
BRANCH   1  15
ATOM     15  C   UNL     1       2.613   6.796  18.461  0.00  0.00    +0.000 C 
BRANCH  15  23
ATOM     16  C   UNL     1       3.891   4.356  17.205  0.00  0.00    +0.000 C 
ATOM     17  C   UNL     1       3.017   4.238  18.429  0.00  0.00    +0.000 A 
ATOM     18  C   UNL     1       2.743   2.983  19.016  0.00  0.00    +0.000 A 
ATOM     19 CL   UNL     1       3.370   1.497  18.383  0.00  0.00    +0.000 Cl
ATOM     20  C   UNL     1       1.929   2.877  20.148  0.00  0.00    +0.000 A 
ATOM     21  C   UNL     1       1.388   4.016  20.730  0.00  0.00    +0.000 A 
ATOM     22  C   UNL     1       1.653   5.265  20.175  0.00  0.00    +0.000 A 
ATOM     23  C   UNL     1       2.450   5.399  19.019  0.00  0.00    +0.000 A 
ENDBRANCH  15  23
ENDBRANCH   1  15
TORSDOF 4
ENDMDL
MODEL 5
REMARK VINA RESULT:      -7.1      4.588      7.320
REMARK  Name = 
REMARK  7 active torsions:
REMARK  status: ('A' for Active; 'I' for Inactive)
REMARK    1  A    between atoms: C_1  and  C_2
REMARK    2  A    between atoms: C_8  and  C_9
REMARK    3  A    between atoms: C_9  and  N_10
REMARK    4  A    between atoms: C_11  and  C_13
REMARK    5  A    between atoms: N_19  and  C_20
REMARK    6  A    between atoms: C_20  and  C_21
REMARK    7  A    between atoms: C_20  and  C_22
REMARK                            x       y       z     vdW  Elec       q    Type
REMARK                         _______ _______ _______ _____ _____    ______ ____
ROOT
ATOM      1  N   UNL     1       1.667   8.034  20.605  0.00  0.00    +0.000 N 
ATOM      2  C   UNL     1       0.597   8.845  20.945  0.00  0.00    +0.000 C 
ATOM      3  O   UNL     1      -0.374   8.444  21.578  0.00  0.00    +0.000 OA
ATOM      4  H   UNL     1       2.364   8.419  19.977  0.00  0.00    +0.000 HD
ENDROOT
BRANCH   2   5
ATOM      5  C   UNL     1       0.744  10.287  20.487  0.00  0.00    +0.000 C 
ATOM      6  C   UNL     1       0.205  11.326  21.494  0.00  0.00    +0.000 C 
ATOM      7  C   UNL     1       0.042  12.669  20.783  0.00  0.00    +0.000 C 
ATOM      8  S   UNL     1       0.619  12.421  19.118  0.00  0.00    +0.000 S 
ATOM      9  O   UNL     1      -0.180  13.176  18.191  0.00  0.00    +0.000 OA
ATOM     10  O   UNL     1       2.064  12.509  19.131  0.00  0.00    +0.000 OA
ATOM     11  N   UNL     1       0.201  10.698  19.120  0.00  0.00    +0.000 NA
BRANCH  11  12
ATOM     12  C   UNL     1      -1.271  10.387  18.853  0.00  0.00    +0.000 C 
ATOM     13  C   UNL     1      -2.153  11.633  19.027  0.00  0.00    +0.000 C 
ATOM     14  C   UNL     1      -1.498   9.928  17.409  0.00  0.00    +0.000 C 
ENDBRANCH  11  12
ENDBRANCH   2   5
BRANCH   1  15
ATOM     15  C   UNL     1       1.630   6.597  20.784  0.00  0.00    +0.000 C 
BRANCH  15  23
ATOM     16  C   UNL     1       0.962   3.702  20.197  0.00  0.00    +0.000 C 
ATOM     17  C   UNL     1       1.927   4.473  19.331  0.00  0.00    +0.000 A 
ATOM     18  C   UNL     1       2.573   3.864  18.232  0.00  0.00    +0.000 A 
ATOM     19 CL   UNL     1       2.321   2.205  17.801  0.00  0.00    +0.000 Cl
ATOM     20  C   UNL     1       3.470   4.580  17.433  0.00  0.00    +0.000 A 
ATOM     21  C   UNL     1       3.727   5.919  17.698  0.00  0.00    +0.000 A 
ATOM     22  C   UNL     1       3.095   6.543  18.770  0.00  0.00    +0.000 A 
ATOM     23  C   UNL     1       2.204   5.839  19.607  0.00  0.00    +0.000 A 
ENDBRANCH  15  23
ENDBRANCH   1  15
TORSDOF 4
ENDMDL
MODEL 6
REMARK VINA RESULT:      -7.0      1.717      2.520
REMARK  Name = 
REMARK  7 active torsions:
REMARK  status: ('A' for Active; 'I' for Inactive)
REMARK    1  A    between atoms: C_1  and  C_2
REMARK    2  A    between atoms: C_8  and  C_9
REMARK    3  A    between atoms: C_9  and  N_10
REMARK    4  A    between atoms: C_11  and  C_13
REMARK    5  A    between atoms: N_19  and  C_20
REMARK    6  A    between atoms: C_20  and  C_21
REMARK    7  A    between atoms: C_20  and  C_22
REMARK                            x       y       z     vdW  Elec       q    Type
REMARK                         _______ _______ _______ _____ _____    ______ ____
ROOT
ATOM      1  N   UNL     1       2.311   8.070  19.107  0.00  0.00    +0.000 N 
ATOM      2  C   UNL     1       3.007   7.637  17.991  0.00  0.00    +0.000 C 
ATOM      3  O   UNL     1       2.873   8.137  16.880  0.00  0.00    +0.000 OA
ATOM      4  H   UNL     1       2.394   7.519  19.954  0.00  0.00    +0.000 HD
ENDROOT
BRANCH   2   5
ATOM      5  C   UNL     1       3.978   6.500  18.272  0.00  0.00    +0.000 C 
ATOM      6  C   UNL     1       4.428   5.732  17.010  0.00  0.00    +0.000 C 
ATOM      7  C   UNL     1       5.061   4.407  17.436  0.00  0.00    +0.000 C 
ATOM      8  S   UNL     1       5.043   4.398  19.215  0.00  0.00    +0.000 S 
ATOM      9  O   UNL     1       4.785   3.071  19.708  0.00  0.00    +0.000 OA
ATOM     10  O   UNL     1       6.169   5.181  19.676  0.00  0.00    +0.000 OA
ATOM     11  N   UNL     1       3.610   5.440  19.307  0.00  0.00    +0.000 NA
BRANCH  11  12
ATOM     12  C   UNL     1       2.275   4.727  19.105  0.00  0.00    +0.000 C 
ATOM     13  C   UNL     1       2.472   3.242  18.762  0.00  0.00    +0.000 C 
ATOM     14  C   UNL     1       1.429   4.738  20.382  0.00  0.00    +0.000 C 
ENDBRANCH  11  12
ENDBRANCH   2   5
BRANCH   1  15
ATOM     15  C   UNL     1       1.210   9.007  19.010  0.00  0.00    +0.000 C 
BRANCH  15  23
ATOM     16  C   UNL     1      -0.924  11.128  19.354  0.00  0.00    +0.000 C 
ATOM     17  C   UNL     1      -0.332  10.415  20.544  0.00  0.00    +0.000 A 
ATOM     18  C   UNL     1      -0.732  10.730  21.861  0.00  0.00    +0.000 A 
ATOM     19 CL   UNL     1      -1.910  11.949  22.215  0.00  0.00    +0.000 Cl
ATOM     20  C   UNL     1      -0.178  10.069  22.963  0.00  0.00    +0.000 A 
ATOM     21  C   UNL     1       0.769   9.071  22.776  0.00  0.00    +0.000 A 
ATOM     22  C   UNL     1       1.171   8.736  21.486  0.00  0.00    +0.000 A 
ATOM     23  C   UNL     1       0.648   9.402  20.358  0.00  0.00    +0.000 A 
ENDBRANCH  15  23
ENDBRANCH   1  15
TORSDOF 4
ENDMDL
MODEL 7
REMARK VINA RESULT:      -7.0      1.031      1.138
REMARK  Name = 
REMARK  7 active torsions:
REMARK  status: ('A' for Active; 'I' for Inactive)
REMARK    1  A    between atoms: C_1  and  C_2
REMARK    2  A    between atoms: C_8  and  C_9
REMARK    3  A    between atoms: C_9  and  N_10
REMARK    4  A    between atoms: C_11  and  C_13
REMARK    5  A    between atoms: N_19  and  C_20
REMARK    6  A    between atoms: C_20  and  C_21
REMARK    7  A    between atoms: C_20  and  C_22
REMARK                            x       y       z     vdW  Elec       q    Type
REMARK                         _______ _______ _______ _____ _____    ______ ____
ROOT
ATOM      1  N   UNL     1       1.995   7.592  20.517  0.00  0.00    +0.000 N 
ATOM      2  C   UNL     1       2.050   6.214  20.384  0.00  0.00    +0.000 C 
ATOM      3  O   UNL     1       1.224   5.458  20.883  0.00  0.00    +0.000 OA
ATOM      4  H   UNL     1       2.786   8.127  20.177  0.00  0.00    +0.000 HD
ENDROOT
BRANCH   2   5
ATOM      5  C   UNL     1       3.215   5.722  19.541  0.00  0.00    +0.000 C 
ATOM      6  C   UNL     1       3.515   6.601  18.307  0.00  0.00    +0.000 C 
ATOM      7  C   UNL     1       4.410   5.819  17.346  0.00  0.00    +0.000 C 
ATOM      8  S   UNL     1       4.748   4.262  18.139  0.00  0.00    +0.000 S 
ATOM      9  O   UNL     1       4.795   3.203  17.168  0.00  0.00    +0.000 OA
ATOM     10  O   UNL     1       5.815   4.472  19.095  0.00  0.00    +0.000 OA
ATOM     11  N   UNL     1       3.224   4.277  19.046  0.00  0.00    +0.000 NA
BRANCH  11  12
ATOM     12  C   UNL     1       1.997   3.820  18.260  0.00  0.00    +0.000 C 
ATOM     13  C   UNL     1       2.390   3.160  16.929  0.00  0.00    +0.000 C 
ATOM     14  C   UNL     1       1.202   2.755  19.021  0.00  0.00    +0.000 C 
ENDBRANCH  11  12
ENDBRANCH   2   5
BRANCH   1  15
ATOM     15  C   UNL     1       1.077   8.239  21.433  0.00  0.00    +0.000 C 
BRANCH  15  23
ATOM     16  C   UNL     1      -0.671  10.113  23.046  0.00  0.00    +0.000 C 
ATOM     17  C   UNL     1      -0.421  10.348  21.577  0.00  0.00    +0.000 A 
ATOM     18  C   UNL     1      -1.015  11.433  20.897  0.00  0.00    +0.000 A 
ATOM     19 CL   UNL     1      -2.071  12.563  21.678  0.00  0.00    +0.000 Cl
ATOM     20  C   UNL     1      -0.784  11.646  19.534  0.00  0.00    +0.000 A 
ATOM     21  C   UNL     1       0.056  10.797  18.826  0.00  0.00    +0.000 A 
ATOM     22  C   UNL     1       0.660   9.725  19.478  0.00  0.00    +0.000 A 
ATOM     23  C   UNL     1       0.426   9.472  20.845  0.00  0.00    +0.000 A 
ENDBRANCH  15  23
ENDBRANCH   1  15
TORSDOF 4
ENDMDL
MODEL 8
REMARK VINA RESULT:      -7.0      2.148      2.649
REMARK  Name = 
REMARK  7 active torsions:
REMARK  status: ('A' for Active; 'I' for Inactive)
REMARK    1  A    between atoms: C_1  and  C_2
REMARK    2  A    between atoms: C_8  and  C_9
REMARK    3  A    between atoms: C_9  and  N_10
REMARK    4  A    between atoms: C_11  and  C_13
REMARK    5  A    between atoms: N_19  and  C_20
REMARK    6  A    between atoms: C_20  and  C_21
REMARK    7  A    between atoms: C_20  and  C_22
REMARK                            x       y       z     vdW  Elec       q    Type
REMARK                         _______ _______ _______ _____ _____    ______ ____
ROOT
ATOM      1  N   UNL     1       1.584   8.959  19.415  0.00  0.00    +0.000 N 
ATOM      2  C   UNL     1       1.822   7.811  20.153  0.00  0.00    +0.000 C 
ATOM      3  O   UNL     1       1.244   7.556  21.204  0.00  0.00    +0.000 OA
ATOM      4  H   UNL     1       2.195   9.144  18.628  0.00  0.00    +0.000 HD
ENDROOT
BRANCH   2   5
ATOM      5  C   UNL     1       2.848   6.877  19.528  0.00  0.00    +0.000 C 
ATOM      6  C   UNL     1       2.968   7.011  17.995  0.00  0.00    +0.000 C 
ATOM      7  C   UNL     1       3.708   5.790  17.447  0.00  0.00    +0.000 C 
ATOM      8  S   UNL     1       4.149   4.803  18.860  0.00  0.00    +0.000 S 
ATOM      9  O   UNL     1       4.045   3.403  18.547  0.00  0.00    +0.000 OA
ATOM     10  O   UNL     1       5.345   5.371  19.444  0.00  0.00    +0.000 OA
ATOM     11  N   UNL     1       2.775   5.381  19.821  0.00  0.00    +0.000 NA
BRANCH  11  12
ATOM     12  C   UNL     1       1.442   4.695  19.525  0.00  0.00    +0.000 C 
ATOM     13  C   UNL     1       1.483   3.929  18.193  0.00  0.00    +0.000 C 
ATOM     14  C   UNL     1       1.099   3.644  20.586  0.00  0.00    +0.000 C 
ENDBRANCH  11  12
ENDBRANCH   2   5
BRANCH   1  15
ATOM     15  C   UNL     1       0.789  10.054  19.934  0.00  0.00    +0.000 C 
BRANCH  15  23
ATOM     16  C   UNL     1      -1.452  11.866  20.862  0.00  0.00    +0.000 C 
ATOM     17  C   UNL     1      -1.519  11.159  19.531  0.00  0.00    +0.000 A 
ATOM     18  C   UNL     1      -2.640  11.296  18.684  0.00  0.00    +0.000 A 
ATOM     19 CL   UNL     1      -4.015  12.265  19.101  0.00  0.00    +0.000 Cl
ATOM     20  C   UNL     1      -2.702  10.636  17.453  0.00  0.00    +0.000 A 
ATOM     21  C   UNL     1      -1.642   9.844  17.031  0.00  0.00    +0.000 A 
ATOM     22  C   UNL     1      -0.522   9.702  17.845  0.00  0.00    +0.000 A 
ATOM     23  C   UNL     1      -0.443  10.336  19.102  0.00  0.00    +0.000 A 
ENDBRANCH  15  23
ENDBRANCH   1  15
TORSDOF 4
ENDMDL
MODEL 9
REMARK VINA RESULT:      -7.0      4.746      7.515
REMARK  Name = 
REMARK  7 active torsions:
REMARK  status: ('A' for Active; 'I' for Inactive)
REMARK    1  A    between atoms: C_1  and  C_2
REMARK    2  A    between atoms: C_8  and  C_9
REMARK    3  A    between atoms: C_9  and  N_10
REMARK    4  A    between atoms: C_11  and  C_13
REMARK    5  A    between atoms: N_19  and  C_20
REMARK    6  A    between atoms: C_20  and  C_21
REMARK    7  A    between atoms: C_20  and  C_22
REMARK                            x       y       z     vdW  Elec       q    Type
REMARK                         _______ _______ _______ _____ _____    ______ ____
ROOT
ATOM      1  N   UNL     1       1.526   8.162  21.136  0.00  0.00    +0.000 N 
ATOM      2  C   UNL     1       0.337   8.785  21.482  0.00  0.00    +0.000 C 
ATOM      3  O   UNL     1      -0.691   8.170  21.744  0.00  0.00    +0.000 OA
ATOM      4  H   UNL     1       2.286   8.751  20.817  0.00  0.00    +0.000 HD
ENDROOT
BRANCH   2   5
ATOM      5  C   UNL     1       0.427  10.302  21.534  0.00  0.00    +0.000 C 
ATOM      6  C   UNL     1      -0.576  10.958  22.507  0.00  0.00    +0.000 C 
ATOM      7  C   UNL     1      -0.670  12.451  22.191  0.00  0.00    +0.000 C 
ATOM      8  S   UNL     1       0.488  12.752  20.873  0.00  0.00    +0.000 S 
ATOM      9  O   UNL     1      -0.033  13.734  19.961  0.00  0.00    +0.000 OA
ATOM     10  O   UNL     1       1.806  12.873  21.458  0.00  0.00    +0.000 OA
ATOM     11  N   UNL     1       0.348  11.102  20.237  0.00  0.00    +0.000 NA
BRANCH  11  12
ATOM     12  C   UNL     1      -0.873  10.848  19.355  0.00  0.00    +0.000 C 
ATOM     13  C   UNL     1      -1.367  12.141  18.686  0.00  0.00    +0.000 C 
ATOM     14  C   UNL     1      -0.548   9.894  18.201  0.00  0.00    +0.000 C 
ENDBRANCH  11  12
ENDBRANCH   2   5
BRANCH   1  15
ATOM     15  C   UNL     1       1.595   6.744  20.848  0.00  0.00    +0.000 C 
BRANCH  15  23
ATOM     16  C   UNL     1       2.588   3.963  20.178  0.00  0.00    +0.000 C 
ATOM     17  C   UNL     1       2.896   5.140  19.285  0.00  0.00    +0.000 A 
ATOM     18  C   UNL     1       3.680   4.991  18.120  0.00  0.00    +0.000 A 
ATOM     19 CL   UNL     1       4.352   3.470  17.633  0.00  0.00    +0.000 Cl
ATOM     20  C   UNL     1       3.967   6.084  17.297  0.00  0.00    +0.000 A 
ATOM     21  C   UNL     1       3.464   7.341  17.604  0.00  0.00    +0.000 A 
ATOM     22  C   UNL     1       2.680   7.511  18.742  0.00  0.00    +0.000 A 
ATOM     23  C   UNL     1       2.395   6.431  19.603  0.00  0.00    +0.000 A 
ENDBRANCH  15  23
ENDBRANCH   1  15
TORSDOF 4
ENDMDL
