MODEL 1
REMARK VINA RESULT:      -7.4      0.000      0.000
REMARK  Name = 
REMARK  5 active torsions:
REMARK  status: ('A' for Active; 'I' for Inactive)
REMARK    1  A    between atoms: O_1  and  C_2
REMARK    2  A    between atoms: C_2  and  C_3
REMARK    3  A    between atoms: C_3  and  N_4
REMARK    4  A    between atoms: C_12  and  N_13
REMARK    5  A    between atoms: N_13  and  C_14
REMARK                            x       y       z     vdW  Elec       q    Type
REMARK                         _______ _______ _______ _____ _____    ______ ____
ROOT
ATOM      1  N   UNL     1       1.408   4.401  19.532  0.00  0.00    +0.000 NA
ATOM      2  C   UNL     1       2.395   5.071  20.414  0.00  0.00    +0.000 C 
ATOM      3  C   UNL     1       3.835   4.516  20.337  0.00  0.00    +0.000 C 
ATOM      4  N   UNL     1       4.277   4.516  18.949  0.00  0.00    +0.000 N 
ATOM      5  C   UNL     1       5.503   5.013  18.597  0.00  0.00    +0.000 A 
ATOM      6  N   UNL     1       6.352   5.403  19.559  0.00  0.00    +0.000 NA
ATOM      7  C   UNL     1       7.532   5.919  19.174  0.00  0.00    +0.000 A 
ATOM      8  C   UNL     1       7.905   6.065  17.865  0.00  0.00    +0.000 A 
ATOM      9  C   UNL     1       6.976   5.668  16.932  0.00  0.00    +0.000 A 
ATOM     10  N   UNL     1       5.797   5.135  17.297  0.00  0.00    +0.000 NA
ATOM     11  C   UNL     1       3.387   3.904  17.964  0.00  0.00    +0.000 C 
ATOM     12  C   UNL     1       1.942   4.437  18.143  0.00  0.00    +0.000 C 
ENDROOT
BRANCH   9  13
ATOM     13  N   UNL     1       7.259   5.872  15.559  0.00  0.00    +0.000 N 
ATOM     14  H   UNL     1       8.211   6.194  15.438  0.00  0.00    +0.000 HD
BRANCH  13  15
ATOM     15  C   UNL     1       6.798   5.042  14.519  0.00  0.00    +0.000 A 
ATOM     16  C   UNL     1       5.560   4.385  14.611  0.00  0.00    +0.000 A 
ATOM     17  C   UNL     1       5.106   3.548  13.592  0.00  0.00    +0.000 A 
ATOM     18  C   UNL     1       5.886   3.367  12.458  0.00  0.00    +0.000 A 
ATOM     19 CL   UNL     1       5.344   2.314  11.209  0.00  0.00    +0.000 Cl
ATOM     20  C   UNL     1       7.106   4.029  12.329  0.00  0.00    +0.000 A 
ATOM     21  C   UNL     1       7.557   4.872  13.352  0.00  0.00    +0.000 A 
ENDBRANCH  13  15
ENDBRANCH   9  13
BRANCH   1  22
ATOM     22  C   UNL     1       1.114   3.014  19.938  0.00  0.00    +0.000 C 
BRANCH  22  23
ATOM     23  C   UNL     1       1.048   2.801  21.457  0.00  0.00    +0.000 C 
BRANCH  23  24
ATOM     24  O   UNL     1       2.192   2.068  21.890  0.00  0.00    +0.000 OA
ATOM     25  H   UNL     1       2.605   1.700  21.090  0.00  0.00    +0.000 HD
ENDBRANCH  23  24
ENDBRANCH  22  23
ENDBRANCH   1  22
TORSDOF 5
ENDMDL
MODEL 2
REMARK VINA RESULT:      -7.4      5.849      8.115
REMARK  Name = 
REMARK  5 active torsions:
REMARK  status: ('A' for Active; 'I' for Inactive)
REMARK    1  A    between atoms: O_1  and  C_2
REMARK    2  A    between atoms: C_2  and  C_3
REMARK    3  A    between atoms: C_3  and  N_4
REMARK    4  A    between atoms: C_12  and  N_13
REMARK    5  A    between atoms: N_13  and  C_14
REMARK                            x       y       z     vdW  Elec       q    Type
REMARK                         _______ _______ _______ _____ _____    ______ ____
ROOT
ATOM      1  N   UNL     1       2.243   3.584  18.698  0.00  0.00    +0.000 NA
ATOM      2  C   UNL     1       1.889   3.994  20.079  0.00  0.00    +0.000 C 
ATOM      3  C   UNL     1       2.529   5.317  20.560  0.00  0.00    +0.000 C 
ATOM      4  N   UNL     1       2.233   6.372  19.599  0.00  0.00    +0.000 N 
ATOM      5  C   UNL     1       1.770   7.593  20.011  0.00  0.00    +0.000 A 
ATOM      6  N   UNL     1       1.695   7.857  21.323  0.00  0.00    +0.000 NA
ATOM      7  C   UNL     1       1.202   9.053  21.689  0.00  0.00    +0.000 A 
ATOM      8  C   UNL     1       0.779  10.002  20.799  0.00  0.00    +0.000 A 
ATOM      9  C   UNL     1       0.860   9.654  19.472  0.00  0.00    +0.000 A 
ATOM     10  N   UNL     1       1.365   8.470  19.085  0.00  0.00    +0.000 NA
ATOM     11  C   UNL     1       2.514   6.093  18.193  0.00  0.00    +0.000 C 
ATOM     12  C   UNL     1       1.919   4.718  17.789  0.00  0.00    +0.000 C 
ENDROOT
BRANCH   9  13
ATOM     13  N   UNL     1       0.357  10.555  18.500  0.00  0.00    +0.000 N 
ATOM     14  H   UNL     1       0.949  10.557  17.679  0.00  0.00    +0.000 HD
BRANCH  13  15
ATOM     15  C   UNL     1      -1.011  10.743  18.221  0.00  0.00    +0.000 A 
ATOM     16  C   UNL     1      -1.669   9.956  17.261  0.00  0.00    +0.000 A 
ATOM     17  C   UNL     1      -3.019  10.148  16.968  0.00  0.00    +0.000 A 
ATOM     18  C   UNL     1      -3.732  11.130  17.644  0.00  0.00    +0.000 A 
ATOM     19 CL   UNL     1      -5.390  11.391  17.267  0.00  0.00    +0.000 Cl
ATOM     20  C   UNL     1      -3.109  11.906  18.621  0.00  0.00    +0.000 A 
ATOM     21  C   UNL     1      -1.756  11.707  18.916  0.00  0.00    +0.000 A 
ENDBRANCH  13  15
ENDBRANCH   9  13
BRANCH   1  22
ATOM     22  C   UNL     1       3.657   3.192  18.553  0.00  0.00    +0.000 C 
BRANCH  22  23
ATOM     23  C   UNL     1       4.019   1.867  19.242  0.00  0.00    +0.000 C 
BRANCH  23  24
ATOM     24  O   UNL     1       5.201   2.037  20.020  0.00  0.00    +0.000 OA
ATOM     25  H   UNL     1       5.796   1.305  19.784  0.00  0.00    +0.000 HD
ENDBRANCH  23  24
ENDBRANCH  22  23
ENDBRANCH   1  22
TORSDOF 5
ENDMDL
MODEL 3
REMARK VINA RESULT:      -7.4      5.820      8.105
REMARK  Name = 
REMARK  5 active torsions:
REMARK  status: ('A' for Active; 'I' for Inactive)
REMARK    1  A    between atoms: O_1  and  C_2
REMARK    2  A    between atoms: C_2  and  C_3
REMARK    3  A    between atoms: C_3  and  N_4
REMARK    4  A    between atoms: C_12  and  N_13
REMARK    5  A    between atoms: N_13  and  C_14
REMARK                            x       y       z     vdW  Elec       q    Type
REMARK                         _______ _______ _______ _____ _____    ______ ____
ROOT
ATOM      1  N   UNL     1       2.200   3.638  18.669  0.00  0.00    +0.000 NA
ATOM      2  C   UNL     1       1.842   3.992  20.064  0.00  0.00    +0.000 C 
ATOM      3  C   UNL     1       2.496   5.284  20.606  0.00  0.00    +0.000 C 
ATOM      4  N   UNL     1       2.222   6.383  19.691  0.00  0.00    +0.000 N 
ATOM      5  C   UNL     1       1.773   7.591  20.152  0.00  0.00    +0.000 A 
ATOM      6  N   UNL     1       1.692   7.799  21.474  0.00  0.00    +0.000 NA
ATOM      7  C   UNL     1       1.213   8.985  21.889  0.00  0.00    +0.000 A 
ATOM      8  C   UNL     1       0.809   9.978  21.038  0.00  0.00    +0.000 A 
ATOM      9  C   UNL     1       0.895   9.687  19.697  0.00  0.00    +0.000 A 
ATOM     10  N   UNL     1       1.387   8.514  19.263  0.00  0.00    +0.000 NA
ATOM     11  C   UNL     1       2.509   6.162  18.276  0.00  0.00    +0.000 C 
ATOM     12  C   UNL     1       1.899   4.815  17.808  0.00  0.00    +0.000 C 
ENDROOT
BRANCH   9  13
ATOM     13  N   UNL     1       0.412  10.636  18.762  0.00  0.00    +0.000 N 
ATOM     14  H   UNL     1       1.049  10.720  17.980  0.00  0.00    +0.000 HD
BRANCH  13  15
ATOM     15  C   UNL     1      -0.945  10.793  18.416  0.00  0.00    +0.000 A 
ATOM     16  C   UNL     1      -1.749  11.751  19.053  0.00  0.00    +0.000 A 
ATOM     17  C   UNL     1      -3.097  11.900  18.726  0.00  0.00    +0.000 A 
ATOM     18  C   UNL     1      -3.655  11.091  17.744  0.00  0.00    +0.000 A 
ATOM     19 CL   UNL     1      -5.323  11.250  17.356  0.00  0.00    +0.000 Cl
ATOM     20  C   UNL     1      -2.871  10.150  17.077  0.00  0.00    +0.000 A 
ATOM     21  C   UNL     1      -1.518  10.008  17.404  0.00  0.00    +0.000 A 
ENDBRANCH  13  15
ENDBRANCH   9  13
BRANCH   1  22
ATOM     22  C   UNL     1       3.610   3.232  18.516  0.00  0.00    +0.000 C 
BRANCH  22  23
ATOM     23  C   UNL     1       3.965   1.909  19.211  0.00  0.00    +0.000 C 
BRANCH  23  24
ATOM     24  O   UNL     1       5.133   2.084  20.009  0.00  0.00    +0.000 OA
ATOM     25  H   UNL     1       5.767   1.402  19.726  0.00  0.00    +0.000 HD
ENDBRANCH  23  24
ENDBRANCH  22  23
ENDBRANCH   1  22
TORSDOF 5
ENDMDL
MODEL 4
REMARK VINA RESULT:      -7.4      0.054      1.007
REMARK  Name = 
REMARK  5 active torsions:
REMARK  status: ('A' for Active; 'I' for Inactive)
REMARK    1  A    between atoms: O_1  and  C_2
REMARK    2  A    between atoms: C_2  and  C_3
REMARK    3  A    between atoms: C_3  and  N_4
REMARK    4  A    between atoms: C_12  and  N_13
REMARK    5  A    between atoms: N_13  and  C_14
REMARK                            x       y       z     vdW  Elec       q    Type
REMARK                         _______ _______ _______ _____ _____    ______ ____
ROOT
ATOM      1  N   UNL     1       1.423   4.334  19.554  0.00  0.00    +0.000 NA
ATOM      2  C   UNL     1       2.401   5.028  20.427  0.00  0.00    +0.000 C 
ATOM      3  C   UNL     1       3.851   4.496  20.349  0.00  0.00    +0.000 C 
ATOM      4  N   UNL     1       4.287   4.492  18.959  0.00  0.00    +0.000 N 
ATOM      5  C   UNL     1       5.504   5.008  18.599  0.00  0.00    +0.000 A 
ATOM      6  N   UNL     1       6.349   5.418  19.555  0.00  0.00    +0.000 NA
ATOM      7  C   UNL     1       7.519   5.951  19.161  0.00  0.00    +0.000 A 
ATOM      8  C   UNL     1       7.885   6.093  17.850  0.00  0.00    +0.000 A 
ATOM      9  C   UNL     1       6.959   5.674  16.924  0.00  0.00    +0.000 A 
ATOM     10  N   UNL     1       5.791   5.124  17.297  0.00  0.00    +0.000 NA
ATOM     11  C   UNL     1       3.405   3.858  17.983  0.00  0.00    +0.000 C 
ATOM     12  C   UNL     1       1.951   4.369  18.163  0.00  0.00    +0.000 C 
ENDROOT
BRANCH   9  13
ATOM     13  N   UNL     1       7.234   5.873  15.548  0.00  0.00    +0.000 N 
ATOM     14  H   UNL     1       8.183   6.203  15.420  0.00  0.00    +0.000 HD
BRANCH  13  15
ATOM     15  C   UNL     1       6.777   5.031  14.515  0.00  0.00    +0.000 A 
ATOM     16  C   UNL     1       7.538   4.833  13.351  0.00  0.00    +0.000 A 
ATOM     17  C   UNL     1       7.082   4.014  12.318  0.00  0.00    +0.000 A 
ATOM     18  C   UNL     1       5.856   3.374  12.443  0.00  0.00    +0.000 A 
ATOM     19 CL   UNL     1       5.276   2.385  11.160  0.00  0.00    +0.000 Cl
ATOM     20  C   UNL     1       5.094   3.532  13.600  0.00  0.00    +0.000 A 
ATOM     21  C   UNL     1       5.557   4.350  14.637  0.00  0.00    +0.000 A 
ENDBRANCH  13  15
ENDBRANCH   9  13
BRANCH   1  22
ATOM     22  C   UNL     1       1.154   2.946  19.971  0.00  0.00    +0.000 C 
BRANCH  22  23
ATOM     23  C   UNL     1       1.056   2.751  21.492  0.00  0.00    +0.000 C 
BRANCH  23  24
ATOM     24  O   UNL     1       2.247   2.136  21.976  0.00  0.00    +0.000 OA
ATOM     25  H   UNL     1       2.031   1.757  22.846  0.00  0.00    +0.000 HD
ENDBRANCH  23  24
ENDBRANCH  22  23
ENDBRANCH   1  22
TORSDOF 5
ENDMDL
MODEL 5
REMARK VINA RESULT:      -7.3      5.938      8.344
REMARK  Name = 
REMARK  5 active torsions:
REMARK  status: ('A' for Active; 'I' for Inactive)
REMARK    1  A    between atoms: O_1  and  C_2
REMARK    2  A    between atoms: C_2  and  C_3
REMARK    3  A    between atoms: C_3  and  N_4
REMARK    4  A    between atoms: C_12  and  N_13
REMARK    5  A    between atoms: N_13  and  C_14
REMARK                            x       y       z     vdW  Elec       q    Type
REMARK                         _______ _______ _______ _____ _____    ______ ____
ROOT
ATOM      1  N   UNL     1       4.710   4.409  17.380  0.00  0.00    +0.000 NA
ATOM      2  C   UNL     1       3.924   4.235  18.626  0.00  0.00    +0.000 C 
ATOM      3  C   UNL     1       3.901   5.460  19.569  0.00  0.00    +0.000 C 
ATOM      4  N   UNL     1       3.464   6.632  18.824  0.00  0.00    +0.000 N 
ATOM      5  C   UNL     1       2.502   7.468  19.323  0.00  0.00    +0.000 A 
ATOM      6  N   UNL     1       2.037   7.265  20.564  0.00  0.00    +0.000 NA
ATOM      7  C   UNL     1       1.068   8.085  21.007  0.00  0.00    +0.000 A 
ATOM      8  C   UNL     1       0.538   9.103  20.261  0.00  0.00    +0.000 A 
ATOM      9  C   UNL     1       1.043   9.238  18.990  0.00  0.00    +0.000 A 
ATOM     10  N   UNL     1       2.024   8.439  18.535  0.00  0.00    +0.000 NA
ATOM     11  C   UNL     1       4.141   6.912  17.560  0.00  0.00    +0.000 C 
ATOM     12  C   UNL     1       4.206   5.628  16.691  0.00  0.00    +0.000 C 
ENDROOT
BRANCH   9  13
ATOM     13  N   UNL     1       0.479  10.215  18.133  0.00  0.00    +0.000 N 
ATOM     14  H   UNL     1       0.980  10.248  17.254  0.00  0.00    +0.000 HD
BRANCH  13  15
ATOM     15  C   UNL     1      -0.902  10.469  18.014  0.00  0.00    +0.000 A 
ATOM     16  C   UNL     1      -1.513  11.503  18.741  0.00  0.00    +0.000 A 
ATOM     17  C   UNL     1      -2.883  11.749  18.641  0.00  0.00    +0.000 A 
ATOM     18  C   UNL     1      -3.658  10.962  17.799  0.00  0.00    +0.000 A 
ATOM     19 CL   UNL     1      -5.352  11.242  17.692  0.00  0.00    +0.000 Cl
ATOM     20  C   UNL     1      -3.071   9.946  17.046  0.00  0.00    +0.000 A 
ATOM     21  C   UNL     1      -1.696   9.706  17.145  0.00  0.00    +0.000 A 
ENDBRANCH  13  15
ENDBRANCH   9  13
BRANCH   1  22
ATOM     22  C   UNL     1       6.161   4.510  17.617  0.00  0.00    +0.000 C 
BRANCH  22  23
ATOM     23  C   UNL     1       7.003   4.642  16.339  0.00  0.00    +0.000 C 
BRANCH  23  24
ATOM     24  O   UNL     1       7.495   5.974  16.223  0.00  0.00    +0.000 OA
ATOM     25  H   UNL     1       7.930   6.035  15.354  0.00  0.00    +0.000 HD
ENDBRANCH  23  24
ENDBRANCH  22  23
ENDBRANCH   1  22
TORSDOF 5
ENDMDL
MODEL 6
REMARK VINA RESULT:      -7.3      5.983      8.387
REMARK  Name = 
REMARK  5 active torsions:
REMARK  status: ('A' for Active; 'I' for Inactive)
REMARK    1  A    between atoms: O_1  and  C_2
REMARK    2  A    between atoms: C_2  and  C_3
REMARK    3  A    between atoms: C_3  and  N_4
REMARK    4  A    between atoms: C_12  and  N_13
REMARK    5  A    between atoms: N_13  and  C_14
REMARK                            x       y       z     vdW  Elec       q    Type
REMARK                         _______ _______ _______ _____ _____    ______ ____
ROOT
ATOM      1  N   UNL     1       4.601   4.474  17.422  0.00  0.00    +0.000 NA
ATOM      2  C   UNL     1       3.817   4.310  18.670  0.00  0.00    +0.000 C 
ATOM      3  C   UNL     1       3.805   5.537  19.610  0.00  0.00    +0.000 C 
ATOM      4  N   UNL     1       3.376   6.711  18.862  0.00  0.00    +0.000 N 
ATOM      5  C   UNL     1       2.422   7.557  19.361  0.00  0.00    +0.000 A 
ATOM      6  N   UNL     1       1.958   7.361  20.603  0.00  0.00    +0.000 NA
ATOM      7  C   UNL     1       0.996   8.190  21.045  0.00  0.00    +0.000 A 
ATOM      8  C   UNL     1       0.473   9.210  20.298  0.00  0.00    +0.000 A 
ATOM      9  C   UNL     1       0.977   9.337  19.025  0.00  0.00    +0.000 A 
ATOM     10  N   UNL     1       1.951   8.529  18.571  0.00  0.00    +0.000 NA
ATOM     11  C   UNL     1       4.054   6.982  17.596  0.00  0.00    +0.000 C 
ATOM     12  C   UNL     1       4.107   5.695  16.731  0.00  0.00    +0.000 C 
ENDROOT
BRANCH   9  13
ATOM     13  N   UNL     1       0.420  10.317  18.167  0.00  0.00    +0.000 N 
ATOM     14  H   UNL     1       0.945  10.372  17.303  0.00  0.00    +0.000 HD
BRANCH  13  15
ATOM     15  C   UNL     1      -0.962  10.547  18.012  0.00  0.00    +0.000 A 
ATOM     16  C   UNL     1      -1.726   9.788  17.111  0.00  0.00    +0.000 A 
ATOM     17  C   UNL     1      -3.091  10.023  16.941  0.00  0.00    +0.000 A 
ATOM     18  C   UNL     1      -3.710  11.020  17.683  0.00  0.00    +0.000 A 
ATOM     19 CL   UNL     1      -5.387  11.333  17.459  0.00  0.00    +0.000 Cl
ATOM     20  C   UNL     1      -2.980  11.769  18.605  0.00  0.00    +0.000 A 
ATOM     21  C   UNL     1      -1.612  11.527  18.776  0.00  0.00    +0.000 A 
ENDBRANCH  13  15
ENDBRANCH   9  13
BRANCH   1  22
ATOM     22  C   UNL     1       6.054   4.564  17.657  0.00  0.00    +0.000 C 
BRANCH  22  23
ATOM     23  C   UNL     1       6.895   4.684  16.377  0.00  0.00    +0.000 C 
BRANCH  23  24
ATOM     24  O   UNL     1       7.487   5.979  16.311  0.00  0.00    +0.000 OA
ATOM     25  H   UNL     1       6.783   6.617  16.521  0.00  0.00    +0.000 HD
ENDBRANCH  23  24
ENDBRANCH  22  23
ENDBRANCH   1  22
TORSDOF 5
ENDMDL
MODEL 7
REMARK VINA RESULT:      -7.2      4.645      7.780
REMARK  Name = 
REMARK  5 active torsions:
REMARK  status: ('A' for Active; 'I' for Inactive)
REMARK    1  A    between atoms: O_1  and  C_2
REMARK    2  A    between atoms: C_2  and  C_3
REMARK    3  A    between atoms: C_3  and  N_4
REMARK    4  A    between atoms: C_12  and  N_13
REMARK    5  A    between atoms: N_13  and  C_14
REMARK                            x       y       z     vdW  Elec       q    Type
REMARK                         _______ _______ _______ _____ _____    ______ ____
ROOT
ATOM      1  N   UNL     1       5.545   5.268  14.881  0.00  0.00    +0.000 NA
ATOM      2  C   UNL     1       4.642   4.173  15.310  0.00  0.00    +0.000 C 
ATOM      3  C   UNL     1       4.708   3.812  16.812  0.00  0.00    +0.000 C 
ATOM      4  N   UNL     1       4.500   5.015  17.606  0.00  0.00    +0.000 N 
ATOM      5  C   UNL     1       3.623   5.024  18.657  0.00  0.00    +0.000 A 
ATOM      6  N   UNL     1       3.033   3.879  19.029  0.00  0.00    +0.000 NA
ATOM      7  C   UNL     1       2.151   3.935  20.042  0.00  0.00    +0.000 A 
ATOM      8  C   UNL     1       1.830   5.089  20.705  0.00  0.00    +0.000 A 
ATOM      9  C   UNL     1       2.453   6.229  20.254  0.00  0.00    +0.000 A 
ATOM     10  N   UNL     1       3.350   6.191  19.254  0.00  0.00    +0.000 NA
ATOM     11  C   UNL     1       5.312   6.183  17.274  0.00  0.00    +0.000 C 
ATOM     12  C   UNL     1       5.272   6.448  15.746  0.00  0.00    +0.000 C 
ENDROOT
BRANCH   9  13
ATOM     13  N   UNL     1       2.101   7.472  20.836  0.00  0.00    +0.000 N 
ATOM     14  H   UNL     1       2.876   7.844  21.372  0.00  0.00    +0.000 HD
BRANCH  13  15
ATOM     15  C   UNL     1       1.319   8.456  20.201  0.00  0.00    +0.000 A 
ATOM     16  C   UNL     1       0.314   9.145  20.899  0.00  0.00    +0.000 A 
ATOM     17  C   UNL     1      -0.475  10.109  20.272  0.00  0.00    +0.000 A 
ATOM     18  C   UNL     1      -0.260  10.400  18.931  0.00  0.00    +0.000 A 
ATOM     19 CL   UNL     1      -1.248  11.568  18.143  0.00  0.00    +0.000 Cl
ATOM     20  C   UNL     1       0.749   9.750  18.222  0.00  0.00    +0.000 A 
ATOM     21  C   UNL     1       1.543   8.788  18.857  0.00  0.00    +0.000 A 
ENDBRANCH  13  15
ENDBRANCH   9  13
BRANCH   1  22
ATOM     22  C   UNL     1       6.972   4.901  14.939  0.00  0.00    +0.000 C 
BRANCH  22  23
ATOM     23  C   UNL     1       7.667   4.850  13.571  0.00  0.00    +0.000 C 
BRANCH  23  24
ATOM     24  O   UNL     1       8.630   5.898  13.482  0.00  0.00    +0.000 OA
ATOM     25  H   UNL     1       9.371   5.644  14.060  0.00  0.00    +0.000 HD
ENDBRANCH  23  24
ENDBRANCH  22  23
ENDBRANCH   1  22
TORSDOF 5
ENDMDL
MODEL 8
REMARK VINA RESULT:      -7.1      6.423      8.235
REMARK  Name = 
REMARK  5 active torsions:
REMARK  status: ('A' for Active; 'I' for Inactive)
REMARK    1  A    between atoms: O_1  and  C_2
REMARK    2  A    between atoms: C_2  and  C_3
REMARK    3  A    between atoms: C_3  and  N_4
REMARK    4  A    between atoms: C_12  and  N_13
REMARK    5  A    between atoms: N_13  and  C_14
REMARK                            x       y       z     vdW  Elec       q    Type
REMARK                         _______ _______ _______ _____ _____    ______ ____
ROOT
ATOM      1  N   UNL     1       2.295   3.864  18.740  0.00  0.00    +0.000 NA
ATOM      2  C   UNL     1       1.643   4.253  20.013  0.00  0.00    +0.000 C 
ATOM      3  C   UNL     1       2.210   5.525  20.685  0.00  0.00    +0.000 C 
ATOM      4  N   UNL     1       2.200   6.620  19.725  0.00  0.00    +0.000 N 
ATOM      5  C   UNL     1       1.709   7.853  20.065  0.00  0.00    +0.000 A 
ATOM      6  N   UNL     1       1.337   8.083  21.332  0.00  0.00    +0.000 NA
ATOM      7  C   UNL     1       0.827   9.293  21.619  0.00  0.00    +0.000 A 
ATOM      8  C   UNL     1       0.672  10.290  20.693  0.00  0.00    +0.000 A 
ATOM      9  C   UNL     1       1.051   9.976  19.410  0.00  0.00    +0.000 A 
ATOM     10  N   UNL     1       1.578   8.777  19.106  0.00  0.00    +0.000 NA
ATOM     11  C   UNL     1       2.794   6.367  18.415  0.00  0.00    +0.000 C 
ATOM     12  C   UNL     1       2.250   5.039  17.827  0.00  0.00    +0.000 C 
ENDROOT
BRANCH   9  13
ATOM     13  N   UNL     1       0.836  10.929  18.384  0.00  0.00    +0.000 N 
ATOM     14  H   UNL     1      -0.062  10.777  17.940  0.00  0.00    +0.000 HD
BRANCH  13  15
ATOM     15  C   UNL     1       1.212  12.284  18.465  0.00  0.00    +0.000 A 
ATOM     16  C   UNL     1       2.538  12.683  18.229  0.00  0.00    +0.000 A 
ATOM     17  C   UNL     1       2.920  14.022  18.323  0.00  0.00    +0.000 A 
ATOM     18  C   UNL     1       1.971  14.982  18.649  0.00  0.00    +0.000 A 
ATOM     19 CL   UNL     1       2.442  16.630  18.794  0.00  0.00    +0.000 Cl
ATOM     20  C   UNL     1       0.642  14.616  18.861  0.00  0.00    +0.000 A 
ATOM     21  C   UNL     1       0.262  13.273  18.759  0.00  0.00    +0.000 A 
ENDBRANCH  13  15
ENDBRANCH   9  13
BRANCH   1  22
ATOM     22  C   UNL     1       3.684   3.399  18.917  0.00  0.00    +0.000 C 
BRANCH  22  23
ATOM     23  C   UNL     1       3.845   2.269  19.945  0.00  0.00    +0.000 C 
BRANCH  23  24
ATOM     24  O   UNL     1       5.223   1.928  20.073  0.00  0.00    +0.000 OA
ATOM     25  H   UNL     1       5.265   1.155  20.662  0.00  0.00    +0.000 HD
ENDBRANCH  23  24
ENDBRANCH  22  23
ENDBRANCH   1  22
TORSDOF 5
ENDMDL
MODEL 9
REMARK VINA RESULT:      -7.1      4.533      7.850
REMARK  Name = 
REMARK  5 active torsions:
REMARK  status: ('A' for Active; 'I' for Inactive)
REMARK    1  A    between atoms: O_1  and  C_2
REMARK    2  A    between atoms: C_2  and  C_3
REMARK    3  A    between atoms: C_3  and  N_4
REMARK    4  A    between atoms: C_12  and  N_13
REMARK    5  A    between atoms: N_13  and  C_14
REMARK                            x       y       z     vdW  Elec       q    Type
REMARK                         _______ _______ _______ _____ _____    ______ ____
ROOT
ATOM      1  N   UNL     1       5.538   5.445  15.147  0.00  0.00    +0.000 NA
ATOM      2  C   UNL     1       4.649   4.293  15.430  0.00  0.00    +0.000 C 
ATOM      3  C   UNL     1       4.671   3.783  16.890  0.00  0.00    +0.000 C 
ATOM      4  N   UNL     1       4.405   4.896  17.791  0.00  0.00    +0.000 N 
ATOM      5  C   UNL     1       3.492   4.780  18.805  0.00  0.00    +0.000 A 
ATOM      6  N   UNL     1       2.918   3.591  19.038  0.00  0.00    +0.000 NA
ATOM      7  C   UNL     1       2.001   3.525  20.018  0.00  0.00    +0.000 A 
ATOM      8  C   UNL     1       1.628   4.599  20.781  0.00  0.00    +0.000 A 
ATOM      9  C   UNL     1       2.237   5.792  20.470  0.00  0.00    +0.000 A 
ATOM     10  N   UNL     1       3.169   5.874  19.505  0.00  0.00    +0.000 NA
ATOM     11  C   UNL     1       5.199   6.109  17.609  0.00  0.00    +0.000 C 
ATOM     12  C   UNL     1       5.206   6.525  16.115  0.00  0.00    +0.000 C 
ENDROOT
BRANCH   9  13
ATOM     13  N   UNL     1       1.835   6.962  21.160  0.00  0.00    +0.000 N 
ATOM     14  H   UNL     1       2.482   7.172  21.910  0.00  0.00    +0.000 HD
BRANCH  13  15
ATOM     15  C   UNL     1       1.286   8.102  20.541  0.00  0.00    +0.000 A 
ATOM     16  C   UNL     1       1.664   8.473  19.241  0.00  0.00    +0.000 A 
ATOM     17  C   UNL     1       1.136   9.610  18.628  0.00  0.00    +0.000 A 
ATOM     18  C   UNL     1       0.212  10.388  19.313  0.00  0.00    +0.000 A 
ATOM     19 CL   UNL     1      -0.422  11.807  18.575  0.00  0.00    +0.000 Cl
ATOM     20  C   UNL     1      -0.201  10.027  20.595  0.00  0.00    +0.000 A 
ATOM     21  C   UNL     1       0.326   8.882  21.204  0.00  0.00    +0.000 A 
ENDBRANCH  13  15
ENDBRANCH   9  13
BRANCH   1  22
ATOM     22  C   UNL     1       6.971   5.105  15.221  0.00  0.00    +0.000 C 
BRANCH  22  23
ATOM     23  C   UNL     1       7.623   4.815  13.861  0.00  0.00    +0.000 C 
BRANCH  23  24
ATOM     24  O   UNL     1       8.548   5.852  13.540  0.00  0.00    +0.000 OA
ATOM     25  H   UNL     1       8.894   5.651  12.653  0.00  0.00    +0.000 HD
ENDBRANCH  23  24
ENDBRANCH  22  23
ENDBRANCH   1  22
TORSDOF 5
ENDMDL
