MODEL 1
REMARK VINA RESULT:      -8.3      0.000      0.000
REMARK  Name = 
REMARK  7 active torsions:
REMARK  status: ('A' for Active; 'I' for Inactive)
REMARK    1  A    between atoms: C_2  and  C_3
REMARK    2  A    between atoms: C_3  and  O_4
REMARK    3  A    between atoms: O_4  and  C_5
REMARK    4  A    between atoms: C_8  and  C_9
REMARK    5  A    between atoms: N_14  and  C_15
REMARK    6  A    between atoms: C_24  and  O_25
REMARK    7  A    between atoms: O_25  and  C_26
REMARK                            x       y       z     vdW  Elec       q    Type
REMARK                         _______ _______ _______ _____ _____    ______ ____
ROOT
ATOM      1  C   UNL     1       3.726   3.803  19.279  0.00  0.00    +0.000 C 
ATOM      2  C   UNL     1       2.986   4.857  19.669  0.00  0.00    +0.000 C 
ATOM      3  C   UNL     1       2.135   4.857  20.896  0.00  0.00    +0.000 C 
ATOM      4  O   UNL     1       1.822   3.927  21.572  0.00  0.00    +0.000 OA
ATOM      5  N   UNL     1       1.775   6.196  21.049  0.00  0.00    +0.000 N 
ATOM      6  N   UNL     1       2.132   6.944  19.921  0.00  0.00    +0.000 N 
ATOM      7  C   UNL     1       2.900   6.191  19.038  0.00  0.00    +0.000 C 
ATOM      8  O   UNL     1       3.380   6.522  17.962  0.00  0.00    +0.000 OA
ATOM      9  H   UNL     1       0.988   6.458  21.627  0.00  0.00    +0.000 HD
ENDROOT
BRANCH   1  13
ATOM     10  C   UNL     1       6.733   4.370  16.272  0.00  0.00    +0.000 A 
ATOM     11  C   UNL     1       5.522   3.711  15.963  0.00  0.00    +0.000 A 
ATOM     12  C   UNL     1       4.522   3.513  16.918  0.00  0.00    +0.000 A 
ATOM     13  C   UNL     1       4.746   3.889  18.232  0.00  0.00    +0.000 A 
ATOM     14  C   UNL     1       5.979   4.455  18.564  0.00  0.00    +0.000 A 
ATOM     15  C   UNL     1       6.965   4.739  17.610  0.00  0.00    +0.000 A 
BRANCH  15  16
ATOM     16  O   UNL     1       7.936   5.482  18.237  0.00  0.00    +0.000 OA
ATOM     17  C   UNL     1       7.849   6.886  18.251  0.00  0.00    +0.000 C 
ENDBRANCH  15  16
BRANCH  10  18
ATOM     18  O   UNL     1       7.579   4.672  15.226  0.00  0.00    +0.000 OA
BRANCH  18  19
ATOM     19  C   UNL     1       6.862   5.217  14.096  0.00  0.00    +0.000 C 
BRANCH  19  21
ATOM     20  C   UNL     1       6.372   3.213  12.168  0.00  0.00    +0.000 C 
ATOM     21  C   UNL     1       6.598   4.137  13.058  0.00  0.00    +0.000 C 
ENDBRANCH  19  21
ENDBRANCH  18  19
ENDBRANCH  10  18
ENDBRANCH   1  13
BRANCH   6  22
ATOM     22  C   UNL     1       1.647   8.237  19.672  0.00  0.00    +0.000 A 
ATOM     23  C   UNL     1       1.031   8.972  20.695  0.00  0.00    +0.000 A 
ATOM     24  C   UNL     1       0.582  10.270  20.459  0.00  0.00    +0.000 A 
ATOM     25  C   UNL     1       0.725  10.835  19.194  0.00  0.00    +0.000 A 
ATOM     26  C   UNL     1       1.339  10.115  18.173  0.00  0.00    +0.000 A 
ATOM     27  C   UNL     1       1.810   8.826  18.417  0.00  0.00    +0.000 A 
ENDBRANCH   6  22
TORSDOF 6
ENDMDL
MODEL 2
REMARK VINA RESULT:      -8.2      0.342      1.006
REMARK  Name = 
REMARK  7 active torsions:
REMARK  status: ('A' for Active; 'I' for Inactive)
REMARK    1  A    between atoms: C_2  and  C_3
REMARK    2  A    between atoms: C_3  and  O_4
REMARK    3  A    between atoms: O_4  and  C_5
REMARK    4  A    between atoms: C_8  and  C_9
REMARK    5  A    between atoms: N_14  and  C_15
REMARK    6  A    between atoms: C_24  and  O_25
REMARK    7  A    between atoms: O_25  and  C_26
REMARK                            x       y       z     vdW  Elec       q    Type
REMARK                         _______ _______ _______ _____ _____    ______ ____
ROOT
ATOM      1  C   UNL     1       3.770   3.827  19.228  0.00  0.00    +0.000 C 
ATOM      2  C   UNL     1       3.044   4.887  19.628  0.00  0.00    +0.000 C 
ATOM      3  C   UNL     1       2.241   4.906  20.887  0.00  0.00    +0.000 C 
ATOM      4  O   UNL     1       1.956   3.987  21.591  0.00  0.00    +0.000 OA
ATOM      5  N   UNL     1       1.885   6.247  21.032  0.00  0.00    +0.000 N 
ATOM      6  N   UNL     1       2.198   6.976  19.879  0.00  0.00    +0.000 N 
ATOM      7  C   UNL     1       2.931   6.209  18.979  0.00  0.00    +0.000 C 
ATOM      8  O   UNL     1       3.370   6.523  17.880  0.00  0.00    +0.000 OA
ATOM      9  H   UNL     1       1.121   6.518  21.635  0.00  0.00    +0.000 HD
ENDROOT
BRANCH   1  13
ATOM     10  C   UNL     1       6.665   4.344  16.103  0.00  0.00    +0.000 A 
ATOM     11  C   UNL     1       5.429   3.710  15.842  0.00  0.00    +0.000 A 
ATOM     12  C   UNL     1       4.465   3.529  16.836  0.00  0.00    +0.000 A 
ATOM     13  C   UNL     1       4.749   3.896  18.141  0.00  0.00    +0.000 A 
ATOM     14  C   UNL     1       6.005   4.437  18.424  0.00  0.00    +0.000 A 
ATOM     15  C   UNL     1       6.957   4.705  17.432  0.00  0.00    +0.000 A 
BRANCH  15  16
ATOM     16  O   UNL     1       7.967   5.427  18.021  0.00  0.00    +0.000 OA
ATOM     17  C   UNL     1       7.869   5.801  19.373  0.00  0.00    +0.000 C 
ENDBRANCH  15  16
BRANCH  10  18
ATOM     18  O   UNL     1       7.474   4.634  15.025  0.00  0.00    +0.000 OA
BRANCH  18  19
ATOM     19  C   UNL     1       6.707   5.071  13.881  0.00  0.00    +0.000 C 
BRANCH  19  21
ATOM     20  C   UNL     1       6.448   2.982  12.000  0.00  0.00    +0.000 C 
ATOM     21  C   UNL     1       6.567   3.946  12.868  0.00  0.00    +0.000 C 
ENDBRANCH  19  21
ENDBRANCH  18  19
ENDBRANCH  10  18
ENDBRANCH   1  13
BRANCH   6  22
ATOM     22  C   UNL     1       1.701   8.264  19.627  0.00  0.00    +0.000 A 
ATOM     23  C   UNL     1       1.821   8.833  18.352  0.00  0.00    +0.000 A 
ATOM     24  C   UNL     1       1.295  10.097  18.090  0.00  0.00    +0.000 A 
ATOM     25  C   UNL     1       0.664  10.810  19.106  0.00  0.00    +0.000 A 
ATOM     26  C   UNL     1       0.536  10.253  20.376  0.00  0.00    +0.000 A 
ATOM     27  C   UNL     1       1.041   8.978  20.630  0.00  0.00    +0.000 A 
ENDBRANCH   6  22
TORSDOF 6
ENDMDL
MODEL 3
REMARK VINA RESULT:      -7.6      3.093      5.098
REMARK  Name = 
REMARK  7 active torsions:
REMARK  status: ('A' for Active; 'I' for Inactive)
REMARK    1  A    between atoms: C_2  and  C_3
REMARK    2  A    between atoms: C_3  and  O_4
REMARK    3  A    between atoms: O_4  and  C_5
REMARK    4  A    between atoms: C_8  and  C_9
REMARK    5  A    between atoms: N_14  and  C_15
REMARK    6  A    between atoms: C_24  and  O_25
REMARK    7  A    between atoms: O_25  and  C_26
REMARK                            x       y       z     vdW  Elec       q    Type
REMARK                         _______ _______ _______ _____ _____    ______ ____
ROOT
ATOM      1  C   UNL     1       2.993   7.956  17.776  0.00  0.00    +0.000 C 
ATOM      2  C   UNL     1       2.279   8.873  18.455  0.00  0.00    +0.000 C 
ATOM      3  C   UNL     1       2.103  10.283  17.998  0.00  0.00    +0.000 C 
ATOM      4  O   UNL     1       2.692  10.853  17.132  0.00  0.00    +0.000 OA
ATOM      5  N   UNL     1       1.105  10.781  18.835  0.00  0.00    +0.000 N 
ATOM      6  N   UNL     1       0.838   9.890  19.881  0.00  0.00    +0.000 N 
ATOM      7  C   UNL     1       1.509   8.684  19.701  0.00  0.00    +0.000 C 
ATOM      8  O   UNL     1       1.504   7.688  20.414  0.00  0.00    +0.000 OA
ATOM      9  H   UNL     1       0.969  11.776  18.944  0.00  0.00    +0.000 HD
ENDROOT
BRANCH   1  13
ATOM     10  C   UNL     1       3.143   3.730  18.503  0.00  0.00    +0.000 A 
ATOM     11  C   UNL     1       1.961   4.335  18.020  0.00  0.00    +0.000 A 
ATOM     12  C   UNL     1       1.880   5.707  17.771  0.00  0.00    +0.000 A 
ATOM     13  C   UNL     1       2.953   6.525  18.086  0.00  0.00    +0.000 A 
ATOM     14  C   UNL     1       4.091   5.946  18.652  0.00  0.00    +0.000 A 
ATOM     15  C   UNL     1       4.228   4.563  18.835  0.00  0.00    +0.000 A 
BRANCH  15  16
ATOM     16  O   UNL     1       5.532   4.327  19.198  0.00  0.00    +0.000 OA
ATOM     17  C   UNL     1       6.443   5.395  19.279  0.00  0.00    +0.000 C 
ENDBRANCH  15  16
BRANCH  10  18
ATOM     18  O   UNL     1       3.181   2.352  18.550  0.00  0.00    +0.000 OA
BRANCH  18  19
ATOM     19  C   UNL     1       1.965   1.800  19.103  0.00  0.00    +0.000 C 
BRANCH  19  21
ATOM     20  C   UNL     1       1.517   2.791  21.709  0.00  0.00    +0.000 C 
ATOM     21  C   UNL     1       1.724   2.334  20.506  0.00  0.00    +0.000 C 
ENDBRANCH  19  21
ENDBRANCH  18  19
ENDBRANCH  10  18
ENDBRANCH   1  13
BRANCH   6  22
ATOM     22  C   UNL     1       0.100  10.244  21.021  0.00  0.00    +0.000 A 
ATOM     23  C   UNL     1      -0.713  11.386  21.013  0.00  0.00    +0.000 A 
ATOM     24  C   UNL     1      -1.475  11.718  22.132  0.00  0.00    +0.000 A 
ATOM     25  C   UNL     1      -1.413  10.924  23.274  0.00  0.00    +0.000 A 
ATOM     26  C   UNL     1      -0.612   9.785  23.291  0.00  0.00    +0.000 A 
ATOM     27  C   UNL     1       0.131   9.441  22.163  0.00  0.00    +0.000 A 
ENDBRANCH   6  22
TORSDOF 6
ENDMDL
MODEL 4
REMARK VINA RESULT:      -7.2      0.975      1.055
REMARK  Name = 
REMARK  7 active torsions:
REMARK  status: ('A' for Active; 'I' for Inactive)
REMARK    1  A    between atoms: C_2  and  C_3
REMARK    2  A    between atoms: C_3  and  O_4
REMARK    3  A    between atoms: O_4  and  C_5
REMARK    4  A    between atoms: C_8  and  C_9
REMARK    5  A    between atoms: N_14  and  C_15
REMARK    6  A    between atoms: C_24  and  O_25
REMARK    7  A    between atoms: O_25  and  C_26
REMARK                            x       y       z     vdW  Elec       q    Type
REMARK                         _______ _______ _______ _____ _____    ______ ____
ROOT
ATOM      1  C   UNL     1       3.665   4.112  18.942  0.00  0.00    +0.000 C 
ATOM      2  C   UNL     1       2.953   5.124  19.471  0.00  0.00    +0.000 C 
ATOM      3  C   UNL     1       2.341   5.077  20.832  0.00  0.00    +0.000 C 
ATOM      4  O   UNL     1       2.207   4.131  21.545  0.00  0.00    +0.000 OA
ATOM      5  N   UNL     1       1.944   6.394  21.062  0.00  0.00    +0.000 N 
ATOM      6  N   UNL     1       2.050   7.161  19.895  0.00  0.00    +0.000 N 
ATOM      7  C   UNL     1       2.682   6.451  18.879  0.00  0.00    +0.000 C 
ATOM      8  O   UNL     1       2.941   6.808  17.737  0.00  0.00    +0.000 OA
ATOM      9  H   UNL     1       1.262   6.613  21.775  0.00  0.00    +0.000 HD
ENDROOT
BRANCH   1  13
ATOM     10  C   UNL     1       5.895   4.815  15.344  0.00  0.00    +0.000 A 
ATOM     11  C   UNL     1       5.136   3.633  15.501  0.00  0.00    +0.000 A 
ATOM     12  C   UNL     1       4.397   3.376  16.659  0.00  0.00    +0.000 A 
ATOM     13  C   UNL     1       4.472   4.253  17.728  0.00  0.00    +0.000 A 
ATOM     14  C   UNL     1       5.295   5.375  17.615  0.00  0.00    +0.000 A 
ATOM     15  C   UNL     1       5.980   5.699  16.436  0.00  0.00    +0.000 A 
BRANCH  15  16
ATOM     16  O   UNL     1       6.502   6.959  16.601  0.00  0.00    +0.000 OA
ATOM     17  C   UNL     1       7.464   7.197  17.599  0.00  0.00    +0.000 C 
ENDBRANCH  15  16
BRANCH  10  18
ATOM     18  O   UNL     1       6.444   5.060  14.104  0.00  0.00    +0.000 OA
BRANCH  18  19
ATOM     19  C   UNL     1       6.653   3.839  13.359  0.00  0.00    +0.000 C 
BRANCH  19  21
ATOM     20  C   UNL     1       4.530   3.403  11.550  0.00  0.00    +0.000 C 
ATOM     21  C   UNL     1       5.510   3.604  12.385  0.00  0.00    +0.000 C 
ENDBRANCH  19  21
ENDBRANCH  18  19
ENDBRANCH  10  18
ENDBRANCH   1  13
BRANCH   6  22
ATOM     22  C   UNL     1       1.458   8.426  19.751  0.00  0.00    +0.000 A 
ATOM     23  C   UNL     1       0.751   9.002  20.816  0.00  0.00    +0.000 A 
ATOM     24  C   UNL     1       0.195  10.274  20.687  0.00  0.00    +0.000 A 
ATOM     25  C   UNL     1       0.323  10.969  19.488  0.00  0.00    +0.000 A 
ATOM     26  C   UNL     1       1.027  10.407  18.426  0.00  0.00    +0.000 A 
ATOM     27  C   UNL     1       1.604   9.145  18.564  0.00  0.00    +0.000 A 
ENDBRANCH   6  22
TORSDOF 6
ENDMDL
MODEL 5
REMARK VINA RESULT:      -7.2      2.411      7.615
REMARK  Name = 
REMARK  7 active torsions:
REMARK  status: ('A' for Active; 'I' for Inactive)
REMARK    1  A    between atoms: C_2  and  C_3
REMARK    2  A    between atoms: C_3  and  O_4
REMARK    3  A    between atoms: O_4  and  C_5
REMARK    4  A    between atoms: C_8  and  C_9
REMARK    5  A    between atoms: N_14  and  C_15
REMARK    6  A    between atoms: C_24  and  O_25
REMARK    7  A    between atoms: O_25  and  C_26
REMARK                            x       y       z     vdW  Elec       q    Type
REMARK                         _______ _______ _______ _____ _____    ______ ____
ROOT
ATOM      1  C   UNL     1       1.812   6.357  20.729  0.00  0.00    +0.000 C 
ATOM      2  C   UNL     1       2.640   5.545  20.046  0.00  0.00    +0.000 C 
ATOM      3  C   UNL     1       2.722   4.072  20.276  0.00  0.00    +0.000 C 
ATOM      4  O   UNL     1       2.261   3.442  21.177  0.00  0.00    +0.000 OA
ATOM      5  N   UNL     1       3.483   3.612  19.202  0.00  0.00    +0.000 N 
ATOM      6  N   UNL     1       4.047   4.678  18.493  0.00  0.00    +0.000 N 
ATOM      7  C   UNL     1       3.556   5.900  18.943  0.00  0.00    +0.000 C 
ATOM      8  O   UNL     1       3.828   7.029  18.554  0.00  0.00    +0.000 OA
ATOM      9  H   UNL     1       3.931   2.706  19.234  0.00  0.00    +0.000 HD
ENDROOT
BRANCH   1  13
ATOM     10  C   UNL     1       0.759  10.395  19.730  0.00  0.00    +0.000 A 
ATOM     11  C   UNL     1       1.129   9.478  18.721  0.00  0.00    +0.000 A 
ATOM     12  C   UNL     1       1.475   8.156  19.013  0.00  0.00    +0.000 A 
ATOM     13  C   UNL     1       1.548   7.742  20.333  0.00  0.00    +0.000 A 
ATOM     14  C   UNL     1       1.275   8.671  21.340  0.00  0.00    +0.000 A 
ATOM     15  C   UNL     1       0.845   9.978  21.071  0.00  0.00    +0.000 A 
BRANCH  15  16
ATOM     16  O   UNL     1       0.461  10.534  22.267  0.00  0.00    +0.000 OA
ATOM     17  C   UNL     1      -0.526   9.908  23.049  0.00  0.00    +0.000 C 
ENDBRANCH  15  16
BRANCH  10  18
ATOM     18  O   UNL     1       0.266  11.619  19.330  0.00  0.00    +0.000 OA
BRANCH  18  19
ATOM     19  C   UNL     1      -1.172  11.685  19.453  0.00  0.00    +0.000 C 
BRANCH  19  21
ATOM     20  C   UNL     1      -2.413  10.089  17.482  0.00  0.00    +0.000 C 
ATOM     21  C   UNL     1      -1.841  10.826  18.391  0.00  0.00    +0.000 C 
ENDBRANCH  19  21
ENDBRANCH  18  19
ENDBRANCH  10  18
ENDBRANCH   1  13
BRANCH   6  22
ATOM     22  C   UNL     1       5.077   4.517  17.553  0.00  0.00    +0.000 A 
ATOM     23  C   UNL     1       4.780   4.165  16.229  0.00  0.00    +0.000 A 
ATOM     24  C   UNL     1       5.799   4.040  15.286  0.00  0.00    +0.000 A 
ATOM     25  C   UNL     1       7.123   4.246  15.665  0.00  0.00    +0.000 A 
ATOM     26  C   UNL     1       7.429   4.600  16.976  0.00  0.00    +0.000 A 
ATOM     27  C   UNL     1       6.407   4.748  17.912  0.00  0.00    +0.000 A 
ENDBRANCH   6  22
TORSDOF 6
ENDMDL
MODEL 6
REMARK VINA RESULT:      -7.1      7.928      9.734
REMARK  Name = 
REMARK  7 active torsions:
REMARK  status: ('A' for Active; 'I' for Inactive)
REMARK    1  A    between atoms: C_2  and  C_3
REMARK    2  A    between atoms: C_3  and  O_4
REMARK    3  A    between atoms: O_4  and  C_5
REMARK    4  A    between atoms: C_8  and  C_9
REMARK    5  A    between atoms: N_14  and  C_15
REMARK    6  A    between atoms: C_24  and  O_25
REMARK    7  A    between atoms: O_25  and  C_26
REMARK                            x       y       z     vdW  Elec       q    Type
REMARK                         _______ _______ _______ _____ _____    ______ ____
ROOT
ATOM      1  C   UNL     1      -1.249  10.912  19.603  0.00  0.00    +0.000 C 
ATOM      2  C   UNL     1      -0.223  11.756  19.817  0.00  0.00    +0.000 C 
ATOM      3  C   UNL     1       0.662  11.688  21.017  0.00  0.00    +0.000 C 
ATOM      4  O   UNL     1       0.497  11.060  22.017  0.00  0.00    +0.000 OA
ATOM      5  N   UNL     1       1.714  12.547  20.701  0.00  0.00    +0.000 N 
ATOM      6  N   UNL     1       1.429  13.286  19.547  0.00  0.00    +0.000 N 
ATOM      7  C   UNL     1       0.262  12.839  18.936  0.00  0.00    +0.000 C 
ATOM      8  O   UNL     1      -0.280  13.250  17.918  0.00  0.00    +0.000 OA
ATOM      9  H   UNL     1       2.320  12.912  21.424  0.00  0.00    +0.000 HD
ENDROOT
BRANCH   1  13
ATOM     10  C   UNL     1      -3.561  10.537  16.008  0.00  0.00    +0.000 A 
ATOM     11  C   UNL     1      -2.311   9.890  16.130  0.00  0.00    +0.000 A 
ATOM     12  C   UNL     1      -1.535   9.991  17.288  0.00  0.00    +0.000 A 
ATOM     13  C   UNL     1      -1.949  10.816  18.320  0.00  0.00    +0.000 A 
ATOM     14  C   UNL     1      -3.138  11.532  18.167  0.00  0.00    +0.000 A 
ATOM     15  C   UNL     1      -3.975  11.385  17.052  0.00  0.00    +0.000 A 
BRANCH  15  16
ATOM     16  O   UNL     1      -5.142  12.054  17.328  0.00  0.00    +0.000 OA
ATOM     17  C   UNL     1      -6.184  11.401  18.011  0.00  0.00    +0.000 C 
ENDBRANCH  15  16
BRANCH  10  18
ATOM     18  O   UNL     1      -4.330  10.237  14.903  0.00  0.00    +0.000 OA
BRANCH  18  19
ATOM     19  C   UNL     1      -3.515   9.976  13.738  0.00  0.00    +0.000 C 
BRANCH  19  21
ATOM     20  C   UNL     1      -5.133   9.613  11.453  0.00  0.00    +0.000 C 
ATOM     21  C   UNL     1      -4.386   9.780  12.508  0.00  0.00    +0.000 C 
ENDBRANCH  19  21
ENDBRANCH  18  19
ENDBRANCH  10  18
ENDBRANCH   1  13
BRANCH   6  22
ATOM     22  C   UNL     1       2.164  14.417  19.159  0.00  0.00    +0.000 A 
ATOM     23  C   UNL     1       3.113  14.327  18.132  0.00  0.00    +0.000 A 
ATOM     24  C   UNL     1       3.817  15.458  17.719  0.00  0.00    +0.000 A 
ATOM     25  C   UNL     1       3.591  16.682  18.345  0.00  0.00    +0.000 A 
ATOM     26  C   UNL     1       2.647  16.783  19.363  0.00  0.00    +0.000 A 
ATOM     27  C   UNL     1       1.927  15.656  19.758  0.00  0.00    +0.000 A 
ENDBRANCH   6  22
TORSDOF 6
ENDMDL
MODEL 7
REMARK VINA RESULT:      -7.1      2.480      7.638
REMARK  Name = 
REMARK  7 active torsions:
REMARK  status: ('A' for Active; 'I' for Inactive)
REMARK    1  A    between atoms: C_2  and  C_3
REMARK    2  A    between atoms: C_3  and  O_4
REMARK    3  A    between atoms: O_4  and  C_5
REMARK    4  A    between atoms: C_8  and  C_9
REMARK    5  A    between atoms: N_14  and  C_15
REMARK    6  A    between atoms: C_24  and  O_25
REMARK    7  A    between atoms: O_25  and  C_26
REMARK                            x       y       z     vdW  Elec       q    Type
REMARK                         _______ _______ _______ _____ _____    ______ ____
ROOT
ATOM      1  C   UNL     1       1.545   6.295  20.826  0.00  0.00    +0.000 C 
ATOM      2  C   UNL     1       2.377   5.504  20.125  0.00  0.00    +0.000 C 
ATOM      3  C   UNL     1       2.345   4.013  20.190  0.00  0.00    +0.000 C 
ATOM      4  O   UNL     1       1.766   3.324  20.972  0.00  0.00    +0.000 OA
ATOM      5  N   UNL     1       3.168   3.617  19.136  0.00  0.00    +0.000 N 
ATOM      6  N   UNL     1       3.860   4.711  18.603  0.00  0.00    +0.000 N 
ATOM      7  C   UNL     1       3.409   5.909  19.149  0.00  0.00    +0.000 C 
ATOM      8  O   UNL     1       3.785   7.051  18.915  0.00  0.00    +0.000 OA
ATOM      9  H   UNL     1       3.553   2.684  19.101  0.00  0.00    +0.000 HD
ENDROOT
BRANCH   1  13
ATOM     10  C   UNL     1       0.851  10.488  20.234  0.00  0.00    +0.000 A 
ATOM     11  C   UNL     1       1.167   9.650  19.142  0.00  0.00    +0.000 A 
ATOM     12  C   UNL     1       1.396   8.280  19.301  0.00  0.00    +0.000 A 
ATOM     13  C   UNL     1       1.405   7.730  20.572  0.00  0.00    +0.000 A 
ATOM     14  C   UNL     1       1.186   8.571  21.665  0.00  0.00    +0.000 A 
ATOM     15  C   UNL     1       0.873   9.930  21.527  0.00  0.00    +0.000 A 
BRANCH  15  16
ATOM     16  O   UNL     1       0.509  10.392  22.768  0.00  0.00    +0.000 OA
ATOM     17  C   UNL     1      -0.842  10.373  23.158  0.00  0.00    +0.000 C 
ENDBRANCH  15  16
BRANCH  10  18
ATOM     18  O   UNL     1       0.471  11.783  19.956  0.00  0.00    +0.000 OA
BRANCH  18  19
ATOM     19  C   UNL     1       1.457  12.740  20.404  0.00  0.00    +0.000 C 
BRANCH  19  21
ATOM     20  C   UNL     1       2.980  13.697  18.227  0.00  0.00    +0.000 C 
ATOM     21  C   UNL     1       2.276  13.255  19.232  0.00  0.00    +0.000 C 
ENDBRANCH  19  21
ENDBRANCH  18  19
ENDBRANCH  10  18
ENDBRANCH   1  13
BRANCH   6  22
ATOM     22  C   UNL     1       4.958   4.578  17.739  0.00  0.00    +0.000 A 
ATOM     23  C   UNL     1       4.759   4.338  16.372  0.00  0.00    +0.000 A 
ATOM     24  C   UNL     1       5.847   4.243  15.506  0.00  0.00    +0.000 A 
ATOM     25  C   UNL     1       7.142   4.366  16.003  0.00  0.00    +0.000 A 
ATOM     26  C   UNL     1       7.350   4.608  17.358  0.00  0.00    +0.000 A 
ATOM     27  C   UNL     1       6.260   4.727  18.219  0.00  0.00    +0.000 A 
ENDBRANCH   6  22
TORSDOF 6
ENDMDL
MODEL 8
REMARK VINA RESULT:      -7.0      2.517      7.482
REMARK  Name = 
REMARK  7 active torsions:
REMARK  status: ('A' for Active; 'I' for Inactive)
REMARK    1  A    between atoms: C_2  and  C_3
REMARK    2  A    between atoms: C_3  and  O_4
REMARK    3  A    between atoms: O_4  and  C_5
REMARK    4  A    between atoms: C_8  and  C_9
REMARK    5  A    between atoms: N_14  and  C_15
REMARK    6  A    between atoms: C_24  and  O_25
REMARK    7  A    between atoms: O_25  and  C_26
REMARK                            x       y       z     vdW  Elec       q    Type
REMARK                         _______ _______ _______ _____ _____    ______ ____
ROOT
ATOM      1  C   UNL     1       2.890   5.659  19.517  0.00  0.00    +0.000 C 
ATOM      2  C   UNL     1       3.658   5.003  18.628  0.00  0.00    +0.000 C 
ATOM      3  C   UNL     1       3.998   3.554  18.744  0.00  0.00    +0.000 C 
ATOM      4  O   UNL     1       3.838   2.835  19.682  0.00  0.00    +0.000 OA
ATOM      5  N   UNL     1       4.567   3.247  17.509  0.00  0.00    +0.000 N 
ATOM      6  N   UNL     1       4.805   4.408  16.764  0.00  0.00    +0.000 N 
ATOM      7  C   UNL     1       4.253   5.526  17.381  0.00  0.00    +0.000 C 
ATOM      8  O   UNL     1       4.269   6.694  17.013  0.00  0.00    +0.000 OA
ATOM      9  H   UNL     1       5.137   2.420  17.391  0.00  0.00    +0.000 HD
ENDROOT
BRANCH   1  13
ATOM     10  C   UNL     1       1.046   9.493  18.961  0.00  0.00    +0.000 A 
ATOM     11  C   UNL     1       1.538   8.764  17.855  0.00  0.00    +0.000 A 
ATOM     12  C   UNL     1       2.141   7.512  18.002  0.00  0.00    +0.000 A 
ATOM     13  C   UNL     1       2.350   6.998  19.271  0.00  0.00    +0.000 A 
ATOM     14  C   UNL     1       1.951   7.756  20.373  0.00  0.00    +0.000 A 
ATOM     15  C   UNL     1       1.270   8.975  20.250  0.00  0.00    +0.000 A 
BRANCH  15  16
ATOM     16  O   UNL     1       0.841   9.330  21.506  0.00  0.00    +0.000 OA
ATOM     17  C   UNL     1      -0.312   8.736  22.050  0.00  0.00    +0.000 C 
ENDBRANCH  15  16
BRANCH  10  18
ATOM     18  O   UNL     1       0.313  10.631  18.700  0.00  0.00    +0.000 OA
BRANCH  18  19
ATOM     19  C   UNL     1      -1.104  10.409  18.880  0.00  0.00    +0.000 C 
BRANCH  19  21
ATOM     20  C   UNL     1      -2.373  10.005  16.391  0.00  0.00    +0.000 C 
ATOM     21  C   UNL     1      -1.788  10.192  17.540  0.00  0.00    +0.000 C 
ENDBRANCH  19  21
ENDBRANCH  18  19
ENDBRANCH  10  18
ENDBRANCH   1  13
BRANCH   6  22
ATOM     22  C   UNL     1       5.620   4.433  15.621  0.00  0.00    +0.000 A 
ATOM     23  C   UNL     1       5.203   3.807  14.439  0.00  0.00    +0.000 A 
ATOM     24  C   UNL     1       5.994   3.863  13.293  0.00  0.00    +0.000 A 
ATOM     25  C   UNL     1       7.217   4.527  13.326  0.00  0.00    +0.000 A 
ATOM     26  C   UNL     1       7.639   5.157  14.494  0.00  0.00    +0.000 A 
ATOM     27  C   UNL     1       6.836   5.120  15.633  0.00  0.00    +0.000 A 
ENDBRANCH   6  22
TORSDOF 6
ENDMDL
MODEL 9
REMARK VINA RESULT:      -7.0      2.475      7.974
REMARK  Name = 
REMARK  7 active torsions:
REMARK  status: ('A' for Active; 'I' for Inactive)
REMARK    1  A    between atoms: C_2  and  C_3
REMARK    2  A    between atoms: C_3  and  O_4
REMARK    3  A    between atoms: O_4  and  C_5
REMARK    4  A    between atoms: C_8  and  C_9
REMARK    5  A    between atoms: N_14  and  C_15
REMARK    6  A    between atoms: C_24  and  O_25
REMARK    7  A    between atoms: O_25  and  C_26
REMARK                            x       y       z     vdW  Elec       q    Type
REMARK                         _______ _______ _______ _____ _____    ______ ____
ROOT
ATOM      1  C   UNL     1       1.703   6.350  20.721  0.00  0.00    +0.000 C 
ATOM      2  C   UNL     1       2.526   5.542  20.028  0.00  0.00    +0.000 C 
ATOM      3  C   UNL     1       2.556   4.059  20.194  0.00  0.00    +0.000 C 
ATOM      4  O   UNL     1       2.048   3.406  21.053  0.00  0.00    +0.000 OA
ATOM      5  N   UNL     1       3.335   3.621  19.124  0.00  0.00    +0.000 N 
ATOM      6  N   UNL     1       3.953   4.699  18.480  0.00  0.00    +0.000 N 
ATOM      7  C   UNL     1       3.486   5.915  18.969  0.00  0.00    +0.000 C 
ATOM      8  O   UNL     1       3.804   7.051  18.639  0.00  0.00    +0.000 OA
ATOM      9  H   UNL     1       3.754   2.701  19.130  0.00  0.00    +0.000 HD
ENDROOT
BRANCH   1  13
ATOM     10  C   UNL     1       0.809  10.462  19.880  0.00  0.00    +0.000 A 
ATOM     11  C   UNL     1       1.147   9.571  18.836  0.00  0.00    +0.000 A 
ATOM     12  C   UNL     1       1.441   8.226  19.077  0.00  0.00    +0.000 A 
ATOM     13  C   UNL     1       1.493   7.759  20.380  0.00  0.00    +0.000 A 
ATOM     14  C   UNL     1       1.253   8.657  21.422  0.00  0.00    +0.000 A 
ATOM     15  C   UNL     1       0.875   9.989  21.204  0.00  0.00    +0.000 A 
BRANCH  15  16
ATOM     16  O   UNL     1       0.509  10.512  22.420  0.00  0.00    +0.000 OA
ATOM     17  C   UNL     1      -0.638  10.032  23.076  0.00  0.00    +0.000 C 
ENDBRANCH  15  16
BRANCH  10  18
ATOM     18  O   UNL     1       0.366  11.719  19.527  0.00  0.00    +0.000 OA
BRANCH  18  19
ATOM     19  C   UNL     1      -1.023  11.704  19.126  0.00  0.00    +0.000 C 
BRANCH  19  21
ATOM     20  C   UNL     1      -2.664  12.723  21.185  0.00  0.00    +0.000 C 
ATOM     21  C   UNL     1      -1.907  12.253  20.234  0.00  0.00    +0.000 C 
ENDBRANCH  19  21
ENDBRANCH  18  19
ENDBRANCH  10  18
ENDBRANCH   1  13
BRANCH   6  22
ATOM     22  C   UNL     1       5.006   4.546  17.565  0.00  0.00    +0.000 A 
ATOM     23  C   UNL     1       4.739   4.310  16.210  0.00  0.00    +0.000 A 
ATOM     24  C   UNL     1       5.783   4.194  15.293  0.00  0.00    +0.000 A 
ATOM     25  C   UNL     1       7.102   4.292  15.729  0.00  0.00    +0.000 A 
ATOM     26  C   UNL     1       7.379   4.530  17.073  0.00  0.00    +0.000 A 
ATOM     27  C   UNL     1       6.333   4.670  17.984  0.00  0.00    +0.000 A 
ENDBRANCH   6  22
TORSDOF 6
ENDMDL
