MODEL 1
REMARK VINA RESULT:      -7.6      0.000      0.000
REMARK  Name = 
REMARK  3 active torsions:
REMARK  status: ('A' for Active; 'I' for Inactive)
REMARK    1  A    between atoms: C_1  and  C_2
REMARK    2  A    between atoms: C_2  and  C_3
REMARK    3  A    between atoms: C_2  and  C_4
REMARK                            x       y       z     vdW  Elec       q    Type
REMARK                         _______ _______ _______ _____ _____    ______ ____
ROOT
ATOM      1  C   UNL     1       4.510   4.565  16.951  0.00  0.00    +0.000 A 
ATOM      2  N   UNL     1       4.329   3.231  17.120  0.00  0.00    +0.000 NA
ATOM      3  C   UNL     1       3.317   2.914  17.939  0.00  0.00    +0.000 A 
ATOM      4  N   UNL     1       2.915   1.649  18.252  0.00  0.00    +0.000 N 
ATOM      5  N   UNL     1       1.871   1.601  19.099  0.00  0.00    +0.000 NA
ATOM      6  C   UNL     1       1.610   2.884  19.342  0.00  0.00    +0.000 A 
ATOM      7  N   UNL     1       0.616   3.260  20.161  0.00  0.00    +0.000 N 
ATOM      8  C   UNL     1       2.481   3.767  18.636  0.00  0.00    +0.000 A 
ATOM      9  C   UNL     1       2.690   5.156  18.487  0.00  0.00    +0.000 A 
ATOM     10  C   UNL     1       3.719   5.554  17.588  0.00  0.00    +0.000 A 
ATOM     11  C   UNL     1       4.004   7.030  17.382  0.00  0.00    +0.000 C 
ATOM     12  C   UNL     1       2.886   7.959  17.843  0.00  0.00    +0.000 C 
ATOM     13  C   UNL     1       2.425   7.573  19.235  0.00  0.00    +0.000 C 
ATOM     14  C   UNL     1       1.835   6.169  19.210  0.00  0.00    +0.000 C 
ATOM     15  H   UNL     1       3.317   0.787  17.910  0.00  0.00    +0.000 HD
ATOM     16  H   UNL     1      -0.034   2.532  20.436  0.00  0.00    +0.000 HD
ATOM     17  H   UNL     1       0.195   4.176  20.085  0.00  0.00    +0.000 HD
ENDROOT
BRANCH   1  19
ATOM     18  C   UNL     1       7.014   4.566  16.769  0.00  0.00    +0.000 C 
ATOM     19  C   UNL     1       5.704   4.938  16.071  0.00  0.00    +0.000 C 
ATOM     20  C   UNL     1       5.642   4.286  14.683  0.00  0.00    +0.000 C 
ENDBRANCH   1  19
TORSDOF 1
ENDMDL
MODEL 2
REMARK VINA RESULT:      -7.6      1.544      4.347
REMARK  Name = 
REMARK  3 active torsions:
REMARK  status: ('A' for Active; 'I' for Inactive)
REMARK    1  A    between atoms: C_1  and  C_2
REMARK    2  A    between atoms: C_2  and  C_3
REMARK    3  A    between atoms: C_2  and  C_4
REMARK                            x       y       z     vdW  Elec       q    Type
REMARK                         _______ _______ _______ _____ _____    ______ ____
ROOT
ATOM      1  C   UNL     1       2.757   4.346  19.476  0.00  0.00    +0.000 A 
ATOM      2  N   UNL     1       3.535   3.487  18.771  0.00  0.00    +0.000 NA
ATOM      3  C   UNL     1       4.212   4.059  17.766  0.00  0.00    +0.000 A 
ATOM      4  N   UNL     1       5.078   3.421  16.927  0.00  0.00    +0.000 N 
ATOM      5  N   UNL     1       5.632   4.223  15.999  0.00  0.00    +0.000 NA
ATOM      6  C   UNL     1       5.086   5.411  16.251  0.00  0.00    +0.000 A 
ATOM      7  N   UNL     1       5.389   6.497  15.524  0.00  0.00    +0.000 N 
ATOM      8  C   UNL     1       4.186   5.380  17.358  0.00  0.00    +0.000 A 
ATOM      9  C   UNL     1       3.351   6.269  18.072  0.00  0.00    +0.000 A 
ATOM     10  C   UNL     1       2.645   5.729  19.183  0.00  0.00    +0.000 A 
ATOM     11  C   UNL     1       1.724   6.623  19.993  0.00  0.00    +0.000 C 
ATOM     12  C   UNL     1       1.960   8.117  19.793  0.00  0.00    +0.000 C 
ATOM     13  C   UNL     1       2.046   8.440  18.313  0.00  0.00    +0.000 C 
ATOM     14  C   UNL     1       3.246   7.729  17.702  0.00  0.00    +0.000 C 
ATOM     15  H   UNL     1       5.328   2.442  16.950  0.00  0.00    +0.000 HD
ATOM     16  H   UNL     1       6.183   6.407  14.899  0.00  0.00    +0.000 HD
ATOM     17  H   UNL     1       5.268   7.427  15.899  0.00  0.00    +0.000 HD
ENDROOT
BRANCH   1  19
ATOM     18  C   UNL     1       0.716   2.975  19.984  0.00  0.00    +0.000 C 
ATOM     19  C   UNL     1       1.929   3.691  20.582  0.00  0.00    +0.000 C 
ATOM     20  C   UNL     1       2.750   2.716  21.436  0.00  0.00    +0.000 C 
ENDBRANCH   1  19
TORSDOF 1
ENDMDL
MODEL 3
REMARK VINA RESULT:      -7.5      2.922      5.315
REMARK  Name = 
REMARK  3 active torsions:
REMARK  status: ('A' for Active; 'I' for Inactive)
REMARK    1  A    between atoms: C_1  and  C_2
REMARK    2  A    between atoms: C_2  and  C_3
REMARK    3  A    between atoms: C_2  and  C_4
REMARK                            x       y       z     vdW  Elec       q    Type
REMARK                         _______ _______ _______ _____ _____    ______ ____
ROOT
ATOM      1  C   UNL     1       3.268   6.765  17.871  0.00  0.00    +0.000 A 
ATOM      2  N   UNL     1       4.354   7.540  17.623  0.00  0.00    +0.000 NA
ATOM      3  C   UNL     1       5.440   6.857  17.239  0.00  0.00    +0.000 A 
ATOM      4  N   UNL     1       6.646   7.401  16.908  0.00  0.00    +0.000 N 
ATOM      5  N   UNL     1       7.577   6.497  16.553  0.00  0.00    +0.000 NA
ATOM      6  C   UNL     1       6.940   5.334  16.677  0.00  0.00    +0.000 A 
ATOM      7  N   UNL     1       7.544   4.165  16.410  0.00  0.00    +0.000 N 
ATOM      8  C   UNL     1       5.586   5.488  17.099  0.00  0.00    +0.000 A 
ATOM      9  C   UNL     1       4.465   4.677  17.388  0.00  0.00    +0.000 A 
ATOM     10  C   UNL     1       3.266   5.352  17.753  0.00  0.00    +0.000 A 
ATOM     11  C   UNL     1       2.024   4.546  18.084  0.00  0.00    +0.000 C 
ATOM     12  C   UNL     1       2.059   3.102  17.593  0.00  0.00    +0.000 C 
ATOM     13  C   UNL     1       3.377   2.453  17.971  0.00  0.00    +0.000 C 
ATOM     14  C   UNL     1       4.523   3.174  17.273  0.00  0.00    +0.000 C 
ATOM     15  H   UNL     1       6.882   8.384  16.903  0.00  0.00    +0.000 HD
ATOM     16  H   UNL     1       8.440   4.225  15.938  0.00  0.00    +0.000 HD
ATOM     17  H   UNL     1       7.008   3.344  16.166  0.00  0.00    +0.000 HD
ENDROOT
BRANCH   1  19
ATOM     18  C   UNL     1       2.061   7.612  19.903  0.00  0.00    +0.000 C 
ATOM     19  C   UNL     1       2.043   7.529  18.375  0.00  0.00    +0.000 C 
ATOM     20  C   UNL     1       1.935   8.936  17.772  0.00  0.00    +0.000 C 
ENDBRANCH   1  19
TORSDOF 1
ENDMDL
MODEL 4
REMARK VINA RESULT:      -7.5      1.569      1.585
REMARK  Name = 
REMARK  3 active torsions:
REMARK  status: ('A' for Active; 'I' for Inactive)
REMARK    1  A    between atoms: C_1  and  C_2
REMARK    2  A    between atoms: C_2  and  C_3
REMARK    3  A    between atoms: C_2  and  C_4
REMARK                            x       y       z     vdW  Elec       q    Type
REMARK                         _______ _______ _______ _____ _____    ______ ____
ROOT
ATOM      1  C   UNL     1       4.933   5.480  17.553  0.00  0.00    +0.000 A 
ATOM      2  N   UNL     1       5.357   4.245  17.921  0.00  0.00    +0.000 NA
ATOM      3  C   UNL     1       4.662   3.705  18.931  0.00  0.00    +0.000 A 
ATOM      4  N   UNL     1       4.871   2.470  19.469  0.00  0.00    +0.000 N 
ATOM      5  N   UNL     1       4.034   2.161  20.476  0.00  0.00    +0.000 NA
ATOM      6  C   UNL     1       3.274   3.249  20.590  0.00  0.00    +0.000 A 
ATOM      7  N   UNL     1       2.298   3.336  21.507  0.00  0.00    +0.000 N 
ATOM      8  C   UNL     1       3.611   4.259  19.641  0.00  0.00    +0.000 A 
ATOM      9  C   UNL     1       3.191   5.559  19.280  0.00  0.00    +0.000 A 
ATOM     10  C   UNL     1       3.860   6.163  18.178  0.00  0.00    +0.000 A 
ATOM     11  C   UNL     1       3.465   7.561  17.737  0.00  0.00    +0.000 C 
ATOM     12  C   UNL     1       2.106   8.025  18.252  0.00  0.00    +0.000 C 
ATOM     13  C   UNL     1       1.990   7.754  19.740  0.00  0.00    +0.000 C 
ATOM     14  C   UNL     1       2.058   6.254  19.995  0.00  0.00    +0.000 C 
ATOM     15  H   UNL     1       5.568   1.797  19.180  0.00  0.00    +0.000 HD
ATOM     16  H   UNL     1       2.051   2.473  21.978  0.00  0.00    +0.000 HD
ATOM     17  H   UNL     1       1.521   3.970  21.383  0.00  0.00    +0.000 HD
ENDROOT
BRANCH   1  19
ATOM     18  C   UNL     1       7.186   6.403  16.939  0.00  0.00    +0.000 C 
ATOM     19  C   UNL     1       5.763   6.133  16.446  0.00  0.00    +0.000 C 
ATOM     20  C   UNL     1       5.799   5.293  15.163  0.00  0.00    +0.000 C 
ENDBRANCH   1  19
TORSDOF 1
ENDMDL
MODEL 5
REMARK VINA RESULT:      -7.3      2.548      5.047
REMARK  Name = 
REMARK  3 active torsions:
REMARK  status: ('A' for Active; 'I' for Inactive)
REMARK    1  A    between atoms: C_1  and  C_2
REMARK    2  A    between atoms: C_2  and  C_3
REMARK    3  A    between atoms: C_2  and  C_4
REMARK                            x       y       z     vdW  Elec       q    Type
REMARK                         _______ _______ _______ _____ _____    ______ ____
ROOT
ATOM      1  C   UNL     1       2.890   6.493  17.901  0.00  0.00    +0.000 A 
ATOM      2  N   UNL     1       3.938   7.109  17.300  0.00  0.00    +0.000 NA
ATOM      3  C   UNL     1       4.812   6.271  16.727  0.00  0.00    +0.000 A 
ATOM      4  N   UNL     1       5.932   6.637  16.040  0.00  0.00    +0.000 N 
ATOM      5  N   UNL     1       6.644   5.602  15.561  0.00  0.00    +0.000 NA
ATOM      6  C   UNL     1       5.957   4.538  15.970  0.00  0.00    +0.000 A 
ATOM      7  N   UNL     1       6.354   3.287  15.687  0.00  0.00    +0.000 N 
ATOM      8  C   UNL     1       4.785   4.888  16.706  0.00  0.00    +0.000 A 
ATOM      9  C   UNL     1       3.711   4.244  17.360  0.00  0.00    +0.000 A 
ATOM     10  C   UNL     1       2.722   5.085  17.943  0.00  0.00    +0.000 A 
ATOM     11  C   UNL     1       1.543   4.464  18.668  0.00  0.00    +0.000 C 
ATOM     12  C   UNL     1       1.309   2.992  18.346  0.00  0.00    +0.000 C 
ATOM     13  C   UNL     1       2.612   2.221  18.442  0.00  0.00    +0.000 C 
ATOM     14  C   UNL     1       3.593   2.740  17.399  0.00  0.00    +0.000 C 
ATOM     15  H   UNL     1       6.250   7.581  15.867  0.00  0.00    +0.000 HD
ATOM     16  H   UNL     1       7.093   3.200  14.998  0.00  0.00    +0.000 HD
ATOM     17  H   UNL     1       5.697   2.520  15.680  0.00  0.00    +0.000 HD
ENDROOT
BRANCH   1  19
ATOM     18  C   UNL     1       2.208   7.452  20.118  0.00  0.00    +0.000 C 
ATOM     19  C   UNL     1       1.922   7.437  18.615  0.00  0.00    +0.000 C 
ATOM     20  C   UNL     1       1.968   8.865  18.055  0.00  0.00    +0.000 C 
ENDBRANCH   1  19
TORSDOF 1
ENDMDL
MODEL 6
REMARK VINA RESULT:      -7.0      1.135      3.911
REMARK  Name = 
REMARK  3 active torsions:
REMARK  status: ('A' for Active; 'I' for Inactive)
REMARK    1  A    between atoms: C_1  and  C_2
REMARK    2  A    between atoms: C_2  and  C_3
REMARK    3  A    between atoms: C_2  and  C_4
REMARK                            x       y       z     vdW  Elec       q    Type
REMARK                         _______ _______ _______ _____ _____    ______ ____
ROOT
ATOM      1  C   UNL     1       2.627   6.418  18.869  0.00  0.00    +0.000 A 
ATOM      2  N   UNL     1       1.807   5.610  19.586  0.00  0.00    +0.000 NA
ATOM      3  C   UNL     1       2.003   4.301  19.374  0.00  0.00    +0.000 A 
ATOM      4  N   UNL     1       1.328   3.287  19.988  0.00  0.00    +0.000 N 
ATOM      5  N   UNL     1       1.714   2.059  19.599  0.00  0.00    +0.000 NA
ATOM      6  C   UNL     1       2.660   2.304  18.695  0.00  0.00    +0.000 A 
ATOM      7  N   UNL     1       3.304   1.312  18.059  0.00  0.00    +0.000 N 
ATOM      8  C   UNL     1       2.898   3.698  18.509  0.00  0.00    +0.000 A 
ATOM      9  C   UNL     1       3.730   4.539  17.736  0.00  0.00    +0.000 A 
ATOM     10  C   UNL     1       3.603   5.940  17.957  0.00  0.00    +0.000 A 
ATOM     11  C   UNL     1       4.460   6.904  17.159  0.00  0.00    +0.000 C 
ATOM     12  C   UNL     1       5.673   6.266  16.491  0.00  0.00    +0.000 C 
ATOM     13  C   UNL     1       5.263   5.001  15.760  0.00  0.00    +0.000 C 
ATOM     14  C   UNL     1       4.735   3.980  16.759  0.00  0.00    +0.000 C 
ATOM     15  H   UNL     1       0.600   3.382  20.683  0.00  0.00    +0.000 HD
ATOM     16  H   UNL     1       3.166   0.380  18.433  0.00  0.00    +0.000 HD
ATOM     17  H   UNL     1       4.219   1.458  17.656  0.00  0.00    +0.000 HD
ENDROOT
BRANCH   1  19
ATOM     18  C   UNL     1       1.614   8.474  17.845  0.00  0.00    +0.000 C 
ATOM     19  C   UNL     1       2.367   7.913  19.053  0.00  0.00    +0.000 C 
ATOM     20  C   UNL     1       1.600   8.224  20.345  0.00  0.00    +0.000 C 
ENDBRANCH   1  19
TORSDOF 1
ENDMDL
MODEL 7
REMARK VINA RESULT:      -6.9      1.504      4.275
REMARK  Name = 
REMARK  3 active torsions:
REMARK  status: ('A' for Active; 'I' for Inactive)
REMARK    1  A    between atoms: C_1  and  C_2
REMARK    2  A    between atoms: C_2  and  C_3
REMARK    3  A    between atoms: C_2  and  C_4
REMARK                            x       y       z     vdW  Elec       q    Type
REMARK                         _______ _______ _______ _____ _____    ______ ____
ROOT
ATOM      1  C   UNL     1       3.067   3.696  18.976  0.00  0.00    +0.000 A 
ATOM      2  N   UNL     1       3.881   2.981  18.159  0.00  0.00    +0.000 NA
ATOM      3  C   UNL     1       4.552   3.722  17.267  0.00  0.00    +0.000 A 
ATOM      4  N   UNL     1       5.448   3.249  16.355  0.00  0.00    +0.000 N 
ATOM      5  N   UNL     1       5.987   4.201  15.572  0.00  0.00    +0.000 NA
ATOM      6  C   UNL     1       5.401   5.318  15.996  0.00  0.00    +0.000 A 
ATOM      7  N   UNL     1       5.678   6.513  15.451  0.00  0.00    +0.000 N 
ATOM      8  C   UNL     1       4.488   5.089  17.070  0.00  0.00    +0.000 A 
ATOM      9  C   UNL     1       3.616   5.831  17.897  0.00  0.00    +0.000 A 
ATOM     10  C   UNL     1       2.914   5.104  18.899  0.00  0.00    +0.000 A 
ATOM     11  C   UNL     1       1.956   5.833  19.822  0.00  0.00    +0.000 C 
ATOM     12  C   UNL     1       2.146   7.346  19.860  0.00  0.00    +0.000 C 
ATOM     13  C   UNL     1       2.240   7.898  18.450  0.00  0.00    +0.000 C 
ATOM     14  C   UNL     1       3.470   7.327  17.757  0.00  0.00    +0.000 C 
ATOM     15  H   UNL     1       5.729   2.286  16.230  0.00  0.00    +0.000 HD
ATOM     16  H   UNL     1       6.482   6.545  14.834  0.00  0.00    +0.000 HD
ATOM     17  H   UNL     1       5.523   7.370  15.964  0.00  0.00    +0.000 HD
ENDROOT
BRANCH   1  19
ATOM     18  C   UNL     1       2.503   3.306  21.391  0.00  0.00    +0.000 C 
ATOM     19  C   UNL     1       2.246   2.853  19.952  0.00  0.00    +0.000 C 
ATOM     20  C   UNL     1       0.743   2.893  19.647  0.00  0.00    +0.000 C 
ENDBRANCH   1  19
TORSDOF 1
ENDMDL
MODEL 8
REMARK VINA RESULT:      -6.9      2.030      4.535
REMARK  Name = 
REMARK  3 active torsions:
REMARK  status: ('A' for Active; 'I' for Inactive)
REMARK    1  A    between atoms: C_1  and  C_2
REMARK    2  A    between atoms: C_2  and  C_3
REMARK    3  A    between atoms: C_2  and  C_4
REMARK                            x       y       z     vdW  Elec       q    Type
REMARK                         _______ _______ _______ _____ _____    ______ ____
ROOT
ATOM      1  C   UNL     1       3.602   4.204  19.077  0.00  0.00    +0.000 A 
ATOM      2  N   UNL     1       4.778   3.579  18.820  0.00  0.00    +0.000 NA
ATOM      3  C   UNL     1       5.692   4.354  18.219  0.00  0.00    +0.000 A 
ATOM      4  N   UNL     1       6.956   3.974  17.879  0.00  0.00    +0.000 N 
ATOM      5  N   UNL     1       7.678   4.942  17.285  0.00  0.00    +0.000 NA
ATOM      6  C   UNL     1       6.834   5.971  17.237  0.00  0.00    +0.000 A 
ATOM      7  N   UNL     1       7.187   7.150  16.702  0.00  0.00    +0.000 N 
ATOM      8  C   UNL     1       5.565   5.671  17.816  0.00  0.00    +0.000 A 
ATOM      9  C   UNL     1       4.328   6.313  18.053  0.00  0.00    +0.000 A 
ATOM     10  C   UNL     1       3.336   5.554  18.735  0.00  0.00    +0.000 A 
ATOM     11  C   UNL     1       1.981   6.176  19.019  0.00  0.00    +0.000 C 
ATOM     12  C   UNL     1       1.952   7.698  18.915  0.00  0.00    +0.000 C 
ATOM     13  C   UNL     1       2.618   8.148  17.629  0.00  0.00    +0.000 C 
ATOM     14  C   UNL     1       4.087   7.746  17.645  0.00  0.00    +0.000 C 
ATOM     15  H   UNL     1       7.375   3.067  18.034  0.00  0.00    +0.000 HD
ATOM     16  H   UNL     1       8.175   7.273  16.508  0.00  0.00    +0.000 HD
ATOM     17  H   UNL     1       6.713   8.004  16.962  0.00  0.00    +0.000 HD
ENDROOT
BRANCH   1  19
ATOM     18  C   UNL     1       2.230   2.121  18.784  0.00  0.00    +0.000 C 
ATOM     19  C   UNL     1       2.530   3.309  19.701  0.00  0.00    +0.000 C 
ATOM     20  C   UNL     1       2.917   2.812  21.100  0.00  0.00    +0.000 C 
ENDBRANCH   1  19
TORSDOF 1
ENDMDL
MODEL 9
REMARK VINA RESULT:      -6.8      3.000      5.253
REMARK  Name = 
REMARK  3 active torsions:
REMARK  status: ('A' for Active; 'I' for Inactive)
REMARK    1  A    between atoms: C_1  and  C_2
REMARK    2  A    between atoms: C_2  and  C_3
REMARK    3  A    between atoms: C_2  and  C_4
REMARK                            x       y       z     vdW  Elec       q    Type
REMARK                         _______ _______ _______ _____ _____    ______ ____
ROOT
ATOM      1  C   UNL     1       3.266   6.788  18.214  0.00  0.00    +0.000 A 
ATOM      2  N   UNL     1       4.243   7.500  17.599  0.00  0.00    +0.000 NA
ATOM      3  C   UNL     1       5.383   6.821  17.414  0.00  0.00    +0.000 A 
ATOM      4  N   UNL     1       6.503   7.300  16.799  0.00  0.00    +0.000 N 
ATOM      5  N   UNL     1       7.515   6.416  16.739  0.00  0.00    +0.000 NA
ATOM      6  C   UNL     1       7.023   5.341  17.351  0.00  0.00    +0.000 A 
ATOM      7  N   UNL     1       7.746   4.220  17.500  0.00  0.00    +0.000 N 
ATOM      8  C   UNL     1       5.680   5.525  17.795  0.00  0.00    +0.000 A 
ATOM      9  C   UNL     1       4.674   4.793  18.466  0.00  0.00    +0.000 A 
ATOM     10  C   UNL     1       3.422   5.446  18.645  0.00  0.00    +0.000 A 
ATOM     11  C   UNL     1       2.297   4.724  19.363  0.00  0.00    +0.000 C 
ATOM     12  C   UNL     1       2.477   3.213  19.458  0.00  0.00    +0.000 C 
ATOM     13  C   UNL     1       3.876   2.882  19.942  0.00  0.00    +0.000 C 
ATOM     14  C   UNL     1       4.900   3.375  18.928  0.00  0.00    +0.000 C 
ATOM     15  H   UNL     1       6.623   8.221  16.400  0.00  0.00    +0.000 HD
ATOM     16  H   UNL     1       8.607   4.171  16.967  0.00  0.00    +0.000 HD
ATOM     17  H   UNL     1       7.298   3.324  17.634  0.00  0.00    +0.000 HD
ENDROOT
BRANCH   1  19
ATOM     18  C   UNL     1       1.881   7.915  19.979  0.00  0.00    +0.000 C 
ATOM     19  C   UNL     1       1.984   7.575  18.491  0.00  0.00    +0.000 C 
ATOM     20  C   UNL     1       1.884   8.854  17.649  0.00  0.00    +0.000 C 
ENDBRANCH   1  19
TORSDOF 1
ENDMDL
