MODEL 1
REMARK VINA RESULT:      -6.9      0.000      0.000
REMARK  Name = 
REMARK  8 active torsions:
REMARK  status: ('A' for Active; 'I' for Inactive)
REMARK    1  A    between atoms: C_2  and  O_3
REMARK    2  A    between atoms: C_2  and  C_4
REMARK    3  A    between atoms: C_4  and  C_5
REMARK    4  A    between atoms: C_5  and  C_6
REMARK    5  A    between atoms: C_6  and  C_7
REMARK    6  A    between atoms: C_7  and  C_8
REMARK    7  A    between atoms: C_9  and  C_10
REMARK    8  A    between atoms: C_9  and  C_16
REMARK                            x       y       z     vdW  Elec       q    Type
REMARK                         _______ _______ _______ _____ _____    ______ ____
ROOT
ATOM      1  C   UNL     1       2.268   5.054  17.823  0.00  0.00    +0.000 C 
ATOM      2  C   UNL     1       3.076   6.076  18.181  0.00  0.00    +0.000 C 
ENDROOT
BRANCH   2   3
ATOM      3  C   UNL     1       2.408   7.342  18.559  0.00  0.00    +0.000 A 
ATOM      4  C   UNL     1       2.225   8.375  17.638  0.00  0.00    +0.000 A 
ATOM      5  C   UNL     1       1.613   9.561  18.047  0.00  0.00    +0.000 A 
ATOM      6  C   UNL     1       1.201   9.670  19.367  0.00  0.00    +0.000 A 
ATOM      7  N   UNL     1       1.352   8.690  20.282  0.00  0.00    +0.000 NA
ATOM      8  C   UNL     1       1.955   7.553  19.859  0.00  0.00    +0.000 A 
ENDBRANCH   2   3
BRANCH   2   9
ATOM      9  C   UNL     1       4.510   5.953  18.224  0.00  0.00    +0.000 A 
ATOM     10  C   UNL     1       5.251   5.336  19.278  0.00  0.00    +0.000 A 
ATOM     11  C   UNL     1       6.612   5.430  19.076  0.00  0.00    +0.000 A 
ATOM     12  S   UNL     1       6.991   6.203  17.598  0.00  0.00    +0.000 S 
ATOM     13  C   UNL     1       5.335   6.438  17.231  0.00  0.00    +0.000 A 
ENDBRANCH   2   9
BRANCH   1  14
ATOM     14  C   UNL     1       2.766   3.683  17.446  0.00  0.00    +0.000 C 
BRANCH  14  15
ATOM     15  C   UNL     1       2.101   2.547  18.228  0.00  0.00    +0.000 C 
BRANCH  15  16
ATOM     16  C   UNL     1       0.976   3.111  19.103  0.00  0.00    +0.000 C 
BRANCH  16  17
ATOM     17  C   UNL     1       1.054   2.615  20.544  0.00  0.00    +0.000 C 
BRANCH  17  19
ATOM     18  O   UNL     1       2.346   4.522  21.331  0.00  0.00    +0.000 OA
ATOM     19  C   UNL     1       2.157   3.314  21.308  0.00  0.00    +0.000 C 
BRANCH  19  20
ATOM     20  O   UNL     1       2.946   2.450  21.986  0.00  0.00    +0.000 OA
ATOM     21  H   UNL     1       2.739   2.389  22.937  0.00  0.00    +0.000 HD
ENDBRANCH  19  20
ENDBRANCH  17  19
ENDBRANCH  16  17
ENDBRANCH  15  16
ENDBRANCH  14  15
ENDBRANCH   1  14
TORSDOF 8
ENDMDL
MODEL 2
REMARK VINA RESULT:      -6.8      0.831      1.313
REMARK  Name = 
REMARK  8 active torsions:
REMARK  status: ('A' for Active; 'I' for Inactive)
REMARK    1  A    between atoms: C_2  and  O_3
REMARK    2  A    between atoms: C_2  and  C_4
REMARK    3  A    between atoms: C_4  and  C_5
REMARK    4  A    between atoms: C_5  and  C_6
REMARK    5  A    between atoms: C_6  and  C_7
REMARK    6  A    between atoms: C_7  and  C_8
REMARK    7  A    between atoms: C_9  and  C_10
REMARK    8  A    between atoms: C_9  and  C_16
REMARK                            x       y       z     vdW  Elec       q    Type
REMARK                         _______ _______ _______ _____ _____    ______ ____
ROOT
ATOM      1  C   UNL     1       2.705   4.868  17.772  0.00  0.00    +0.000 C 
ATOM      2  C   UNL     1       3.418   5.977  18.074  0.00  0.00    +0.000 C 
ENDROOT
BRANCH   2   3
ATOM      3  C   UNL     1       2.641   7.158  18.512  0.00  0.00    +0.000 A 
ATOM      4  C   UNL     1       2.374   8.220  17.646  0.00  0.00    +0.000 A 
ATOM      5  C   UNL     1       1.661   9.325  18.112  0.00  0.00    +0.000 A 
ATOM      6  C   UNL     1       1.235   9.328  19.432  0.00  0.00    +0.000 A 
ATOM      7  N   UNL     1       1.466   8.316  20.295  0.00  0.00    +0.000 NA
ATOM      8  C   UNL     1       2.167   7.260  19.818  0.00  0.00    +0.000 A 
ENDBRANCH   2   3
BRANCH   2   9
ATOM      9  C   UNL     1       4.855   6.018  18.003  0.00  0.00    +0.000 A 
ATOM     10  C   UNL     1       5.610   6.540  16.908  0.00  0.00    +0.000 A 
ATOM     11  C   UNL     1       6.967   6.382  17.094  0.00  0.00    +0.000 A 
ATOM     12  S   UNL     1       7.330   5.664  18.604  0.00  0.00    +0.000 S 
ATOM     13  C   UNL     1       5.670   5.540  19.007  0.00  0.00    +0.000 A 
ENDBRANCH   2   9
BRANCH   1  14
ATOM     14  C   UNL     1       3.325   3.563  17.347  0.00  0.00    +0.000 C 
BRANCH  14  15
ATOM     15  C   UNL     1       2.407   2.352  17.532  0.00  0.00    +0.000 C 
BRANCH  15  16
ATOM     16  C   UNL     1       1.341   2.669  18.588  0.00  0.00    +0.000 C 
BRANCH  16  17
ATOM     17  C   UNL     1       1.723   2.159  19.974  0.00  0.00    +0.000 C 
BRANCH  17  19
ATOM     18  O   UNL     1       1.991   3.220  22.149  0.00  0.00    +0.000 OA
ATOM     19  C   UNL     1       1.492   3.216  21.033  0.00  0.00    +0.000 C 
BRANCH  19  20
ATOM     20  O   UNL     1       0.653   4.191  20.617  0.00  0.00    +0.000 OA
ATOM     21  H   UNL     1       1.041   4.787  19.949  0.00  0.00    +0.000 HD
ENDBRANCH  19  20
ENDBRANCH  17  19
ENDBRANCH  16  17
ENDBRANCH  15  16
ENDBRANCH  14  15
ENDBRANCH   1  14
TORSDOF 8
ENDMDL
MODEL 3
REMARK VINA RESULT:      -6.7      2.313      4.029
REMARK  Name = 
REMARK  8 active torsions:
REMARK  status: ('A' for Active; 'I' for Inactive)
REMARK    1  A    between atoms: C_2  and  O_3
REMARK    2  A    between atoms: C_2  and  C_4
REMARK    3  A    between atoms: C_4  and  C_5
REMARK    4  A    between atoms: C_5  and  C_6
REMARK    5  A    between atoms: C_6  and  C_7
REMARK    6  A    between atoms: C_7  and  C_8
REMARK    7  A    between atoms: C_9  and  C_10
REMARK    8  A    between atoms: C_9  and  C_16
REMARK                            x       y       z     vdW  Elec       q    Type
REMARK                         _______ _______ _______ _____ _____    ______ ____
ROOT
ATOM      1  C   UNL     1       3.143   4.757  17.848  0.00  0.00    +0.000 C 
ATOM      2  C   UNL     1       3.632   5.971  18.187  0.00  0.00    +0.000 C 
ENDROOT
BRANCH   2   3
ATOM      3  C   UNL     1       5.106   6.092  18.250  0.00  0.00    +0.000 A 
ATOM      4  C   UNL     1       5.819   6.843  17.313  0.00  0.00    +0.000 A 
ATOM      5  C   UNL     1       7.210   6.905  17.397  0.00  0.00    +0.000 A 
ATOM      6  C   UNL     1       7.841   6.218  18.421  0.00  0.00    +0.000 A 
ATOM      7  N   UNL     1       7.186   5.490  19.351  0.00  0.00    +0.000 NA
ATOM      8  C   UNL     1       5.837   5.441  19.241  0.00  0.00    +0.000 A 
ENDBRANCH   2   3
BRANCH   2   9
ATOM      9  C   UNL     1       2.782   7.103  18.451  0.00  0.00    +0.000 A 
ATOM     10  C   UNL     1       2.372   8.067  17.479  0.00  0.00    +0.000 A 
ATOM     11  C   UNL     1       1.618   9.076  18.040  0.00  0.00    +0.000 A 
ATOM     12  S   UNL     1       1.355   8.830  19.712  0.00  0.00    +0.000 S 
ATOM     13  C   UNL     1       2.271   7.383  19.701  0.00  0.00    +0.000 A 
ENDBRANCH   2   9
BRANCH   1  14
ATOM     14  C   UNL     1       1.676   4.456  17.696  0.00  0.00    +0.000 C 
BRANCH  14  15
ATOM     15  C   UNL     1       1.185   3.305  18.578  0.00  0.00    +0.000 C 
BRANCH  15  16
ATOM     16  C   UNL     1       0.670   3.859  19.911  0.00  0.00    +0.000 C 
BRANCH  16  17
ATOM     17  C   UNL     1       1.795   4.109  20.912  0.00  0.00    +0.000 C 
BRANCH  17  19
ATOM     18  O   UNL     1       1.748   2.144  22.346  0.00  0.00    +0.000 OA
ATOM     19  C   UNL     1       2.313   2.812  21.494  0.00  0.00    +0.000 C 
BRANCH  19  20
ATOM     20  O   UNL     1       3.503   2.447  20.966  0.00  0.00    +0.000 OA
ATOM     21  H   UNL     1       4.240   2.459  21.605  0.00  0.00    +0.000 HD
ENDBRANCH  19  20
ENDBRANCH  17  19
ENDBRANCH  16  17
ENDBRANCH  15  16
ENDBRANCH  14  15
ENDBRANCH   1  14
TORSDOF 8
ENDMDL
MODEL 4
REMARK VINA RESULT:      -6.7      0.654      1.308
REMARK  Name = 
REMARK  8 active torsions:
REMARK  status: ('A' for Active; 'I' for Inactive)
REMARK    1  A    between atoms: C_2  and  O_3
REMARK    2  A    between atoms: C_2  and  C_4
REMARK    3  A    between atoms: C_4  and  C_5
REMARK    4  A    between atoms: C_5  and  C_6
REMARK    5  A    between atoms: C_6  and  C_7
REMARK    6  A    between atoms: C_7  and  C_8
REMARK    7  A    between atoms: C_9  and  C_10
REMARK    8  A    between atoms: C_9  and  C_16
REMARK                            x       y       z     vdW  Elec       q    Type
REMARK                         _______ _______ _______ _____ _____    ______ ____
ROOT
ATOM      1  C   UNL     1       2.018   5.208  17.874  0.00  0.00    +0.000 C 
ATOM      2  C   UNL     1       2.886   6.179  18.239  0.00  0.00    +0.000 C 
ENDROOT
BRANCH   2   3
ATOM      3  C   UNL     1       2.292   7.469  18.653  0.00  0.00    +0.000 A 
ATOM      4  C   UNL     1       1.881   7.696  19.969  0.00  0.00    +0.000 A 
ATOM      5  C   UNL     1       1.301   8.919  20.307  0.00  0.00    +0.000 A 
ATOM      6  C   UNL     1       1.156   9.878  19.315  0.00  0.00    +0.000 A 
ATOM      7  N   UNL     1       1.549   9.699  18.037  0.00  0.00    +0.000 NA
ATOM      8  C   UNL     1       2.102   8.499  17.735  0.00  0.00    +0.000 A 
ENDBRANCH   2   3
BRANCH   2   9
ATOM      9  C   UNL     1       4.312   5.979  18.255  0.00  0.00    +0.000 A 
ATOM     10  C   UNL     1       5.041   5.340  19.304  0.00  0.00    +0.000 A 
ATOM     11  C   UNL     1       6.399   5.356  19.073  0.00  0.00    +0.000 A 
ATOM     12  S   UNL     1       6.788   6.083  17.573  0.00  0.00    +0.000 S 
ATOM     13  C   UNL     1       5.140   6.401  17.236  0.00  0.00    +0.000 A 
ENDBRANCH   2   9
BRANCH   1  14
ATOM     14  C   UNL     1       2.436   3.821  17.461  0.00  0.00    +0.000 C 
BRANCH  14  15
ATOM     15  C   UNL     1       1.791   2.708  18.290  0.00  0.00    +0.000 C 
BRANCH  15  16
ATOM     16  C   UNL     1       0.839   3.320  19.325  0.00  0.00    +0.000 C 
BRANCH  16  17
ATOM     17  C   UNL     1       0.976   2.669  20.699  0.00  0.00    +0.000 C 
BRANCH  17  19
ATOM     18  O   UNL     1       3.019   2.476  22.007  0.00  0.00    +0.000 OA
ATOM     19  C   UNL     1       2.201   3.175  21.429  0.00  0.00    +0.000 C 
BRANCH  19  20
ATOM     20  O   UNL     1       2.312   4.522  21.381  0.00  0.00    +0.000 OA
ATOM     21  H   UNL     1       2.090   4.907  20.513  0.00  0.00    +0.000 HD
ENDBRANCH  19  20
ENDBRANCH  17  19
ENDBRANCH  16  17
ENDBRANCH  15  16
ENDBRANCH  14  15
ENDBRANCH   1  14
TORSDOF 8
ENDMDL
MODEL 5
REMARK VINA RESULT:      -6.7      2.286      3.924
REMARK  Name = 
REMARK  8 active torsions:
REMARK  status: ('A' for Active; 'I' for Inactive)
REMARK    1  A    between atoms: C_2  and  O_3
REMARK    2  A    between atoms: C_2  and  C_4
REMARK    3  A    between atoms: C_4  and  C_5
REMARK    4  A    between atoms: C_5  and  C_6
REMARK    5  A    between atoms: C_6  and  C_7
REMARK    6  A    between atoms: C_7  and  C_8
REMARK    7  A    between atoms: C_9  and  C_10
REMARK    8  A    between atoms: C_9  and  C_16
REMARK                            x       y       z     vdW  Elec       q    Type
REMARK                         _______ _______ _______ _____ _____    ______ ____
ROOT
ATOM      1  C   UNL     1       3.181   4.756  17.888  0.00  0.00    +0.000 C 
ATOM      2  C   UNL     1       3.691   5.947  18.273  0.00  0.00    +0.000 C 
ENDROOT
BRANCH   2   3
ATOM      3  C   UNL     1       5.166   6.055  18.294  0.00  0.00    +0.000 A 
ATOM      4  C   UNL     1       5.858   6.805  17.340  0.00  0.00    +0.000 A 
ATOM      5  C   UNL     1       7.252   6.855  17.383  0.00  0.00    +0.000 A 
ATOM      6  C   UNL     1       7.907   6.155  18.384  0.00  0.00    +0.000 A 
ATOM      7  N   UNL     1       7.273   5.428  19.328  0.00  0.00    +0.000 NA
ATOM      8  C   UNL     1       5.921   5.391  19.258  0.00  0.00    +0.000 A 
ENDBRANCH   2   3
BRANCH   2   9
ATOM      9  C   UNL     1       2.860   7.070  18.624  0.00  0.00    +0.000 A 
ATOM     10  C   UNL     1       2.240   7.268  19.895  0.00  0.00    +0.000 A 
ATOM     11  C   UNL     1       1.448   8.397  19.913  0.00  0.00    +0.000 A 
ATOM     12  S   UNL     1       1.500   9.243  18.426  0.00  0.00    +0.000 S 
ATOM     13  C   UNL     1       2.565   8.089  17.743  0.00  0.00    +0.000 A 
ENDBRANCH   2   9
BRANCH   1  14
ATOM     14  C   UNL     1       1.706   4.474  17.770  0.00  0.00    +0.000 C 
BRANCH  14  15
ATOM     15  C   UNL     1       1.344   2.995  17.933  0.00  0.00    +0.000 C 
BRANCH  15  16
ATOM     16  C   UNL     1       0.526   2.802  19.216  0.00  0.00    +0.000 C 
BRANCH  16  17
ATOM     17  C   UNL     1       1.013   3.692  20.357  0.00  0.00    +0.000 C 
BRANCH  17  19
ATOM     18  O   UNL     1       1.394   2.406  22.388  0.00  0.00    +0.000 OA
ATOM     19  C   UNL     1       1.828   2.905  21.360  0.00  0.00    +0.000 C 
BRANCH  19  20
ATOM     20  O   UNL     1       3.128   2.798  21.002  0.00  0.00    +0.000 OA
ATOM     21  H   UNL     1       3.425   1.880  20.862  0.00  0.00    +0.000 HD
ENDBRANCH  19  20
ENDBRANCH  17  19
ENDBRANCH  16  17
ENDBRANCH  15  16
ENDBRANCH  14  15
ENDBRANCH   1  14
TORSDOF 8
ENDMDL
MODEL 6
REMARK VINA RESULT:      -6.6      2.993      4.782
REMARK  Name = 
REMARK  8 active torsions:
REMARK  status: ('A' for Active; 'I' for Inactive)
REMARK    1  A    between atoms: C_2  and  O_3
REMARK    2  A    between atoms: C_2  and  C_4
REMARK    3  A    between atoms: C_4  and  C_5
REMARK    4  A    between atoms: C_5  and  C_6
REMARK    5  A    between atoms: C_6  and  C_7
REMARK    6  A    between atoms: C_7  and  C_8
REMARK    7  A    between atoms: C_9  and  C_10
REMARK    8  A    between atoms: C_9  and  C_16
REMARK                            x       y       z     vdW  Elec       q    Type
REMARK                         _______ _______ _______ _____ _____    ______ ____
ROOT
ATOM      1  C   UNL     1       3.491   5.895  17.282  0.00  0.00    +0.000 C 
ATOM      2  C   UNL     1       4.302   4.820  17.162  0.00  0.00    +0.000 C 
ENDROOT
BRANCH   2   3
ATOM      3  C   UNL     1       5.367   4.911  16.139  0.00  0.00    +0.000 A 
ATOM      4  C   UNL     1       5.282   4.215  14.931  0.00  0.00    +0.000 A 
ATOM      5  C   UNL     1       6.324   4.309  14.007  0.00  0.00    +0.000 A 
ATOM      6  C   UNL     1       7.416   5.103  14.323  0.00  0.00    +0.000 A 
ATOM      7  N   UNL     1       7.530   5.797  15.475  0.00  0.00    +0.000 NA
ATOM      8  C   UNL     1       6.507   5.681  16.356  0.00  0.00    +0.000 A 
ENDBRANCH   2   3
BRANCH   2   9
ATOM      9  C   UNL     1       4.169   3.652  17.993  0.00  0.00    +0.000 A 
ATOM     10  C   UNL     1       3.375   2.506  17.680  0.00  0.00    +0.000 A 
ATOM     11  C   UNL     1       3.388   1.576  18.697  0.00  0.00    +0.000 A 
ATOM     12  S   UNL     1       4.397   2.053  19.993  0.00  0.00    +0.000 S 
ATOM     13  C   UNL     1       4.805   3.520  19.210  0.00  0.00    +0.000 A 
ENDBRANCH   2   9
BRANCH   1  14
ATOM     14  C   UNL     1       2.380   5.999  18.293  0.00  0.00    +0.000 C 
BRANCH  14  15
ATOM     15  C   UNL     1       2.805   6.645  19.615  0.00  0.00    +0.000 C 
BRANCH  15  16
ATOM     16  C   UNL     1       2.147   5.905  20.785  0.00  0.00    +0.000 C 
BRANCH  16  17
ATOM     17  C   UNL     1       1.221   4.784  20.320  0.00  0.00    +0.000 C 
BRANCH  17  19
ATOM     18  O   UNL     1       2.132   3.442  22.135  0.00  0.00    +0.000 OA
ATOM     19  C   UNL     1       1.392   3.542  21.167  0.00  0.00    +0.000 C 
BRANCH  19  20
ATOM     20  O   UNL     1       0.625   2.513  20.740  0.00  0.00    +0.000 OA
ATOM     21  H   UNL     1       0.460   2.516  19.779  0.00  0.00    +0.000 HD
ENDBRANCH  19  20
ENDBRANCH  17  19
ENDBRANCH  16  17
ENDBRANCH  15  16
ENDBRANCH  14  15
ENDBRANCH   1  14
TORSDOF 8
ENDMDL
MODEL 7
REMARK VINA RESULT:      -6.6      3.451      4.915
REMARK  Name = 
REMARK  8 active torsions:
REMARK  status: ('A' for Active; 'I' for Inactive)
REMARK    1  A    between atoms: C_2  and  O_3
REMARK    2  A    between atoms: C_2  and  C_4
REMARK    3  A    between atoms: C_4  and  C_5
REMARK    4  A    between atoms: C_5  and  C_6
REMARK    5  A    between atoms: C_6  and  C_7
REMARK    6  A    between atoms: C_7  and  C_8
REMARK    7  A    between atoms: C_9  and  C_10
REMARK    8  A    between atoms: C_9  and  C_16
REMARK                            x       y       z     vdW  Elec       q    Type
REMARK                         _______ _______ _______ _____ _____    ______ ____
ROOT
ATOM      1  C   UNL     1       4.381   5.937  19.086  0.00  0.00    +0.000 C 
ATOM      2  C   UNL     1       3.036   5.957  19.224  0.00  0.00    +0.000 C 
ENDROOT
BRANCH   2   3
ATOM      3  C   UNL     1       2.387   7.285  19.157  0.00  0.00    +0.000 A 
ATOM      4  C   UNL     1       1.710   7.826  20.252  0.00  0.00    +0.000 A 
ATOM      5  C   UNL     1       1.091   9.070  20.133  0.00  0.00    +0.000 A 
ATOM      6  C   UNL     1       1.175   9.735  18.919  0.00  0.00    +0.000 A 
ATOM      7  N   UNL     1       1.827   9.250  17.842  0.00  0.00    +0.000 NA
ATOM      8  C   UNL     1       2.413   8.037  17.984  0.00  0.00    +0.000 A 
ENDBRANCH   2   3
BRANCH   2   9
ATOM      9  C   UNL     1       2.257   4.759  19.403  0.00  0.00    +0.000 A 
ATOM     10  C   UNL     1       1.898   4.192  20.664  0.00  0.00    +0.000 A 
ATOM     11  C   UNL     1       1.208   3.007  20.520  0.00  0.00    +0.000 A 
ATOM     12  S   UNL     1       0.944   2.613  18.877  0.00  0.00    +0.000 S 
ATOM     13  C   UNL     1       1.772   4.015  18.348  0.00  0.00    +0.000 A 
ENDBRANCH   2   9
BRANCH   1  14
ATOM     14  C   UNL     1       5.205   4.677  19.089  0.00  0.00    +0.000 C 
BRANCH  14  15
ATOM     15  C   UNL     1       6.061   4.495  17.832  0.00  0.00    +0.000 C 
BRANCH  15  16
ATOM     16  C   UNL     1       5.163   4.125  16.646  0.00  0.00    +0.000 C 
BRANCH  16  17
ATOM     17  C   UNL     1       5.367   5.050  15.449  0.00  0.00    +0.000 C 
BRANCH  17  19
ATOM     18  O   UNL     1       7.646   5.287  14.629  0.00  0.00    +0.000 OA
ATOM     19  C   UNL     1       6.596   4.663  14.656  0.00  0.00    +0.000 C 
BRANCH  19  20
ATOM     20  O   UNL     1       6.420   3.521  13.953  0.00  0.00    +0.000 OA
ATOM     21  H   UNL     1       6.155   3.665  13.026  0.00  0.00    +0.000 HD
ENDBRANCH  19  20
ENDBRANCH  17  19
ENDBRANCH  16  17
ENDBRANCH  15  16
ENDBRANCH  14  15
ENDBRANCH   1  14
TORSDOF 8
ENDMDL
MODEL 8
REMARK VINA RESULT:      -6.6      0.887      1.302
REMARK  Name = 
REMARK  8 active torsions:
REMARK  status: ('A' for Active; 'I' for Inactive)
REMARK    1  A    between atoms: C_2  and  O_3
REMARK    2  A    between atoms: C_2  and  C_4
REMARK    3  A    between atoms: C_4  and  C_5
REMARK    4  A    between atoms: C_5  and  C_6
REMARK    5  A    between atoms: C_6  and  C_7
REMARK    6  A    between atoms: C_7  and  C_8
REMARK    7  A    between atoms: C_9  and  C_10
REMARK    8  A    between atoms: C_9  and  C_16
REMARK                            x       y       z     vdW  Elec       q    Type
REMARK                         _______ _______ _______ _____ _____    ______ ____
ROOT
ATOM      1  C   UNL     1       2.654   4.933  17.625  0.00  0.00    +0.000 C 
ATOM      2  C   UNL     1       3.375   5.954  18.139  0.00  0.00    +0.000 C 
ENDROOT
BRANCH   2   3
ATOM      3  C   UNL     1       2.605   7.072  18.728  0.00  0.00    +0.000 A 
ATOM      4  C   UNL     1       2.229   7.073  20.073  0.00  0.00    +0.000 A 
ATOM      5  C   UNL     1       1.480   8.136  20.577  0.00  0.00    +0.000 A 
ATOM      6  C   UNL     1       1.135   9.167  19.717  0.00  0.00    +0.000 A 
ATOM      7  N   UNL     1       1.487   9.206  18.415  0.00  0.00    +0.000 NA
ATOM      8  C   UNL     1       2.208   8.157  17.950  0.00  0.00    +0.000 A 
ENDBRANCH   2   3
BRANCH   2   9
ATOM      9  C   UNL     1       4.815   5.960  18.147  0.00  0.00    +0.000 A 
ATOM     10  C   UNL     1       5.635   5.338  19.138  0.00  0.00    +0.000 A 
ATOM     11  C   UNL     1       6.976   5.571  18.918  0.00  0.00    +0.000 A 
ATOM     12  S   UNL     1       7.247   6.481  17.495  0.00  0.00    +0.000 S 
ATOM     13  C   UNL     1       5.568   6.589  17.177  0.00  0.00    +0.000 A 
ENDBRANCH   2   9
BRANCH   1  14
ATOM     14  C   UNL     1       3.264   3.695  17.021  0.00  0.00    +0.000 C 
BRANCH  14  15
ATOM     15  C   UNL     1       2.675   2.389  17.559  0.00  0.00    +0.000 C 
BRANCH  15  16
ATOM     16  C   UNL     1       1.496   2.699  18.490  0.00  0.00    +0.000 C 
BRANCH  16  17
ATOM     17  C   UNL     1       1.705   2.148  19.898  0.00  0.00    +0.000 C 
BRANCH  17  19
ATOM     18  O   UNL     1       0.822   4.258  20.731  0.00  0.00    +0.000 OA
ATOM     19  C   UNL     1       1.342   3.174  20.950  0.00  0.00    +0.000 C 
BRANCH  19  20
ATOM     20  O   UNL     1       1.658   2.768  22.201  0.00  0.00    +0.000 OA
ATOM     21  H   UNL     1       2.610   2.603  22.334  0.00  0.00    +0.000 HD
ENDBRANCH  19  20
ENDBRANCH  17  19
ENDBRANCH  16  17
ENDBRANCH  15  16
ENDBRANCH  14  15
ENDBRANCH   1  14
TORSDOF 8
ENDMDL
MODEL 9
REMARK VINA RESULT:      -6.6      0.861      1.487
REMARK  Name = 
REMARK  8 active torsions:
REMARK  status: ('A' for Active; 'I' for Inactive)
REMARK    1  A    between atoms: C_2  and  O_3
REMARK    2  A    between atoms: C_2  and  C_4
REMARK    3  A    between atoms: C_4  and  C_5
REMARK    4  A    between atoms: C_5  and  C_6
REMARK    5  A    between atoms: C_6  and  C_7
REMARK    6  A    between atoms: C_7  and  C_8
REMARK    7  A    between atoms: C_9  and  C_10
REMARK    8  A    between atoms: C_9  and  C_16
REMARK                            x       y       z     vdW  Elec       q    Type
REMARK                         _______ _______ _______ _____ _____    ______ ____
ROOT
ATOM      1  C   UNL     1       2.247   5.079  17.904  0.00  0.00    +0.000 C 
ATOM      2  C   UNL     1       3.070   6.121  18.155  0.00  0.00    +0.000 C 
ENDROOT
BRANCH   2   3
ATOM      3  C   UNL     1       2.426   7.373  18.611  0.00  0.00    +0.000 A 
ATOM      4  C   UNL     1       1.979   7.529  19.925  0.00  0.00    +0.000 A 
ATOM      5  C   UNL     1       1.352   8.717  20.303  0.00  0.00    +0.000 A 
ATOM      6  C   UNL     1       1.198   9.713  19.351  0.00  0.00    +0.000 A 
ATOM      7  N   UNL     1       1.625   9.603  18.075  0.00  0.00    +0.000 NA
ATOM      8  C   UNL     1       2.223   8.436  17.735  0.00  0.00    +0.000 A 
ENDBRANCH   2   3
BRANCH   2   9
ATOM      9  C   UNL     1       4.500   6.031  18.017  0.00  0.00    +0.000 A 
ATOM     10  C   UNL     1       5.245   6.466  16.878  0.00  0.00    +0.000 A 
ATOM     11  C   UNL     1       6.590   6.187  17.003  0.00  0.00    +0.000 A 
ATOM     12  S   UNL     1       6.959   5.462  18.508  0.00  0.00    +0.000 S 
ATOM     13  C   UNL     1       5.316   5.495  18.991  0.00  0.00    +0.000 A 
ENDBRANCH   2   9
BRANCH   1  14
ATOM     14  C   UNL     1       2.725   3.718  17.471  0.00  0.00    +0.000 C 
BRANCH  14  15
ATOM     15  C   UNL     1       2.835   2.707  18.616  0.00  0.00    +0.000 C 
BRANCH  15  16
ATOM     16  C   UNL     1       1.435   2.220  19.011  0.00  0.00    +0.000 C 
BRANCH  16  17
ATOM     17  C   UNL     1       0.781   3.115  20.060  0.00  0.00    +0.000 C 
BRANCH  17  19
ATOM     18  O   UNL     1       2.304   4.395  21.462  0.00  0.00    +0.000 OA
ATOM     19  C   UNL     1       1.706   3.354  21.233  0.00  0.00    +0.000 C 
BRANCH  19  20
ATOM     20  O   UNL     1       1.817   2.271  22.036  0.00  0.00    +0.000 OA
ATOM     21  H   UNL     1       1.929   1.431  21.552  0.00  0.00    +0.000 HD
ENDBRANCH  19  20
ENDBRANCH  17  19
ENDBRANCH  16  17
ENDBRANCH  15  16
ENDBRANCH  14  15
ENDBRANCH   1  14
TORSDOF 8
ENDMDL
