MODEL 1
REMARK VINA RESULT:      -8.3      0.000      0.000
REMARK  Name = 
REMARK  5 active torsions:
REMARK  status: ('A' for Active; 'I' for Inactive)
REMARK    1  A    between atoms: C_5  and  C_6
REMARK    2  A    between atoms: C_8  and  S_9
REMARK    3  A    between atoms: S_9  and  C_10
REMARK    4  A    between atoms: C_10  and  C_11
REMARK    5  A    between atoms: C_18  and  C_19
REMARK                            x       y       z     vdW  Elec       q    Type
REMARK                         _______ _______ _______ _____ _____    ______ ____
ROOT
ATOM      1  C   UNL     1       2.753   6.189  18.116  0.00  0.00    +0.000 A 
ATOM      2  N   UNL     1       1.894   7.247  18.344  0.00  0.00    +0.000 N 
ATOM      3  C   UNL     1       2.488   8.400  17.934  0.00  0.00    +0.000 A 
ATOM      4  N   UNL     1       3.684   8.184  17.444  0.00  0.00    +0.000 NA
ATOM      5  C   UNL     1       3.865   6.812  17.542  0.00  0.00    +0.000 A 
ATOM      6  H   UNL     1       0.984   7.197  18.776  0.00  0.00    +0.000 HD
ENDROOT
BRANCH   1  11
ATOM      7  F   UNL     1       1.152   0.968  19.387  0.00  0.00    +0.000 F 
ATOM      8  C   UNL     1       1.587   2.202  19.107  0.00  0.00    +0.000 A 
ATOM      9  C   UNL     1       1.391   3.224  20.026  0.00  0.00    +0.000 A 
ATOM     10  C   UNL     1       1.799   4.525  19.713  0.00  0.00    +0.000 A 
ATOM     11  C   UNL     1       2.418   4.808  18.482  0.00  0.00    +0.000 A 
ATOM     12  C   UNL     1       2.662   3.740  17.602  0.00  0.00    +0.000 A 
ATOM     13  C   UNL     1       2.223   2.448  17.898  0.00  0.00    +0.000 A 
ENDBRANCH   1  11
BRANCH   5  14
ATOM     14  C   UNL     1       5.106   6.176  17.121  0.00  0.00    +0.000 A 
ATOM     15  C   UNL     1       6.071   5.868  18.077  0.00  0.00    +0.000 A 
ATOM     16  C   UNL     1       7.212   5.186  17.672  0.00  0.00    +0.000 A 
ATOM     17  N   UNL     1       7.445   4.797  16.399  0.00  0.00    +0.000 NA
ATOM     18  C   UNL     1       6.512   5.134  15.485  0.00  0.00    +0.000 A 
ATOM     19  C   UNL     1       5.356   5.836  15.789  0.00  0.00    +0.000 A 
ENDBRANCH   5  14
BRANCH   3  20
ATOM     20  S   UNL     1       1.665   9.891  18.194  0.00  0.00    +0.000 S 
BRANCH  20  21
ATOM     21  C   UNL     1       1.330   9.868  19.984  0.00  0.00    +0.000 C 
BRANCH  21  22
ATOM     22  C   UNL     1      -0.179   9.683  20.294  0.00  0.00    +0.000 C 
ATOM     23  C   UNL     1      -0.391   8.735  21.489  0.00  0.00    +0.000 C 
ATOM     24  C   UNL     1      -0.032   9.374  22.829  0.00  0.00    +0.000 C 
ATOM     25  C   UNL     1      -0.795  10.674  23.059  0.00  0.00    +0.000 C 
ATOM     26  C   UNL     1      -0.659  11.643  21.888  0.00  0.00    +0.000 C 
ATOM     27  C   UNL     1      -0.966  10.986  20.544  0.00  0.00    +0.000 C 
ENDBRANCH  21  22
ENDBRANCH  20  21
ENDBRANCH   3  20
TORSDOF 5
ENDMDL
MODEL 2
REMARK VINA RESULT:      -8.2      3.607      8.535
REMARK  Name = 
REMARK  5 active torsions:
REMARK  status: ('A' for Active; 'I' for Inactive)
REMARK    1  A    between atoms: C_5  and  C_6
REMARK    2  A    between atoms: C_8  and  S_9
REMARK    3  A    between atoms: S_9  and  C_10
REMARK    4  A    between atoms: C_10  and  C_11
REMARK    5  A    between atoms: C_18  and  C_19
REMARK                            x       y       z     vdW  Elec       q    Type
REMARK                         _______ _______ _______ _____ _____    ______ ____
ROOT
ATOM      1  C   UNL     1       3.667   6.017  17.593  0.00  0.00    +0.000 A 
ATOM      2  N   UNL     1       4.631   6.260  16.634  0.00  0.00    +0.000 N 
ATOM      3  C   UNL     1       5.175   5.077  16.240  0.00  0.00    +0.000 A 
ATOM      4  N   UNL     1       4.636   4.060  16.867  0.00  0.00    +0.000 NA
ATOM      5  C   UNL     1       3.689   4.624  17.709  0.00  0.00    +0.000 A 
ATOM      6  H   UNL     1       4.923   7.163  16.294  0.00  0.00    +0.000 HD
ENDROOT
BRANCH   1  11
ATOM      7  F   UNL     1       0.501   9.990  19.967  0.00  0.00    +0.000 F 
ATOM      8  C   UNL     1       1.304   9.069  19.422  0.00  0.00    +0.000 A 
ATOM      9  C   UNL     1       1.756   9.237  18.120  0.00  0.00    +0.000 A 
ATOM     10  C   UNL     1       2.553   8.250  17.531  0.00  0.00    +0.000 A 
ATOM     11  C   UNL     1       2.915   7.095  18.247  0.00  0.00    +0.000 A 
ATOM     12  C   UNL     1       2.498   6.987  19.584  0.00  0.00    +0.000 A 
ATOM     13  C   UNL     1       1.672   7.954  20.161  0.00  0.00    +0.000 A 
ENDBRANCH   1  11
BRANCH   5  14
ATOM     14  C   UNL     1       2.889   3.806  18.610  0.00  0.00    +0.000 A 
ATOM     15  C   UNL     1       3.420   3.430  19.841  0.00  0.00    +0.000 A 
ATOM     16  C   UNL     1       2.613   2.721  20.722  0.00  0.00    +0.000 A 
ATOM     17  N   UNL     1       1.334   2.374  20.460  0.00  0.00    +0.000 NA
ATOM     18  C   UNL     1       0.851   2.721  19.250  0.00  0.00    +0.000 A 
ATOM     19  C   UNL     1       1.588   3.405  18.295  0.00  0.00    +0.000 A 
ENDBRANCH   5  14
BRANCH   3  20
ATOM     20  S   UNL     1       6.477   5.102  15.112  0.00  0.00    +0.000 S 
BRANCH  20  21
ATOM     21  C   UNL     1       6.147   3.643  14.072  0.00  0.00    +0.000 C 
BRANCH  21  22
ATOM     22  C   UNL     1       5.918   4.024  12.586  0.00  0.00    +0.000 C 
ATOM     23  C   UNL     1       7.241   4.013  11.797  0.00  0.00    +0.000 C 
ATOM     24  C   UNL     1       7.759   2.603  11.520  0.00  0.00    +0.000 C 
ATOM     25  C   UNL     1       6.720   1.750  10.800  0.00  0.00    +0.000 C 
ATOM     26  C   UNL     1       5.371   1.753  11.511  0.00  0.00    +0.000 C 
ATOM     27  C   UNL     1       4.882   3.163  11.835  0.00  0.00    +0.000 C 
ENDBRANCH  21  22
ENDBRANCH  20  21
ENDBRANCH   3  20
TORSDOF 5
ENDMDL
MODEL 3
REMARK VINA RESULT:      -8.1      1.042      1.436
REMARK  Name = 
REMARK  5 active torsions:
REMARK  status: ('A' for Active; 'I' for Inactive)
REMARK    1  A    between atoms: C_5  and  C_6
REMARK    2  A    between atoms: C_8  and  S_9
REMARK    3  A    between atoms: S_9  and  C_10
REMARK    4  A    between atoms: C_10  and  C_11
REMARK    5  A    between atoms: C_18  and  C_19
REMARK                            x       y       z     vdW  Elec       q    Type
REMARK                         _______ _______ _______ _____ _____    ______ ____
ROOT
ATOM      1  C   UNL     1       3.046   6.146  18.856  0.00  0.00    +0.000 A 
ATOM      2  N   UNL     1       2.159   7.203  18.908  0.00  0.00    +0.000 N 
ATOM      3  C   UNL     1       2.567   8.171  18.044  0.00  0.00    +0.000 A 
ATOM      4  N   UNL     1       3.664   7.831  17.415  0.00  0.00    +0.000 NA
ATOM      5  C   UNL     1       3.976   6.570  17.901  0.00  0.00    +0.000 A 
ATOM      6  H   UNL     1       1.352   7.278  19.509  0.00  0.00    +0.000 HD
ENDROOT
BRANCH   1  11
ATOM      7  F   UNL     1       2.184   1.537  21.931  0.00  0.00    +0.000 F 
ATOM      8  C   UNL     1       2.441   2.644  21.224  0.00  0.00    +0.000 A 
ATOM      9  C   UNL     1       2.020   3.877  21.701  0.00  0.00    +0.000 A 
ATOM     10  C   UNL     1       2.244   5.029  20.938  0.00  0.00    +0.000 A 
ATOM     11  C   UNL     1       2.903   4.953  19.698  0.00  0.00    +0.000 A 
ATOM     12  C   UNL     1       3.377   3.700  19.275  0.00  0.00    +0.000 A 
ATOM     13  C   UNL     1       3.122   2.545  20.018  0.00  0.00    +0.000 A 
ENDBRANCH   1  11
BRANCH   5  14
ATOM     14  C   UNL     1       5.166   5.857  17.459  0.00  0.00    +0.000 A 
ATOM     15  C   UNL     1       5.201   5.320  16.175  0.00  0.00    +0.000 A 
ATOM     16  C   UNL     1       6.375   4.717  15.740  0.00  0.00    +0.000 A 
ATOM     17  N   UNL     1       7.496   4.622  16.489  0.00  0.00    +0.000 NA
ATOM     18  C   UNL     1       7.429   5.121  17.740  0.00  0.00    +0.000 A 
ATOM     19  C   UNL     1       6.295   5.716  18.271  0.00  0.00    +0.000 A 
ENDBRANCH   5  14
BRANCH   3  20
ATOM     20  S   UNL     1       1.684   9.650  17.983  0.00  0.00    +0.000 S 
BRANCH  20  21
ATOM     21  C   UNL     1       1.346   9.999  19.738  0.00  0.00    +0.000 C 
BRANCH  21  22
ATOM     22  C   UNL     1      -0.132   9.716  20.116  0.00  0.00    +0.000 C 
ATOM     23  C   UNL     1      -0.226   8.750  21.314  0.00  0.00    +0.000 C 
ATOM     24  C   UNL     1       0.154   9.405  22.640  0.00  0.00    +0.000 C 
ATOM     25  C   UNL     1      -0.680  10.653  22.915  0.00  0.00    +0.000 C 
ATOM     26  C   UNL     1      -0.662  11.633  21.747  0.00  0.00    +0.000 C 
ATOM     27  C   UNL     1      -0.989  10.964  20.414  0.00  0.00    +0.000 C 
ENDBRANCH  21  22
ENDBRANCH  20  21
ENDBRANCH   3  20
TORSDOF 5
ENDMDL
MODEL 4
REMARK VINA RESULT:      -8.1      1.156      1.458
REMARK  Name = 
REMARK  5 active torsions:
REMARK  status: ('A' for Active; 'I' for Inactive)
REMARK    1  A    between atoms: C_5  and  C_6
REMARK    2  A    between atoms: C_8  and  S_9
REMARK    3  A    between atoms: S_9  and  C_10
REMARK    4  A    between atoms: C_10  and  C_11
REMARK    5  A    between atoms: C_18  and  C_19
REMARK                            x       y       z     vdW  Elec       q    Type
REMARK                         _______ _______ _______ _____ _____    ______ ____
ROOT
ATOM      1  C   UNL     1       2.982   6.212  18.786  0.00  0.00    +0.000 A 
ATOM      2  N   UNL     1       2.099   7.269  18.896  0.00  0.00    +0.000 N 
ATOM      3  C   UNL     1       2.497   8.270  18.065  0.00  0.00    +0.000 A 
ATOM      4  N   UNL     1       3.583   7.952  17.404  0.00  0.00    +0.000 NA
ATOM      5  C   UNL     1       3.897   6.671  17.834  0.00  0.00    +0.000 A 
ATOM      6  H   UNL     1       1.302   7.323  19.513  0.00  0.00    +0.000 HD
ENDROOT
BRANCH   1  11
ATOM      7  F   UNL     1       2.707   1.659  22.048  0.00  0.00    +0.000 F 
ATOM      8  C   UNL     1       2.734   2.721  21.234  0.00  0.00    +0.000 A 
ATOM      9  C   UNL     1       3.673   2.780  20.213  0.00  0.00    +0.000 A 
ATOM     10  C   UNL     1       3.736   3.912  19.393  0.00  0.00    +0.000 A 
ATOM     11  C   UNL     1       2.848   4.987  19.582  0.00  0.00    +0.000 A 
ATOM     12  C   UNL     1       1.865   4.867  20.579  0.00  0.00    +0.000 A 
ATOM     13  C   UNL     1       1.826   3.753  21.421  0.00  0.00    +0.000 A 
ENDBRANCH   1  11
BRANCH   5  14
ATOM     14  C   UNL     1       5.077   5.973  17.345  0.00  0.00    +0.000 A 
ATOM     15  C   UNL     1       6.278   6.098  18.038  0.00  0.00    +0.000 A 
ATOM     16  C   UNL     1       7.373   5.359  17.606  0.00  0.00    +0.000 A 
ATOM     17  N   UNL     1       7.345   4.517  16.550  0.00  0.00    +0.000 NA
ATOM     18  C   UNL     1       6.180   4.436  15.875  0.00  0.00    +0.000 A 
ATOM     19  C   UNL     1       5.043   5.153  16.213  0.00  0.00    +0.000 A 
ENDBRANCH   5  14
BRANCH   3  20
ATOM     20  S   UNL     1       1.618   9.753  18.077  0.00  0.00    +0.000 S 
BRANCH  20  21
ATOM     21  C   UNL     1       1.285  10.017  19.849  0.00  0.00    +0.000 C 
BRANCH  21  22
ATOM     22  C   UNL     1      -0.203   9.765  20.207  0.00  0.00    +0.000 C 
ATOM     23  C   UNL     1      -0.334   8.777  21.382  0.00  0.00    +0.000 C 
ATOM     24  C   UNL     1       0.050   9.394  22.726  0.00  0.00    +0.000 C 
ATOM     25  C   UNL     1      -0.754  10.656  23.019  0.00  0.00    +0.000 C 
ATOM     26  C   UNL     1      -0.699  11.661  21.873  0.00  0.00    +0.000 C 
ATOM     27  C   UNL     1      -1.030  11.028  20.523  0.00  0.00    +0.000 C 
ENDBRANCH  21  22
ENDBRANCH  20  21
ENDBRANCH   3  20
TORSDOF 5
ENDMDL
MODEL 5
REMARK VINA RESULT:      -8.1      2.190      4.300
REMARK  Name = 
REMARK  5 active torsions:
REMARK  status: ('A' for Active; 'I' for Inactive)
REMARK    1  A    between atoms: C_5  and  C_6
REMARK    2  A    between atoms: C_8  and  S_9
REMARK    3  A    between atoms: S_9  and  C_10
REMARK    4  A    between atoms: C_10  and  C_11
REMARK    5  A    between atoms: C_18  and  C_19
REMARK                            x       y       z     vdW  Elec       q    Type
REMARK                         _______ _______ _______ _____ _____    ______ ____
ROOT
ATOM      1  C   UNL     1       3.418   6.693  18.037  0.00  0.00    +0.000 A 
ATOM      2  N   UNL     1       3.153   8.025  17.785  0.00  0.00    +0.000 N 
ATOM      3  C   UNL     1       2.038   8.396  18.471  0.00  0.00    +0.000 A 
ATOM      4  N   UNL     1       1.543   7.403  19.168  0.00  0.00    +0.000 NA
ATOM      5  C   UNL     1       2.392   6.335  18.917  0.00  0.00    +0.000 A 
ATOM      6  H   UNL     1       3.670   8.632  17.167  0.00  0.00    +0.000 HD
ENDROOT
BRANCH   1  11
ATOM      7  F   UNL     1       7.627   4.128  15.365  0.00  0.00    +0.000 F 
ATOM      8  C   UNL     1       6.638   4.711  16.052  0.00  0.00    +0.000 A 
ATOM      9  C   UNL     1       5.378   4.127  16.071  0.00  0.00    +0.000 A 
ATOM     10  C   UNL     1       4.330   4.763  16.746  0.00  0.00    +0.000 A 
ATOM     11  C   UNL     1       4.541   5.981  17.417  0.00  0.00    +0.000 A 
ATOM     12  C   UNL     1       5.842   6.511  17.436  0.00  0.00    +0.000 A 
ATOM     13  C   UNL     1       6.880   5.896  16.732  0.00  0.00    +0.000 A 
ENDBRANCH   1  11
BRANCH   5  14
ATOM     14  C   UNL     1       2.153   5.021  19.497  0.00  0.00    +0.000 A 
ATOM     15  C   UNL     1       2.555   4.771  20.806  0.00  0.00    +0.000 A 
ATOM     16  C   UNL     1       2.244   3.541  21.372  0.00  0.00    +0.000 A 
ATOM     17  N   UNL     1       1.566   2.565  20.729  0.00  0.00    +0.000 NA
ATOM     18  C   UNL     1       1.214   2.817  19.452  0.00  0.00    +0.000 A 
ATOM     19  C   UNL     1       1.503   4.003  18.794  0.00  0.00    +0.000 A 
ENDBRANCH   5  14
BRANCH   3  20
ATOM     20  S   UNL     1       1.429   9.994  18.256  0.00  0.00    +0.000 S 
BRANCH  20  21
ATOM     21  C   UNL     1       0.221  10.157  19.610  0.00  0.00    +0.000 C 
BRANCH  21  22
ATOM     22  C   UNL     1       0.880  10.648  20.925  0.00  0.00    +0.000 C 
ATOM     23  C   UNL     1       0.164  11.897  21.475  0.00  0.00    +0.000 C 
ATOM     24  C   UNL     1      -1.198  11.581  22.090  0.00  0.00    +0.000 C 
ATOM     25  C   UNL     1      -1.095  10.520  23.181  0.00  0.00    +0.000 C 
ATOM     26  C   UNL     1      -0.356   9.271  22.711  0.00  0.00    +0.000 C 
ATOM     27  C   UNL     1       0.980   9.595  22.048  0.00  0.00    +0.000 C 
ENDBRANCH  21  22
ENDBRANCH  20  21
ENDBRANCH   3  20
TORSDOF 5
ENDMDL
MODEL 6
REMARK VINA RESULT:      -8.1      0.868      1.693
REMARK  Name = 
REMARK  5 active torsions:
REMARK  status: ('A' for Active; 'I' for Inactive)
REMARK    1  A    between atoms: C_5  and  C_6
REMARK    2  A    between atoms: C_8  and  S_9
REMARK    3  A    between atoms: S_9  and  C_10
REMARK    4  A    between atoms: C_10  and  C_11
REMARK    5  A    between atoms: C_18  and  C_19
REMARK                            x       y       z     vdW  Elec       q    Type
REMARK                         _______ _______ _______ _____ _____    ______ ____
ROOT
ATOM      1  C   UNL     1       2.745   6.437  18.617  0.00  0.00    +0.000 A 
ATOM      2  N   UNL     1       1.894   7.518  18.736  0.00  0.00    +0.000 N 
ATOM      3  C   UNL     1       2.373   8.548  17.988  0.00  0.00    +0.000 A 
ATOM      4  N   UNL     1       3.484   8.227  17.372  0.00  0.00    +0.000 NA
ATOM      5  C   UNL     1       3.729   6.913  17.746  0.00  0.00    +0.000 A 
ATOM      6  H   UNL     1       1.064   7.567  19.309  0.00  0.00    +0.000 HD
ENDROOT
BRANCH   1  11
ATOM      7  F   UNL     1       1.555   1.684  21.344  0.00  0.00    +0.000 F 
ATOM      8  C   UNL     1       1.896   2.805  20.697  0.00  0.00    +0.000 A 
ATOM      9  C   UNL     1       2.103   3.976  21.414  0.00  0.00    +0.000 A 
ATOM     10  C   UNL     1       2.409   5.159  20.734  0.00  0.00    +0.000 A 
ATOM     11  C   UNL     1       2.523   5.175  19.332  0.00  0.00    +0.000 A 
ATOM     12  C   UNL     1       2.375   3.961  18.642  0.00  0.00    +0.000 A 
ATOM     13  C   UNL     1       2.034   2.786  19.316  0.00  0.00    +0.000 A 
ENDBRANCH   1  11
BRANCH   5  14
ATOM     14  C   UNL     1       4.912   6.200  17.285  0.00  0.00    +0.000 A 
ATOM     15  C   UNL     1       5.062   5.935  15.926  0.00  0.00    +0.000 A 
ATOM     16  C   UNL     1       6.235   5.329  15.494  0.00  0.00    +0.000 A 
ATOM     17  N   UNL     1       7.250   4.981  16.314  0.00  0.00    +0.000 NA
ATOM     18  C   UNL     1       7.071   5.219  17.629  0.00  0.00    +0.000 A 
ATOM     19  C   UNL     1       5.926   5.794  18.158  0.00  0.00    +0.000 A 
ENDBRANCH   5  14
BRANCH   3  20
ATOM     20  S   UNL     1       1.545  10.059  18.034  0.00  0.00    +0.000 S 
BRANCH  20  21
ATOM     21  C   UNL     1       0.436   9.874  19.467  0.00  0.00    +0.000 C 
BRANCH  21  22
ATOM     22  C   UNL     1       1.077  10.407  20.775  0.00  0.00    +0.000 C 
ATOM     23  C   UNL     1       0.397  11.709  21.240  0.00  0.00    +0.000 C 
ATOM     24  C   UNL     1      -0.994  11.479  21.828  0.00  0.00    +0.000 C 
ATOM     25  C   UNL     1      -0.964  10.473  22.974  0.00  0.00    +0.000 C 
ATOM     26  C   UNL     1      -0.264   9.173  22.590  0.00  0.00    +0.000 C 
ATOM     27  C   UNL     1       1.103   9.410  21.952  0.00  0.00    +0.000 C 
ENDBRANCH  21  22
ENDBRANCH  20  21
ENDBRANCH   3  20
TORSDOF 5
ENDMDL
MODEL 7
REMARK VINA RESULT:      -8.0      0.529      1.510
REMARK  Name = 
REMARK  5 active torsions:
REMARK  status: ('A' for Active; 'I' for Inactive)
REMARK    1  A    between atoms: C_5  and  C_6
REMARK    2  A    between atoms: C_8  and  S_9
REMARK    3  A    between atoms: S_9  and  C_10
REMARK    4  A    between atoms: C_10  and  C_11
REMARK    5  A    between atoms: C_18  and  C_19
REMARK                            x       y       z     vdW  Elec       q    Type
REMARK                         _______ _______ _______ _____ _____    ______ ____
ROOT
ATOM      1  C   UNL     1       2.628   6.350  18.209  0.00  0.00    +0.000 A 
ATOM      2  N   UNL     1       1.797   7.435  18.411  0.00  0.00    +0.000 N 
ATOM      3  C   UNL     1       2.433   8.565  18.000  0.00  0.00    +0.000 A 
ATOM      4  N   UNL     1       3.630   8.309  17.533  0.00  0.00    +0.000 NA
ATOM      5  C   UNL     1       3.768   6.933  17.648  0.00  0.00    +0.000 A 
ATOM      6  H   UNL     1       0.878   7.417  18.827  0.00  0.00    +0.000 HD
ENDROOT
BRANCH   1  11
ATOM      7  F   UNL     1       1.506   1.058  19.686  0.00  0.00    +0.000 F 
ATOM      8  C   UNL     1       1.717   2.329  19.324  0.00  0.00    +0.000 A 
ATOM      9  C   UNL     1       1.987   2.630  17.996  0.00  0.00    +0.000 A 
ATOM     10  C   UNL     1       2.258   3.952  17.626  0.00  0.00    +0.000 A 
ATOM     11  C   UNL     1       2.245   4.983  18.582  0.00  0.00    +0.000 A 
ATOM     12  C   UNL     1       1.902   4.657  19.905  0.00  0.00    +0.000 A 
ATOM     13  C   UNL     1       1.667   3.332  20.282  0.00  0.00    +0.000 A 
ENDBRANCH   1  11
BRANCH   5  14
ATOM     14  C   UNL     1       4.997   6.257  17.256  0.00  0.00    +0.000 A 
ATOM     15  C   UNL     1       5.898   5.859  18.240  0.00  0.00    +0.000 A 
ATOM     16  C   UNL     1       7.024   5.141  17.857  0.00  0.00    +0.000 A 
ATOM     17  N   UNL     1       7.300   4.798  16.579  0.00  0.00    +0.000 NA
ATOM     18  C   UNL     1       6.430   5.220  15.640  0.00  0.00    +0.000 A 
ATOM     19  C   UNL     1       5.294   5.964  15.923  0.00  0.00    +0.000 A 
ENDBRANCH   5  14
BRANCH   3  20
ATOM     20  S   UNL     1       1.650  10.084  18.230  0.00  0.00    +0.000 S 
BRANCH  20  21
ATOM     21  C   UNL     1       0.541   9.764  19.639  0.00  0.00    +0.000 C 
BRANCH  21  22
ATOM     22  C   UNL     1       1.141  10.263  20.980  0.00  0.00    +0.000 C 
ATOM     23  C   UNL     1       0.531  11.616  21.394  0.00  0.00    +0.000 C 
ATOM     24  C   UNL     1      -0.905  11.494  21.899  0.00  0.00    +0.000 C 
ATOM     25  C   UNL     1      -1.017  10.502  23.052  0.00  0.00    +0.000 C 
ATOM     26  C   UNL     1      -0.392   9.150  22.719  0.00  0.00    +0.000 C 
ATOM     27  C   UNL     1       1.024   9.280  22.163  0.00  0.00    +0.000 C 
ENDBRANCH  21  22
ENDBRANCH  20  21
ENDBRANCH   3  20
TORSDOF 5
ENDMDL
MODEL 8
REMARK VINA RESULT:      -8.0      0.764      1.553
REMARK  Name = 
REMARK  5 active torsions:
REMARK  status: ('A' for Active; 'I' for Inactive)
REMARK    1  A    between atoms: C_5  and  C_6
REMARK    2  A    between atoms: C_8  and  S_9
REMARK    3  A    between atoms: S_9  and  C_10
REMARK    4  A    between atoms: C_10  and  C_11
REMARK    5  A    between atoms: C_18  and  C_19
REMARK                            x       y       z     vdW  Elec       q    Type
REMARK                         _______ _______ _______ _____ _____    ______ ____
ROOT
ATOM      1  C   UNL     1       2.671   6.357  18.681  0.00  0.00    +0.000 A 
ATOM      2  N   UNL     1       1.858   7.471  18.750  0.00  0.00    +0.000 N 
ATOM      3  C   UNL     1       2.416   8.476  18.023  0.00  0.00    +0.000 A 
ATOM      4  N   UNL     1       3.545   8.108  17.470  0.00  0.00    +0.000 NA
ATOM      5  C   UNL     1       3.718   6.788  17.861  0.00  0.00    +0.000 A 
ATOM      6  H   UNL     1       1.002   7.556  19.277  0.00  0.00    +0.000 HD
ENDROOT
BRANCH   1  11
ATOM      7  F   UNL     1       1.834   1.522  21.395  0.00  0.00    +0.000 F 
ATOM      8  C   UNL     1       1.976   2.684  20.746  0.00  0.00    +0.000 A 
ATOM      9  C   UNL     1       2.018   2.695  19.359  0.00  0.00    +0.000 A 
ATOM     10  C   UNL     1       2.217   3.903  18.681  0.00  0.00    +0.000 A 
ATOM     11  C   UNL     1       2.362   5.109  19.389  0.00  0.00    +0.000 A 
ATOM     12  C   UNL     1       2.247   5.074  20.789  0.00  0.00    +0.000 A 
ATOM     13  C   UNL     1       2.085   3.864  21.468  0.00  0.00    +0.000 A 
ENDBRANCH   1  11
BRANCH   5  14
ATOM     14  C   UNL     1       4.895   6.026  17.467  0.00  0.00    +0.000 A 
ATOM     15  C   UNL     1       5.139   5.800  16.115  0.00  0.00    +0.000 A 
ATOM     16  C   UNL     1       6.309   5.144  15.753  0.00  0.00    +0.000 A 
ATOM     17  N   UNL     1       7.235   4.712  16.637  0.00  0.00    +0.000 NA
ATOM     18  C   UNL     1       6.964   4.914  17.942  0.00  0.00    +0.000 A 
ATOM     19  C   UNL     1       5.812   5.534  18.401  0.00  0.00    +0.000 A 
ENDBRANCH   5  14
BRANCH   3  20
ATOM     20  S   UNL     1       1.648  10.019  18.019  0.00  0.00    +0.000 S 
BRANCH  20  21
ATOM     21  C   UNL     1       1.284  10.300  19.782  0.00  0.00    +0.000 C 
BRANCH  21  22
ATOM     22  C   UNL     1      -0.196   9.988  20.129  0.00  0.00    +0.000 C 
ATOM     23  C   UNL     1      -0.295   8.916  21.232  0.00  0.00    +0.000 C 
ATOM     24  C   UNL     1       0.084   9.445  22.614  0.00  0.00    +0.000 C 
ATOM     25  C   UNL     1      -0.747  10.664  23.001  0.00  0.00    +0.000 C 
ATOM     26  C   UNL     1      -0.723  11.748  21.928  0.00  0.00    +0.000 C 
ATOM     27  C   UNL     1      -1.049  11.206  20.539  0.00  0.00    +0.000 C 
ENDBRANCH  21  22
ENDBRANCH  20  21
ENDBRANCH   3  20
TORSDOF 5
ENDMDL
MODEL 9
REMARK VINA RESULT:      -7.9      2.316      4.132
REMARK  Name = 
REMARK  5 active torsions:
REMARK  status: ('A' for Active; 'I' for Inactive)
REMARK    1  A    between atoms: C_5  and  C_6
REMARK    2  A    between atoms: C_8  and  S_9
REMARK    3  A    between atoms: S_9  and  C_10
REMARK    4  A    between atoms: C_10  and  C_11
REMARK    5  A    between atoms: C_18  and  C_19
REMARK                            x       y       z     vdW  Elec       q    Type
REMARK                         _______ _______ _______ _____ _____    ______ ____
ROOT
ATOM      1  C   UNL     1       3.727   6.659  17.986  0.00  0.00    +0.000 A 
ATOM      2  N   UNL     1       3.261   7.919  17.664  0.00  0.00    +0.000 N 
ATOM      3  C   UNL     1       2.265   8.260  18.525  0.00  0.00    +0.000 A 
ATOM      4  N   UNL     1       2.037   7.315  19.404  0.00  0.00    +0.000 NA
ATOM      5  C   UNL     1       2.942   6.312  19.090  0.00  0.00    +0.000 A 
ATOM      6  H   UNL     1       3.573   8.494  16.896  0.00  0.00    +0.000 HD
ENDROOT
BRANCH   1  11
ATOM      7  F   UNL     1       7.696   4.313  14.794  0.00  0.00    +0.000 F 
ATOM      8  C   UNL     1       6.762   4.835  15.599  0.00  0.00    +0.000 A 
ATOM      9  C   UNL     1       5.463   4.350  15.547  0.00  0.00    +0.000 A 
ATOM     10  C   UNL     1       4.475   4.929  16.351  0.00  0.00    +0.000 A 
ATOM     11  C   UNL     1       4.785   5.990  17.221  0.00  0.00    +0.000 A 
ATOM     12  C   UNL     1       6.122   6.412  17.299  0.00  0.00    +0.000 A 
ATOM     13  C   UNL     1       7.102   5.860  16.471  0.00  0.00    +0.000 A 
ENDBRANCH   1  11
BRANCH   5  14
ATOM     14  C   UNL     1       2.979   5.060  19.833  0.00  0.00    +0.000 A 
ATOM     15  C   UNL     1       2.045   4.841  20.843  0.00  0.00    +0.000 A 
ATOM     16  C   UNL     1       2.040   3.608  21.484  0.00  0.00    +0.000 A 
ATOM     17  N   UNL     1       2.888   2.599  21.185  0.00  0.00    +0.000 NA
ATOM     18  C   UNL     1       3.803   2.845  20.226  0.00  0.00    +0.000 A 
ATOM     19  C   UNL     1       3.903   4.051  19.550  0.00  0.00    +0.000 A 
ENDBRANCH   5  14
BRANCH   3  20
ATOM     20  S   UNL     1       1.439   9.753  18.285  0.00  0.00    +0.000 S 
BRANCH  20  21
ATOM     21  C   UNL     1       1.047  10.282  19.983  0.00  0.00    +0.000 C 
BRANCH  21  22
ATOM     22  C   UNL     1      -0.424   9.971  20.366  0.00  0.00    +0.000 C 
ATOM     23  C   UNL     1      -0.497   8.916  21.487  0.00  0.00    +0.000 C 
ATOM     24  C   UNL     1      -0.091   9.466  22.853  0.00  0.00    +0.000 C 
ATOM     25  C   UNL     1      -0.917  10.688  23.239  0.00  0.00    +0.000 C 
ATOM     26  C   UNL     1      -0.919  11.757  22.150  0.00  0.00    +0.000 C 
ATOM     27  C   UNL     1      -1.273  11.192  20.776  0.00  0.00    +0.000 C 
ENDBRANCH  21  22
ENDBRANCH  20  21
ENDBRANCH   3  20
TORSDOF 5
ENDMDL
