MODEL 1
REMARK VINA RESULT:      -7.3      0.000      0.000
REMARK  Name = 
REMARK  9 active torsions:
REMARK  status: ('A' for Active; 'I' for Inactive)
REMARK    1  A    between atoms: C_1  and  C_2
REMARK    2  A    between atoms: C_2  and  C_3
REMARK    3  A    between atoms: C_2  and  C_4
REMARK    4  A    between atoms: C_4  and  N_5
REMARK    5  A    between atoms: C_6  and  C_8
REMARK    6  A    between atoms: C_8  and  C_9
REMARK    7  A    between atoms: C_14  and  C_16
REMARK    8  A    between atoms: C_21  and  O_22
REMARK    9  A    between atoms: O_22  and  C_23
REMARK                            x       y       z     vdW  Elec       q    Type
REMARK                         _______ _______ _______ _____ _____    ______ ____
ROOT
ATOM      1  C   UNL     1       6.417   4.691  16.818  0.00  0.00    +0.000 C 
ATOM      2  C   UNL     1       5.911   3.261  17.079  0.00  0.00    +0.000 C 
ATOM      3  C   UNL     1       7.809   4.909  17.471  0.00  0.00    +0.000 C 
ATOM      4  C   UNL     1       7.515   5.321  18.892  0.00  0.00    +0.000 C 
ATOM      5  C   UNL     1       6.267   6.171  18.748  0.00  0.00    +0.000 C 
ATOM      6  N   UNL     1       5.558   5.666  17.568  0.00  0.00    +0.000 N 
ATOM      7  C   UNL     1       4.208   5.877  17.277  0.00  0.00    +0.000 C 
ATOM      8  O   UNL     1       3.687   5.432  16.253  0.00  0.00    +0.000 OA
ENDROOT
BRANCH   7   9
ATOM      9  C   UNL     1       3.346   6.740  18.132  0.00  0.00    +0.000 A 
ATOM     10  C   UNL     1       2.723   7.855  17.553  0.00  0.00    +0.000 A 
ATOM     11  C   UNL     1       1.907   8.680  18.327  0.00  0.00    +0.000 A 
ATOM     12  C   UNL     1       1.760   8.381  19.667  0.00  0.00    +0.000 A 
ATOM     13  N   UNL     1       2.290   7.285  20.245  0.00  0.00    +0.000 NA
ATOM     14  C   UNL     1       3.009   6.448  19.449  0.00  0.00    +0.000 A 
BRANCH  14  15
ATOM     15  O   UNL     1       3.385   5.211  19.954  0.00  0.00    +0.000 OA
BRANCH  15  16
ATOM     16  C   UNL     1       2.599   4.122  19.679  0.00  0.00    +0.000 A 
ATOM     17  C   UNL     1       1.206   4.171  19.786  0.00  0.00    +0.000 A 
ATOM     18  C   UNL     1       0.445   3.074  19.409  0.00  0.00    +0.000 A 
ATOM     19  C   UNL     1       1.069   1.935  18.904  0.00  0.00    +0.000 A 
ATOM     20  C   UNL     1       2.462   1.889  18.776  0.00  0.00    +0.000 A 
ATOM     21  C   UNL     1       3.228   2.988  19.162  0.00  0.00    +0.000 A 
ENDBRANCH  15  16
ENDBRANCH  14  15
ENDBRANCH   7   9
BRANCH   1  23
ATOM     22  N   UNL     1       6.005   4.000  14.430  0.00  0.00    +0.000 N 
ATOM     23  C   UNL     1       6.692   4.839  15.272  0.00  0.00    +0.000 C 
ATOM     24  O   UNL     1       7.612   5.547  14.849  0.00  0.00    +0.000 OA
ATOM     25  H   UNL     1       5.361   3.325  14.850  0.00  0.00    +0.000 HD
BRANCH  22  26
ATOM     26  C   UNL     1       6.272   3.931  13.003  0.00  0.00    +0.000 C 
BRANCH  26  28
ATOM     27  C   UNL     1       4.317   3.381  11.483  0.00  0.00    +0.000 C 
ATOM     28  C   UNL     1       5.488   2.815  12.290  0.00  0.00    +0.000 C 
ATOM     29  C   UNL     1       6.415   2.025  11.359  0.00  0.00    +0.000 C 
ENDBRANCH  26  28
ENDBRANCH  22  26
ENDBRANCH   1  23
TORSDOF 6
ENDMDL
MODEL 2
REMARK VINA RESULT:      -7.3      2.706      5.690
REMARK  Name = 
REMARK  9 active torsions:
REMARK  status: ('A' for Active; 'I' for Inactive)
REMARK    1  A    between atoms: C_1  and  C_2
REMARK    2  A    between atoms: C_2  and  C_3
REMARK    3  A    between atoms: C_2  and  C_4
REMARK    4  A    between atoms: C_4  and  N_5
REMARK    5  A    between atoms: C_6  and  C_8
REMARK    6  A    between atoms: C_8  and  C_9
REMARK    7  A    between atoms: C_14  and  C_16
REMARK    8  A    between atoms: C_21  and  O_22
REMARK    9  A    between atoms: O_22  and  C_23
REMARK                            x       y       z     vdW  Elec       q    Type
REMARK                         _______ _______ _______ _____ _____    ______ ____
ROOT
ATOM      1  C   UNL     1       7.164   6.281  17.789  0.00  0.00    +0.000 C 
ATOM      2  C   UNL     1       7.710   5.480  16.594  0.00  0.00    +0.000 C 
ATOM      3  C   UNL     1       8.062   6.083  19.040  0.00  0.00    +0.000 C 
ATOM      4  C   UNL     1       7.543   4.829  19.700  0.00  0.00    +0.000 C 
ATOM      5  C   UNL     1       6.046   4.921  19.474  0.00  0.00    +0.000 C 
ATOM      6  N   UNL     1       5.862   5.681  18.234  0.00  0.00    +0.000 N 
ATOM      7  C   UNL     1       4.708   5.687  17.446  0.00  0.00    +0.000 C 
ATOM      8  O   UNL     1       4.625   6.368  16.422  0.00  0.00    +0.000 OA
ENDROOT
BRANCH   7   9
ATOM      9  C   UNL     1       3.476   4.956  17.853  0.00  0.00    +0.000 A 
ATOM     10  C   UNL     1       3.245   3.679  17.322  0.00  0.00    +0.000 A 
ATOM     11  C   UNL     1       2.101   2.967  17.686  0.00  0.00    +0.000 A 
ATOM     12  C   UNL     1       1.207   3.567  18.551  0.00  0.00    +0.000 A 
ATOM     13  N   UNL     1       1.425   4.763  19.130  0.00  0.00    +0.000 NA
ATOM     14  C   UNL     1       2.590   5.399  18.827  0.00  0.00    +0.000 A 
BRANCH  14  15
ATOM     15  O   UNL     1       2.945   6.522  19.563  0.00  0.00    +0.000 OA
BRANCH  15  16
ATOM     16  C   UNL     1       2.232   7.679  19.381  0.00  0.00    +0.000 A 
ATOM     17  C   UNL     1       2.087   8.267  18.122  0.00  0.00    +0.000 A 
ATOM     18  C   UNL     1       1.281   9.386  17.970  0.00  0.00    +0.000 A 
ATOM     19  C   UNL     1       0.600   9.907  19.068  0.00  0.00    +0.000 A 
ATOM     20  C   UNL     1       0.726   9.309  20.328  0.00  0.00    +0.000 A 
ATOM     21  C   UNL     1       1.542   8.189  20.483  0.00  0.00    +0.000 A 
ENDBRANCH  15  16
ENDBRANCH  14  15
ENDBRANCH   7   9
BRANCH   1  23
ATOM     22  N   UNL     1       8.233   8.530  18.172  0.00  0.00    +0.000 N 
ATOM     23  C   UNL     1       7.304   7.816  17.456  0.00  0.00    +0.000 C 
ATOM     24  O   UNL     1       6.498   8.389  16.716  0.00  0.00    +0.000 OA
ATOM     25  H   UNL     1       8.774   8.031  18.882  0.00  0.00    +0.000 HD
BRANCH  22  26
ATOM     26  C   UNL     1       8.361   9.974  18.069  0.00  0.00    +0.000 C 
BRANCH  26  28
ATOM     27  C   UNL     1      10.203  11.712  17.921  0.00  0.00    +0.000 C 
ATOM     28  C   UNL     1       9.651  10.519  18.706  0.00  0.00    +0.000 C 
ATOM     29  C   UNL     1       9.393  10.937  20.158  0.00  0.00    +0.000 C 
ENDBRANCH  26  28
ENDBRANCH  22  26
ENDBRANCH   1  23
TORSDOF 6
ENDMDL
MODEL 3
REMARK VINA RESULT:      -7.2      1.150      1.520
REMARK  Name = 
REMARK  9 active torsions:
REMARK  status: ('A' for Active; 'I' for Inactive)
REMARK    1  A    between atoms: C_1  and  C_2
REMARK    2  A    between atoms: C_2  and  C_3
REMARK    3  A    between atoms: C_2  and  C_4
REMARK    4  A    between atoms: C_4  and  N_5
REMARK    5  A    between atoms: C_6  and  C_8
REMARK    6  A    between atoms: C_8  and  C_9
REMARK    7  A    between atoms: C_14  and  C_16
REMARK    8  A    between atoms: C_21  and  O_22
REMARK    9  A    between atoms: O_22  and  C_23
REMARK                            x       y       z     vdW  Elec       q    Type
REMARK                         _______ _______ _______ _____ _____    ______ ____
ROOT
ATOM      1  C   UNL     1       6.866   5.808  16.813  0.00  0.00    +0.000 C 
ATOM      2  C   UNL     1       7.145   4.725  17.870  0.00  0.00    +0.000 C 
ATOM      3  C   UNL     1       8.046   6.815  16.733  0.00  0.00    +0.000 C 
ATOM      4  C   UNL     1       7.758   7.843  17.799  0.00  0.00    +0.000 C 
ATOM      5  C   UNL     1       6.247   7.973  17.745  0.00  0.00    +0.000 C 
ATOM      6  N   UNL     1       5.738   6.679  17.282  0.00  0.00    +0.000 N 
ATOM      7  C   UNL     1       4.429   6.215  17.442  0.00  0.00    +0.000 C 
ATOM      8  O   UNL     1       4.072   5.117  17.010  0.00  0.00    +0.000 OA
ENDROOT
BRANCH   7   9
ATOM      9  C   UNL     1       3.364   7.061  18.049  0.00  0.00    +0.000 A 
ATOM     10  C   UNL     1       2.725   8.018  17.246  0.00  0.00    +0.000 A 
ATOM     11  C   UNL     1       1.722   8.823  17.785  0.00  0.00    +0.000 A 
ATOM     12  C   UNL     1       1.405   8.667  19.120  0.00  0.00    +0.000 A 
ATOM     13  N   UNL     1       1.951   7.718  19.905  0.00  0.00    +0.000 NA
ATOM     14  C   UNL     1       2.864   6.886  19.334  0.00  0.00    +0.000 A 
BRANCH  14  15
ATOM     15  O   UNL     1       3.284   5.771  20.046  0.00  0.00    +0.000 OA
BRANCH  15  16
ATOM     16  C   UNL     1       2.424   4.711  20.173  0.00  0.00    +0.000 A 
ATOM     17  C   UNL     1       1.701   4.212  19.087  0.00  0.00    +0.000 A 
ATOM     18  C   UNL     1       0.913   3.081  19.242  0.00  0.00    +0.000 A 
ATOM     19  C   UNL     1       0.861   2.432  20.474  0.00  0.00    +0.000 A 
ATOM     20  C   UNL     1       1.601   2.916  21.560  0.00  0.00    +0.000 A 
ATOM     21  C   UNL     1       2.386   4.058  21.407  0.00  0.00    +0.000 A 
ENDBRANCH  15  16
ENDBRANCH  14  15
ENDBRANCH   7   9
BRANCH   1  23
ATOM     22  N   UNL     1       6.041   4.024  15.237  0.00  0.00    +0.000 N 
ATOM     23  C   UNL     1       6.854   5.119  15.395  0.00  0.00    +0.000 C 
ATOM     24  O   UNL     1       7.669   5.434  14.522  0.00  0.00    +0.000 OA
ATOM     25  H   UNL     1       5.495   3.715  16.045  0.00  0.00    +0.000 HD
BRANCH  22  26
ATOM     26  C   UNL     1       6.046   3.211  14.033  0.00  0.00    +0.000 C 
BRANCH  26  28
ATOM     27  C   UNL     1       6.987   4.007  11.815  0.00  0.00    +0.000 C 
ATOM     28  C   UNL     1       5.775   4.018  12.751  0.00  0.00    +0.000 C 
ATOM     29  C   UNL     1       4.555   3.453  12.014  0.00  0.00    +0.000 C 
ENDBRANCH  26  28
ENDBRANCH  22  26
ENDBRANCH   1  23
TORSDOF 6
ENDMDL
MODEL 4
REMARK VINA RESULT:      -7.1      1.583      3.538
REMARK  Name = 
REMARK  9 active torsions:
REMARK  status: ('A' for Active; 'I' for Inactive)
REMARK    1  A    between atoms: C_1  and  C_2
REMARK    2  A    between atoms: C_2  and  C_3
REMARK    3  A    between atoms: C_2  and  C_4
REMARK    4  A    between atoms: C_4  and  N_5
REMARK    5  A    between atoms: C_6  and  C_8
REMARK    6  A    between atoms: C_8  and  C_9
REMARK    7  A    between atoms: C_14  and  C_16
REMARK    8  A    between atoms: C_21  and  O_22
REMARK    9  A    between atoms: O_22  and  C_23
REMARK                            x       y       z     vdW  Elec       q    Type
REMARK                         _______ _______ _______ _____ _____    ______ ____
ROOT
ATOM      1  C   UNL     1       6.238   5.118  16.740  0.00  0.00    +0.000 C 
ATOM      2  C   UNL     1       7.340   4.050  16.624  0.00  0.00    +0.000 C 
ATOM      3  C   UNL     1       6.837   6.480  17.184  0.00  0.00    +0.000 C 
ATOM      4  C   UNL     1       6.875   6.420  18.690  0.00  0.00    +0.000 C 
ATOM      5  C   UNL     1       5.609   5.657  19.031  0.00  0.00    +0.000 C 
ATOM      6  N   UNL     1       5.336   4.778  17.890  0.00  0.00    +0.000 N 
ATOM      7  C   UNL     1       4.519   3.645  17.912  0.00  0.00    +0.000 C 
ATOM      8  O   UNL     1       4.326   2.964  16.903  0.00  0.00    +0.000 OA
ENDROOT
BRANCH   7   9
ATOM      9  C   UNL     1       3.749   3.256  19.126  0.00  0.00    +0.000 A 
ATOM     10  C   UNL     1       4.397   2.519  20.128  0.00  0.00    +0.000 A 
ATOM     11  C   UNL     1       3.703   2.143  21.278  0.00  0.00    +0.000 A 
ATOM     12  C   UNL     1       2.371   2.491  21.380  0.00  0.00    +0.000 A 
ATOM     13  N   UNL     1       1.732   3.251  20.470  0.00  0.00    +0.000 NA
ATOM     14  C   UNL     1       2.453   3.680  19.399  0.00  0.00    +0.000 A 
BRANCH  14  15
ATOM     15  O   UNL     1       1.894   4.634  18.560  0.00  0.00    +0.000 OA
BRANCH  15  16
ATOM     16  C   UNL     1       1.978   5.955  18.918  0.00  0.00    +0.000 A 
ATOM     17  C   UNL     1       2.246   6.957  17.982  0.00  0.00    +0.000 A 
ATOM     18  C   UNL     1       2.230   8.289  18.372  0.00  0.00    +0.000 A 
ATOM     19  C   UNL     1       1.926   8.624  19.690  0.00  0.00    +0.000 A 
ATOM     20  C   UNL     1       1.636   7.624  20.626  0.00  0.00    +0.000 A 
ATOM     21  C   UNL     1       1.660   6.285  20.236  0.00  0.00    +0.000 A 
ENDBRANCH  15  16
ENDBRANCH  14  15
ENDBRANCH   7   9
BRANCH   1  23
ATOM     22  N   UNL     1       5.578   4.331  14.439  0.00  0.00    +0.000 N 
ATOM     23  C   UNL     1       5.675   5.401  15.294  0.00  0.00    +0.000 C 
ATOM     24  O   UNL     1       5.499   6.554  14.888  0.00  0.00    +0.000 OA
ATOM     25  H   UNL     1       5.880   3.416  14.783  0.00  0.00    +0.000 HD
BRANCH  22  26
ATOM     26  C   UNL     1       5.216   4.477  13.039  0.00  0.00    +0.000 C 
BRANCH  26  28
ATOM     27  C   UNL     1       4.182   3.138  11.149  0.00  0.00    +0.000 C 
ATOM     28  C   UNL     1       5.231   3.148  12.264  0.00  0.00    +0.000 C 
ATOM     29  C   UNL     1       6.618   2.897  11.662  0.00  0.00    +0.000 C 
ENDBRANCH  26  28
ENDBRANCH  22  26
ENDBRANCH   1  23
TORSDOF 6
ENDMDL
MODEL 5
REMARK VINA RESULT:      -6.9      3.150      5.941
REMARK  Name = 
REMARK  9 active torsions:
REMARK  status: ('A' for Active; 'I' for Inactive)
REMARK    1  A    between atoms: C_1  and  C_2
REMARK    2  A    between atoms: C_2  and  C_3
REMARK    3  A    between atoms: C_2  and  C_4
REMARK    4  A    between atoms: C_4  and  N_5
REMARK    5  A    between atoms: C_6  and  C_8
REMARK    6  A    between atoms: C_8  and  C_9
REMARK    7  A    between atoms: C_14  and  C_16
REMARK    8  A    between atoms: C_21  and  O_22
REMARK    9  A    between atoms: O_22  and  C_23
REMARK                            x       y       z     vdW  Elec       q    Type
REMARK                         _______ _______ _______ _____ _____    ______ ____
ROOT
ATOM      1  C   UNL     1       2.821   5.672  19.039  0.00  0.00    +0.000 C 
ATOM      2  C   UNL     1       1.998   5.529  17.747  0.00  0.00    +0.000 C 
ATOM      3  C   UNL     1       2.848   4.333  19.824  0.00  0.00    +0.000 C 
ATOM      4  C   UNL     1       1.600   4.349  20.670  0.00  0.00    +0.000 C 
ATOM      5  C   UNL     1       1.477   5.808  21.067  0.00  0.00    +0.000 C 
ATOM      6  N   UNL     1       2.099   6.582  19.989  0.00  0.00    +0.000 N 
ATOM      7  C   UNL     1       1.889   7.940  19.736  0.00  0.00    +0.000 C 
ATOM      8  O   UNL     1       2.463   8.526  18.817  0.00  0.00    +0.000 OA
ENDROOT
BRANCH   7   9
ATOM      9  C   UNL     1       1.042   8.782  20.626  0.00  0.00    +0.000 A 
ATOM     10  C   UNL     1       1.258   8.727  22.011  0.00  0.00    +0.000 A 
ATOM     11  C   UNL     1       0.483   9.507  22.870  0.00  0.00    +0.000 A 
ATOM     12  C   UNL     1      -0.505  10.300  22.320  0.00  0.00    +0.000 A 
ATOM     13  N   UNL     1      -0.699  10.428  20.993  0.00  0.00    +0.000 NA
ATOM     14  C   UNL     1       0.127   9.724  20.172  0.00  0.00    +0.000 A 
BRANCH  14  15
ATOM     15  O   UNL     1       0.097   9.994  18.810  0.00  0.00    +0.000 OA
BRANCH  15  16
ATOM     16  C   UNL     1      -1.103  10.313  18.229  0.00  0.00    +0.000 A 
ATOM     17  C   UNL     1      -1.870  11.397  18.666  0.00  0.00    +0.000 A 
ATOM     18  C   UNL     1      -3.032  11.738  17.990  0.00  0.00    +0.000 A 
ATOM     19  C   UNL     1      -3.421  11.014  16.865  0.00  0.00    +0.000 A 
ATOM     20  C   UNL     1      -2.645   9.940  16.411  0.00  0.00    +0.000 A 
ATOM     21  C   UNL     1      -1.481   9.592  17.095  0.00  0.00    +0.000 A 
ENDBRANCH  15  16
ENDBRANCH  14  15
ENDBRANCH   7   9
BRANCH   1  23
ATOM     22  N   UNL     1       4.568   6.440  17.394  0.00  0.00    +0.000 N 
ATOM     23  C   UNL     1       4.327   5.911  18.638  0.00  0.00    +0.000 C 
ATOM     24  O   UNL     1       5.253   5.477  19.332  0.00  0.00    +0.000 OA
ATOM     25  H   UNL     1       3.762   6.643  16.798  0.00  0.00    +0.000 HD
BRANCH  22  26
ATOM     26  C   UNL     1       5.907   6.572  16.844  0.00  0.00    +0.000 C 
BRANCH  26  28
ATOM     27  C   UNL     1       7.355   4.491  16.734  0.00  0.00    +0.000 C 
ATOM     28  C   UNL     1       6.339   5.365  15.993  0.00  0.00    +0.000 C 
ATOM     29  C   UNL     1       5.119   4.519  15.612  0.00  0.00    +0.000 C 
ENDBRANCH  26  28
ENDBRANCH  22  26
ENDBRANCH   1  23
TORSDOF 6
ENDMDL
MODEL 6
REMARK VINA RESULT:      -6.8      1.309      1.448
REMARK  Name = 
REMARK  9 active torsions:
REMARK  status: ('A' for Active; 'I' for Inactive)
REMARK    1  A    between atoms: C_1  and  C_2
REMARK    2  A    between atoms: C_2  and  C_3
REMARK    3  A    between atoms: C_2  and  C_4
REMARK    4  A    between atoms: C_4  and  N_5
REMARK    5  A    between atoms: C_6  and  C_8
REMARK    6  A    between atoms: C_8  and  C_9
REMARK    7  A    between atoms: C_14  and  C_16
REMARK    8  A    between atoms: C_21  and  O_22
REMARK    9  A    between atoms: O_22  and  C_23
REMARK                            x       y       z     vdW  Elec       q    Type
REMARK                         _______ _______ _______ _____ _____    ______ ____
ROOT
ATOM      1  C   UNL     1       6.087   5.150  16.959  0.00  0.00    +0.000 C 
ATOM      2  C   UNL     1       6.380   4.231  18.158  0.00  0.00    +0.000 C 
ATOM      3  C   UNL     1       7.344   5.979  16.582  0.00  0.00    +0.000 C 
ATOM      4  C   UNL     1       7.292   7.197  17.471  0.00  0.00    +0.000 C 
ATOM      5  C   UNL     1       5.808   7.498  17.548  0.00  0.00    +0.000 C 
ATOM      6  N   UNL     1       5.117   6.217  17.377  0.00  0.00    +0.000 N 
ATOM      7  C   UNL     1       3.798   5.946  17.749  0.00  0.00    +0.000 C 
ATOM      8  O   UNL     1       3.282   4.844  17.558  0.00  0.00    +0.000 OA
ENDROOT
BRANCH   7   9
ATOM      9  C   UNL     1       2.905   7.004  18.300  0.00  0.00    +0.000 A 
ATOM     10  C   UNL     1       2.241   7.858  17.407  0.00  0.00    +0.000 A 
ATOM     11  C   UNL     1       1.396   8.856  17.893  0.00  0.00    +0.000 A 
ATOM     12  C   UNL     1       1.261   8.989  19.260  0.00  0.00    +0.000 A 
ATOM     13  N   UNL     1       1.831   8.150  20.146  0.00  0.00    +0.000 NA
ATOM     14  C   UNL     1       2.580   7.130  19.646  0.00  0.00    +0.000 A 
BRANCH  14  15
ATOM     15  O   UNL     1       3.002   6.128  20.510  0.00  0.00    +0.000 OA
BRANCH  15  16
ATOM     16  C   UNL     1       2.363   4.915  20.471  0.00  0.00    +0.000 A 
ATOM     17  C   UNL     1       1.004   4.806  20.164  0.00  0.00    +0.000 A 
ATOM     18  C   UNL     1       0.420   3.553  20.047  0.00  0.00    +0.000 A 
ATOM     19  C   UNL     1       1.195   2.407  20.213  0.00  0.00    +0.000 A 
ATOM     20  C   UNL     1       2.561   2.511  20.500  0.00  0.00    +0.000 A 
ATOM     21  C   UNL     1       3.146   3.771  20.626  0.00  0.00    +0.000 A 
ENDBRANCH  15  16
ENDBRANCH  14  15
ENDBRANCH   7   9
BRANCH   1  23
ATOM     22  N   UNL     1       5.619   4.879  14.498  0.00  0.00    +0.000 N 
ATOM     23  C   UNL     1       5.834   4.242  15.695  0.00  0.00    +0.000 C 
ATOM     24  O   UNL     1       5.658   3.024  15.805  0.00  0.00    +0.000 OA
ATOM     25  H   UNL     1       5.628   5.902  14.494  0.00  0.00    +0.000 HD
BRANCH  22  26
ATOM     26  C   UNL     1       5.229   4.169  13.291  0.00  0.00    +0.000 C 
BRANCH  26  28
ATOM     27  C   UNL     1       5.909   2.403  11.601  0.00  0.00    +0.000 C 
ATOM     28  C   UNL     1       6.403   3.455  12.598  0.00  0.00    +0.000 C 
ATOM     29  C   UNL     1       7.290   4.472  11.871  0.00  0.00    +0.000 C 
ENDBRANCH  26  28
ENDBRANCH  22  26
ENDBRANCH   1  23
TORSDOF 6
ENDMDL
MODEL 7
REMARK VINA RESULT:      -6.8      9.408     13.053
REMARK  Name = 
REMARK  9 active torsions:
REMARK  status: ('A' for Active; 'I' for Inactive)
REMARK    1  A    between atoms: C_1  and  C_2
REMARK    2  A    between atoms: C_2  and  C_3
REMARK    3  A    between atoms: C_2  and  C_4
REMARK    4  A    between atoms: C_4  and  N_5
REMARK    5  A    between atoms: C_6  and  C_8
REMARK    6  A    between atoms: C_8  and  C_9
REMARK    7  A    between atoms: C_14  and  C_16
REMARK    8  A    between atoms: C_21  and  O_22
REMARK    9  A    between atoms: O_22  and  C_23
REMARK                            x       y       z     vdW  Elec       q    Type
REMARK                         _______ _______ _______ _____ _____    ______ ____
ROOT
ATOM      1  C   UNL     1      -6.693  12.918  21.845  0.00  0.00    +0.000 C 
ATOM      2  C   UNL     1      -7.238  14.145  21.093  0.00  0.00    +0.000 C 
ATOM      3  C   UNL     1      -7.678  12.475  22.960  0.00  0.00    +0.000 C 
ATOM      4  C   UNL     1      -7.317  13.315  24.160  0.00  0.00    +0.000 C 
ATOM      5  C   UNL     1      -5.807  13.418  24.059  0.00  0.00    +0.000 C 
ATOM      6  N   UNL     1      -5.481  13.318  22.634  0.00  0.00    +0.000 N 
ATOM      7  C   UNL     1      -4.286  13.735  22.041  0.00  0.00    +0.000 C 
ATOM      8  O   UNL     1      -4.080  13.602  20.833  0.00  0.00    +0.000 OA
ENDROOT
BRANCH   7   9
ATOM      9  C   UNL     1      -3.152  14.266  22.847  0.00  0.00    +0.000 A 
ATOM     10  C   UNL     1      -3.141  15.629  23.178  0.00  0.00    +0.000 A 
ATOM     11  C   UNL     1      -2.094  16.155  23.936  0.00  0.00    +0.000 A 
ATOM     12  C   UNL     1      -1.074  15.307  24.317  0.00  0.00    +0.000 A 
ATOM     13  N   UNL     1      -1.081  13.982  24.073  0.00  0.00    +0.000 NA
ATOM     14  C   UNL     1      -2.155  13.477  23.409  0.00  0.00    +0.000 A 
BRANCH  14  15
ATOM     15  O   UNL     1      -2.299  12.098  23.330  0.00  0.00    +0.000 OA
BRANCH  15  16
ATOM     16  C   UNL     1      -1.359  11.378  22.639  0.00  0.00    +0.000 A 
ATOM     17  C   UNL     1      -0.788  10.215  23.163  0.00  0.00    +0.000 A 
ATOM     18  C   UNL     1       0.091   9.469  22.392  0.00  0.00    +0.000 A 
ATOM     19  C   UNL     1       0.385   9.867  21.090  0.00  0.00    +0.000 A 
ATOM     20  C   UNL     1      -0.201  11.020  20.553  0.00  0.00    +0.000 A 
ATOM     21  C   UNL     1      -1.078  11.775  21.330  0.00  0.00    +0.000 A 
ENDBRANCH  15  16
ENDBRANCH  14  15
ENDBRANCH   7   9
BRANCH   1  23
ATOM     22  N   UNL     1      -6.077  11.899  19.625  0.00  0.00    +0.000 N 
ATOM     23  C   UNL     1      -6.673  11.699  20.846  0.00  0.00    +0.000 C 
ATOM     24  O   UNL     1      -7.318  10.670  21.075  0.00  0.00    +0.000 OA
ATOM     25  H   UNL     1      -5.687  12.824  19.431  0.00  0.00    +0.000 HD
BRANCH  22  26
ATOM     26  C   UNL     1      -6.120  10.910  18.561  0.00  0.00    +0.000 C 
BRANCH  26  28
ATOM     27  C   UNL     1      -6.160  12.880  16.962  0.00  0.00    +0.000 C 
ATOM     28  C   UNL     1      -5.649  11.456  17.201  0.00  0.00    +0.000 C 
ATOM     29  C   UNL     1      -4.118  11.443  17.124  0.00  0.00    +0.000 C 
ENDBRANCH  26  28
ENDBRANCH  22  26
ENDBRANCH   1  23
TORSDOF 6
ENDMDL
MODEL 8
REMARK VINA RESULT:      -6.7      1.652      3.541
REMARK  Name = 
REMARK  9 active torsions:
REMARK  status: ('A' for Active; 'I' for Inactive)
REMARK    1  A    between atoms: C_1  and  C_2
REMARK    2  A    between atoms: C_2  and  C_3
REMARK    3  A    between atoms: C_2  and  C_4
REMARK    4  A    between atoms: C_4  and  N_5
REMARK    5  A    between atoms: C_6  and  C_8
REMARK    6  A    between atoms: C_8  and  C_9
REMARK    7  A    between atoms: C_14  and  C_16
REMARK    8  A    between atoms: C_21  and  O_22
REMARK    9  A    between atoms: O_22  and  C_23
REMARK                            x       y       z     vdW  Elec       q    Type
REMARK                         _______ _______ _______ _____ _____    ______ ____
ROOT
ATOM      1  C   UNL     1       6.148   5.083  16.988  0.00  0.00    +0.000 C 
ATOM      2  C   UNL     1       7.300   4.063  16.967  0.00  0.00    +0.000 C 
ATOM      3  C   UNL     1       6.658   6.480  17.433  0.00  0.00    +0.000 C 
ATOM      4  C   UNL     1       6.604   6.455  18.940  0.00  0.00    +0.000 C 
ATOM      5  C   UNL     1       5.353   5.645  19.222  0.00  0.00    +0.000 C 
ATOM      6  N   UNL     1       5.192   4.729  18.089  0.00  0.00    +0.000 N 
ATOM      7  C   UNL     1       4.424   3.561  18.089  0.00  0.00    +0.000 C 
ATOM      8  O   UNL     1       4.326   2.849  17.088  0.00  0.00    +0.000 OA
ENDROOT
BRANCH   7   9
ATOM      9  C   UNL     1       3.598   3.165  19.263  0.00  0.00    +0.000 A 
ATOM     10  C   UNL     1       4.215   2.485  20.323  0.00  0.00    +0.000 A 
ATOM     11  C   UNL     1       3.467   2.104  21.438  0.00  0.00    +0.000 A 
ATOM     12  C   UNL     1       2.117   2.390  21.447  0.00  0.00    +0.000 A 
ATOM     13  N   UNL     1       1.502   3.096  20.479  0.00  0.00    +0.000 NA
ATOM     14  C   UNL     1       2.270   3.533  19.444  0.00  0.00    +0.000 A 
BRANCH  14  15
ATOM     15  O   UNL     1       1.721   4.438  18.545  0.00  0.00    +0.000 OA
BRANCH  15  16
ATOM     16  C   UNL     1       1.787   5.777  18.837  0.00  0.00    +0.000 A 
ATOM     17  C   UNL     1       1.678   6.253  20.146  0.00  0.00    +0.000 A 
ATOM     18  C   UNL     1       1.843   7.606  20.406  0.00  0.00    +0.000 A 
ATOM     19  C   UNL     1       2.139   8.482  19.365  0.00  0.00    +0.000 A 
ATOM     20  C   UNL     1       2.270   8.007  18.054  0.00  0.00    +0.000 A 
ATOM     21  C   UNL     1       2.096   6.648  17.792  0.00  0.00    +0.000 A 
ENDBRANCH  15  16
ENDBRANCH  14  15
ENDBRANCH   7   9
BRANCH   1  23
ATOM     22  N   UNL     1       5.569   4.196  14.701  0.00  0.00    +0.000 N 
ATOM     23  C   UNL     1       5.665   5.307  15.504  0.00  0.00    +0.000 C 
ATOM     24  O   UNL     1       5.551   6.442  15.030  0.00  0.00    +0.000 OA
ATOM     25  H   UNL     1       5.820   3.292  15.107  0.00  0.00    +0.000 HD
BRANCH  22  26
ATOM     26  C   UNL     1       5.279   4.280  13.280  0.00  0.00    +0.000 C 
BRANCH  26  28
ATOM     27  C   UNL     1       5.217   2.531  11.443  0.00  0.00    +0.000 C 
ATOM     28  C   UNL     1       6.102   3.295  12.431  0.00  0.00    +0.000 C 
ATOM     29  C   UNL     1       7.200   4.041  11.663  0.00  0.00    +0.000 C 
ENDBRANCH  26  28
ENDBRANCH  22  26
ENDBRANCH   1  23
TORSDOF 6
ENDMDL
MODEL 9
REMARK VINA RESULT:      -6.7      0.724      1.102
REMARK  Name = 
REMARK  9 active torsions:
REMARK  status: ('A' for Active; 'I' for Inactive)
REMARK    1  A    between atoms: C_1  and  C_2
REMARK    2  A    between atoms: C_2  and  C_3
REMARK    3  A    between atoms: C_2  and  C_4
REMARK    4  A    between atoms: C_4  and  N_5
REMARK    5  A    between atoms: C_6  and  C_8
REMARK    6  A    between atoms: C_8  and  C_9
REMARK    7  A    between atoms: C_14  and  C_16
REMARK    8  A    between atoms: C_21  and  O_22
REMARK    9  A    between atoms: O_22  and  C_23
REMARK                            x       y       z     vdW  Elec       q    Type
REMARK                         _______ _______ _______ _____ _____    ______ ____
ROOT
ATOM      1  C   UNL     1       6.387   4.689  16.811  0.00  0.00    +0.000 C 
ATOM      2  C   UNL     1       5.687   3.318  16.805  0.00  0.00    +0.000 C 
ATOM      3  C   UNL     1       7.678   4.642  17.672  0.00  0.00    +0.000 C 
ATOM      4  C   UNL     1       7.220   4.920  19.082  0.00  0.00    +0.000 C 
ATOM      5  C   UNL     1       6.113   5.939  18.885  0.00  0.00    +0.000 C 
ATOM      6  N   UNL     1       5.541   5.675  17.562  0.00  0.00    +0.000 N 
ATOM      7  C   UNL     1       4.284   6.096  17.119  0.00  0.00    +0.000 C 
ATOM      8  O   UNL     1       3.878   5.846  15.983  0.00  0.00    +0.000 OA
ENDROOT
BRANCH   7   9
ATOM      9  C   UNL     1       3.405   6.959  17.957  0.00  0.00    +0.000 A 
ATOM     10  C   UNL     1       2.832   8.101  17.377  0.00  0.00    +0.000 A 
ATOM     11  C   UNL     1       2.002   8.927  18.135  0.00  0.00    +0.000 A 
ATOM     12  C   UNL     1       1.792   8.603  19.460  0.00  0.00    +0.000 A 
ATOM     13  N   UNL     1       2.272   7.483  20.034  0.00  0.00    +0.000 NA
ATOM     14  C   UNL     1       3.007   6.647  19.251  0.00  0.00    +0.000 A 
BRANCH  14  15
ATOM     15  O   UNL     1       3.334   5.391  19.744  0.00  0.00    +0.000 OA
BRANCH  15  16
ATOM     16  C   UNL     1       2.382   4.404  19.712  0.00  0.00    +0.000 A 
ATOM     17  C   UNL     1       1.881   3.900  18.509  0.00  0.00    +0.000 A 
ATOM     18  C   UNL     1       0.987   2.839  18.523  0.00  0.00    +0.000 A 
ATOM     19  C   UNL     1       0.608   2.265  19.734  0.00  0.00    +0.000 A 
ATOM     20  C   UNL     1       1.123   2.753  20.941  0.00  0.00    +0.000 A 
ATOM     21  C   UNL     1       2.015   3.825  20.928  0.00  0.00    +0.000 A 
ENDBRANCH  15  16
ENDBRANCH  14  15
ENDBRANCH   7   9
BRANCH   1  23
ATOM     22  N   UNL     1       6.533   4.102  14.365  0.00  0.00    +0.000 N 
ATOM     23  C   UNL     1       6.911   4.979  15.352  0.00  0.00    +0.000 C 
ATOM     24  O   UNL     1       7.764   5.846  15.137  0.00  0.00    +0.000 OA
ATOM     25  H   UNL     1       5.942   3.310  14.631  0.00  0.00    +0.000 HD
BRANCH  22  26
ATOM     26  C   UNL     1       7.063   4.168  13.014  0.00  0.00    +0.000 C 
BRANCH  26  28
ATOM     27  C   UNL     1       6.657   2.123  11.568  0.00  0.00    +0.000 C 
ATOM     28  C   UNL     1       6.147   3.510  11.967  0.00  0.00    +0.000 C 
ATOM     29  C   UNL     1       4.717   3.393  12.508  0.00  0.00    +0.000 C 
ENDBRANCH  26  28
ENDBRANCH  22  26
ENDBRANCH   1  23
TORSDOF 6
ENDMDL
