MODEL 1
REMARK VINA RESULT:      -7.5      0.000      0.000
REMARK  Name = 
REMARK  5 active torsions:
REMARK  status: ('A' for Active; 'I' for Inactive)
REMARK    1  A    between atoms: C_1  and  C_2
REMARK    2  A    between atoms: C_8  and  O_9
REMARK    3  A    between atoms: C_10  and  C_11
REMARK    4  A    between atoms: C_11  and  C_13
REMARK    5  A    between atoms: C_18  and  C_19
REMARK                            x       y       z     vdW  Elec       q    Type
REMARK                         _______ _______ _______ _____ _____    ______ ____
ROOT
ATOM      1  C   UNL     1      -0.023   9.027  22.823  0.00  0.00    +0.000 C 
ATOM      2  C   UNL     1       0.596   8.681  21.533  0.00  0.00    +0.000 A 
ATOM      3  C   UNL     1       1.667   7.910  21.156  0.00  0.00    +0.000 A 
ATOM      4  C   UNL     1       1.734   8.044  19.742  0.00  0.00    +0.000 A 
ATOM      5  N   UNL     1       2.665   7.438  18.912  0.00  0.00    +0.000 N 
ATOM      6  C   UNL     1       3.022   7.979  17.688  0.00  0.00    +0.000 C 
ATOM      7  O   UNL     1       2.637   8.959  17.075  0.00  0.00    +0.000 OA
ATOM      8  C   UNL     1       4.169   7.182  17.190  0.00  0.00    +0.000 C 
ATOM      9  C   UNL     1       4.408   6.208  18.076  0.00  0.00    +0.000 C 
ATOM     10  C   UNL     1       3.430   6.240  19.206  0.00  0.00    +0.000 C 
ATOM     11  N   UNL     1       0.774   8.872  19.319  0.00  0.00    +0.000 NA
ATOM     12  O   UNL     1       0.041   9.232  20.426  0.00  0.00    +0.000 OA
ENDROOT
BRANCH  10  13
ATOM     13  C   UNL     1       2.517   5.021  19.291  0.00  0.00    +0.000 A 
ATOM     14  C   UNL     1       1.747   4.586  18.197  0.00  0.00    +0.000 A 
ATOM     15  C   UNL     1       0.859   3.514  18.326  0.00  0.00    +0.000 A 
ATOM     16  C   UNL     1       0.709   2.872  19.552  0.00  0.00    +0.000 A 
ATOM     17  C   UNL     1       1.458   3.296  20.644  0.00  0.00    +0.000 A 
ATOM     18 BR   UNL     1       1.229   2.461  22.325  0.00  0.00    +0.000 Br
ATOM     19  C   UNL     1       2.364   4.351  20.518  0.00  0.00    +0.000 A 
ENDBRANCH  10  13
BRANCH   8  20
ATOM     20  O   UNL     1       4.812   7.487  16.030  0.00  0.00    +0.000 OA
ATOM     21  H   UNL     1       4.114   7.773  15.403  0.00  0.00    +0.000 HD
ENDBRANCH   8  20
BRANCH   9  22
ATOM     22  C   UNL     1       5.433   5.148  17.885  0.00  0.00    +0.000 C 
ATOM     23  O   UNL     1       5.990   4.689  18.882  0.00  0.00    +0.000 OA
BRANCH  22  24
ATOM     24  C   UNL     1       5.794   4.735  16.532  0.00  0.00    +0.000 A 
ATOM     25  C   UNL     1       5.089   4.023  15.577  0.00  0.00    +0.000 A 
ATOM     26  C   UNL     1       5.821   3.850  14.365  0.00  0.00    +0.000 A 
ATOM     27  C   UNL     1       7.083   4.391  14.444  0.00  0.00    +0.000 A 
ATOM     28  S   UNL     1       7.368   5.126  15.958  0.00  0.00    +0.000 S 
ENDBRANCH  22  24
ENDBRANCH   9  22
TORSDOF 4
ENDMDL
MODEL 2
REMARK VINA RESULT:      -6.9      1.077      1.446
REMARK  Name = 
REMARK  5 active torsions:
REMARK  status: ('A' for Active; 'I' for Inactive)
REMARK    1  A    between atoms: C_1  and  C_2
REMARK    2  A    between atoms: C_8  and  O_9
REMARK    3  A    between atoms: C_10  and  C_11
REMARK    4  A    between atoms: C_11  and  C_13
REMARK    5  A    between atoms: C_18  and  C_19
REMARK                            x       y       z     vdW  Elec       q    Type
REMARK                         _______ _______ _______ _____ _____    ______ ____
ROOT
ATOM      1  C   UNL     1      -0.174   9.503  23.186  0.00  0.00    +0.000 C 
ATOM      2  C   UNL     1       0.380   9.007  21.915  0.00  0.00    +0.000 A 
ATOM      3  C   UNL     1       1.505   8.303  21.566  0.00  0.00    +0.000 A 
ATOM      4  C   UNL     1       1.444   8.195  20.150  0.00  0.00    +0.000 A 
ATOM      5  N   UNL     1       2.374   7.558  19.342  0.00  0.00    +0.000 N 
ATOM      6  C   UNL     1       2.565   7.913  18.017  0.00  0.00    +0.000 C 
ATOM      7  O   UNL     1       2.015   8.724  17.293  0.00  0.00    +0.000 OA
ATOM      8  C   UNL     1       3.759   7.171  17.546  0.00  0.00    +0.000 C 
ATOM      9  C   UNL     1       4.184   6.397  18.551  0.00  0.00    +0.000 C 
ATOM     10  C   UNL     1       3.302   6.519  19.752  0.00  0.00    +0.000 C 
ATOM     11  N   UNL     1       0.359   8.828  19.693  0.00  0.00    +0.000 NA
ATOM     12  O   UNL     1      -0.324   9.295  20.792  0.00  0.00    +0.000 OA
ENDROOT
BRANCH  10  13
ATOM     13  C   UNL     1       2.555   5.243  20.124  0.00  0.00    +0.000 A 
ATOM     14  C   UNL     1       2.515   4.759  21.445  0.00  0.00    +0.000 A 
ATOM     15  C   UNL     1       1.890   3.545  21.746  0.00  0.00    +0.000 A 
ATOM     16  C   UNL     1       1.315   2.783  20.733  0.00  0.00    +0.000 A 
ATOM     17  C   UNL     1       1.355   3.245  19.422  0.00  0.00    +0.000 A 
ATOM     18 BR   UNL     1       0.617   2.197  18.031  0.00  0.00    +0.000 Br
ATOM     19  C   UNL     1       1.956   4.467  19.116  0.00  0.00    +0.000 A 
ENDBRANCH  10  13
BRANCH   8  20
ATOM     20  O   UNL     1       4.266   7.337  16.294  0.00  0.00    +0.000 OA
ATOM     21  H   UNL     1       3.528   7.681  15.748  0.00  0.00    +0.000 HD
ENDBRANCH   8  20
BRANCH   9  22
ATOM     22  C   UNL     1       5.313   5.437  18.436  0.00  0.00    +0.000 C 
ATOM     23  O   UNL     1       5.958   5.170  19.451  0.00  0.00    +0.000 OA
BRANCH  22  24
ATOM     24  C   UNL     1       5.665   4.897  17.126  0.00  0.00    +0.000 A 
ATOM     25  C   UNL     1       5.004   4.004  16.301  0.00  0.00    +0.000 A 
ATOM     26  C   UNL     1       5.705   3.756  15.083  0.00  0.00    +0.000 A 
ATOM     27  C   UNL     1       6.904   4.427  15.033  0.00  0.00    +0.000 A 
ATOM     28  S   UNL     1       7.166   5.370  16.431  0.00  0.00    +0.000 S 
ENDBRANCH  22  24
ENDBRANCH   9  22
TORSDOF 4
ENDMDL
MODEL 3
REMARK VINA RESULT:      -6.9      8.185     11.271
REMARK  Name = 
REMARK  5 active torsions:
REMARK  status: ('A' for Active; 'I' for Inactive)
REMARK    1  A    between atoms: C_1  and  C_2
REMARK    2  A    between atoms: C_8  and  O_9
REMARK    3  A    between atoms: C_10  and  C_11
REMARK    4  A    between atoms: C_11  and  C_13
REMARK    5  A    between atoms: C_18  and  C_19
REMARK                            x       y       z     vdW  Elec       q    Type
REMARK                         _______ _______ _______ _____ _____    ______ ____
ROOT
ATOM      1  C   UNL     1       2.125  15.924  19.296  0.00  0.00    +0.000 C 
ATOM      2  C   UNL     1       1.390  15.528  20.508  0.00  0.00    +0.000 A 
ATOM      3  C   UNL     1       0.143  15.010  20.751  0.00  0.00    +0.000 A 
ATOM      4  C   UNL     1       0.061  14.902  22.167  0.00  0.00    +0.000 A 
ATOM      5  N   UNL     1      -1.025  14.423  22.884  0.00  0.00    +0.000 N 
ATOM      6  C   UNL     1      -1.274  14.811  24.190  0.00  0.00    +0.000 C 
ATOM      7  O   UNL     1      -0.671  15.530  24.966  0.00  0.00    +0.000 OA
ATOM      8  C   UNL     1      -2.606  14.267  24.548  0.00  0.00    +0.000 C 
ATOM      9  C   UNL     1      -3.057  13.564  23.502  0.00  0.00    +0.000 C 
ATOM     10  C   UNL     1      -2.063  13.539  22.386  0.00  0.00    +0.000 C 
ATOM     11  N   UNL     1       1.187  15.361  22.723  0.00  0.00    +0.000 NA
ATOM     12  O   UNL     1       2.029  15.708  21.691  0.00  0.00    +0.000 OA
ENDROOT
BRANCH  10  13
ATOM     13  C   UNL     1      -1.496  12.160  22.070  0.00  0.00    +0.000 A 
ATOM     14  C   UNL     1      -1.143  11.247  23.081  0.00  0.00    +0.000 A 
ATOM     15  C   UNL     1      -0.551  10.021  22.766  0.00  0.00    +0.000 A 
ATOM     16  C   UNL     1      -0.281   9.693  21.440  0.00  0.00    +0.000 A 
ATOM     17  C   UNL     1      -0.618  10.588  20.431  0.00  0.00    +0.000 A 
ATOM     18 BR   UNL     1      -0.215  10.173  18.630  0.00  0.00    +0.000 Br
ATOM     19  C   UNL     1      -1.230  11.805  20.735  0.00  0.00    +0.000 A 
ENDBRANCH  10  13
BRANCH   8  20
ATOM     20  O   UNL     1      -3.190  14.517  25.752  0.00  0.00    +0.000 OA
ATOM     21  H   UNL     1      -3.436  15.466  25.739  0.00  0.00    +0.000 HD
ENDBRANCH   8  20
BRANCH   9  22
ATOM     22  C   UNL     1      -4.328  12.792  23.510  0.00  0.00    +0.000 C 
ATOM     23  O   UNL     1      -4.503  11.966  24.405  0.00  0.00    +0.000 OA
BRANCH  22  24
ATOM     24  C   UNL     1      -5.290  12.984  22.429  0.00  0.00    +0.000 A 
ATOM     25  C   UNL     1      -5.264  12.587  21.103  0.00  0.00    +0.000 A 
ATOM     26  C   UNL     1      -6.435  12.976  20.387  0.00  0.00    +0.000 A 
ATOM     27  C   UNL     1      -7.301  13.701  21.171  0.00  0.00    +0.000 A 
ATOM     28  S   UNL     1      -6.717  13.885  22.765  0.00  0.00    +0.000 S 
ENDBRANCH  22  24
ENDBRANCH   9  22
TORSDOF 4
ENDMDL
MODEL 4
REMARK VINA RESULT:      -6.8      3.797      6.838
REMARK  Name = 
REMARK  5 active torsions:
REMARK  status: ('A' for Active; 'I' for Inactive)
REMARK    1  A    between atoms: C_1  and  C_2
REMARK    2  A    between atoms: C_8  and  O_9
REMARK    3  A    between atoms: C_10  and  C_11
REMARK    4  A    between atoms: C_11  and  C_13
REMARK    5  A    between atoms: C_18  and  C_19
REMARK                            x       y       z     vdW  Elec       q    Type
REMARK                         _______ _______ _______ _____ _____    ______ ____
ROOT
ATOM      1  C   UNL     1       6.034   0.236  21.986  0.00  0.00    +0.000 C 
ATOM      2  C   UNL     1       5.271   0.935  20.940  0.00  0.00    +0.000 A 
ATOM      3  C   UNL     1       4.866   2.232  20.748  0.00  0.00    +0.000 A 
ATOM      4  C   UNL     1       4.122   2.209  19.537  0.00  0.00    +0.000 A 
ATOM      5  N   UNL     1       3.512   3.299  18.936  0.00  0.00    +0.000 N 
ATOM      6  C   UNL     1       2.411   3.163  18.106  0.00  0.00    +0.000 C 
ATOM      7  O   UNL     1       1.802   2.191  17.697  0.00  0.00    +0.000 OA
ATOM      8  C   UNL     1       1.919   4.533  17.826  0.00  0.00    +0.000 C 
ATOM      9  C   UNL     1       2.741   5.398  18.432  0.00  0.00    +0.000 C 
ATOM     10  C   UNL     1       3.863   4.695  19.127  0.00  0.00    +0.000 C 
ATOM     11  N   UNL     1       4.069   0.960  19.061  0.00  0.00    +0.000 NA
ATOM     12  O   UNL     1       4.819   0.178  19.909  0.00  0.00    +0.000 OA
ENDROOT
BRANCH  10  13
ATOM     13  C   UNL     1       5.247   4.989  18.556  0.00  0.00    +0.000 A 
ATOM     14  C   UNL     1       6.273   5.553  19.336  0.00  0.00    +0.000 A 
ATOM     15  C   UNL     1       7.506   5.885  18.769  0.00  0.00    +0.000 A 
ATOM     16  C   UNL     1       7.730   5.680  17.410  0.00  0.00    +0.000 A 
ATOM     17  C   UNL     1       6.723   5.130  16.626  0.00  0.00    +0.000 A 
ATOM     18 BR   UNL     1       6.999   4.888  14.770  0.00  0.00    +0.000 Br
ATOM     19  C   UNL     1       5.496   4.774  17.189  0.00  0.00    +0.000 A 
ENDBRANCH  10  13
BRANCH   8  20
ATOM     20  O   UNL     1       0.801   4.762  17.084  0.00  0.00    +0.000 OA
ATOM     21  H   UNL     1       0.282   5.431  17.579  0.00  0.00    +0.000 HD
ENDBRANCH   8  20
BRANCH   9  22
ATOM     22  C   UNL     1       2.624   6.875  18.312  0.00  0.00    +0.000 C 
ATOM     23  O   UNL     1       3.140   7.423  17.338  0.00  0.00    +0.000 OA
BRANCH  22  24
ATOM     24  C   UNL     1       1.969   7.632  19.374  0.00  0.00    +0.000 A 
ATOM     25  C   UNL     1       1.684   7.300  20.688  0.00  0.00    +0.000 A 
ATOM     26  C   UNL     1       1.036   8.357  21.395  0.00  0.00    +0.000 A 
ATOM     27  C   UNL     1       0.800   9.446  20.591  0.00  0.00    +0.000 A 
ATOM     28  S   UNL     1       1.382   9.206  19.004  0.00  0.00    +0.000 S 
ENDBRANCH  22  24
ENDBRANCH   9  22
TORSDOF 4
ENDMDL
MODEL 5
REMARK VINA RESULT:      -6.8      3.128      5.829
REMARK  Name = 
REMARK  5 active torsions:
REMARK  status: ('A' for Active; 'I' for Inactive)
REMARK    1  A    between atoms: C_1  and  C_2
REMARK    2  A    between atoms: C_8  and  O_9
REMARK    3  A    between atoms: C_10  and  C_11
REMARK    4  A    between atoms: C_11  and  C_13
REMARK    5  A    between atoms: C_18  and  C_19
REMARK                            x       y       z     vdW  Elec       q    Type
REMARK                         _______ _______ _______ _____ _____    ______ ____
ROOT
ATOM      1  C   UNL     1       8.708   8.274  18.750  0.00  0.00    +0.000 C 
ATOM      2  C   UNL     1       7.641   7.525  18.067  0.00  0.00    +0.000 A 
ATOM      3  C   UNL     1       6.570   6.777  18.486  0.00  0.00    +0.000 A 
ATOM      4  C   UNL     1       5.966   6.299  17.291  0.00  0.00    +0.000 A 
ATOM      5  N   UNL     1       4.840   5.495  17.214  0.00  0.00    +0.000 N 
ATOM      6  C   UNL     1       4.608   4.652  16.139  0.00  0.00    +0.000 C 
ATOM      7  O   UNL     1       5.212   4.456  15.100  0.00  0.00    +0.000 OA
ATOM      8  C   UNL     1       3.438   3.816  16.500  0.00  0.00    +0.000 C 
ATOM      9  C   UNL     1       3.006   4.211  17.703  0.00  0.00    +0.000 C 
ATOM     10  C   UNL     1       3.810   5.357  18.228  0.00  0.00    +0.000 C 
ATOM     11  N   UNL     1       6.665   6.720  16.231  0.00  0.00    +0.000 NA
ATOM     12  O   UNL     1       7.679   7.516  16.711  0.00  0.00    +0.000 OA
ENDROOT
BRANCH  10  13
ATOM     13  C   UNL     1       3.031   6.658  18.390  0.00  0.00    +0.000 A 
ATOM     14  C   UNL     1       2.981   7.630  17.374  0.00  0.00    +0.000 A 
ATOM     15  C   UNL     1       2.325   8.848  17.578  0.00  0.00    +0.000 A 
ATOM     16  C   UNL     1       1.728   9.126  18.805  0.00  0.00    +0.000 A 
ATOM     17  C   UNL     1       1.777   8.177  19.820  0.00  0.00    +0.000 A 
ATOM     18 BR   UNL     1       1.008   8.560  21.505  0.00  0.00    +0.000 Br
ATOM     19  C   UNL     1       2.409   6.949  19.617  0.00  0.00    +0.000 A 
ENDBRANCH  10  13
BRANCH   8  20
ATOM     20  O   UNL     1       2.976   2.829  15.685  0.00  0.00    +0.000 OA
ATOM     21  H   UNL     1       2.048   3.066  15.474  0.00  0.00    +0.000 HD
ENDBRANCH   8  20
BRANCH   9  22
ATOM     22  C   UNL     1       1.794   3.664  18.368  0.00  0.00    +0.000 C 
ATOM     23  O   UNL     1       0.732   3.675  17.745  0.00  0.00    +0.000 OA
BRANCH  22  24
ATOM     24  C   UNL     1       1.881   3.198  19.749  0.00  0.00    +0.000 A 
ATOM     25  C   UNL     1       0.971   3.256  20.789  0.00  0.00    +0.000 A 
ATOM     26  C   UNL     1       1.464   2.659  21.988  0.00  0.00    +0.000 A 
ATOM     27  C   UNL     1       2.755   2.206  21.844  0.00  0.00    +0.000 A 
ATOM     28  S   UNL     1       3.352   2.474  20.268  0.00  0.00    +0.000 S 
ENDBRANCH  22  24
ENDBRANCH   9  22
TORSDOF 4
ENDMDL
MODEL 6
REMARK VINA RESULT:      -6.5      7.600     10.565
REMARK  Name = 
REMARK  5 active torsions:
REMARK  status: ('A' for Active; 'I' for Inactive)
REMARK    1  A    between atoms: C_1  and  C_2
REMARK    2  A    between atoms: C_8  and  O_9
REMARK    3  A    between atoms: C_10  and  C_11
REMARK    4  A    between atoms: C_11  and  C_13
REMARK    5  A    between atoms: C_18  and  C_19
REMARK                            x       y       z     vdW  Elec       q    Type
REMARK                         _______ _______ _______ _____ _____    ______ ____
ROOT
ATOM      1  C   UNL     1       3.344  14.862  19.208  0.00  0.00    +0.000 C 
ATOM      2  C   UNL     1       2.401  14.698  20.326  0.00  0.00    +0.000 A 
ATOM      3  C   UNL     1       1.098  14.281  20.433  0.00  0.00    +0.000 A 
ATOM      4  C   UNL     1       0.786  14.405  21.814  0.00  0.00    +0.000 A 
ATOM      5  N   UNL     1      -0.430  14.095  22.404  0.00  0.00    +0.000 N 
ATOM      6  C   UNL     1      -0.855  14.698  23.576  0.00  0.00    +0.000 C 
ATOM      7  O   UNL     1      -0.334  15.506  24.325  0.00  0.00    +0.000 OA
ATOM      8  C   UNL     1      -2.261  14.277  23.785  0.00  0.00    +0.000 C 
ATOM      9  C   UNL     1      -2.589  13.436  22.797  0.00  0.00    +0.000 C 
ATOM     10  C   UNL     1      -1.436  13.189  21.879  0.00  0.00    +0.000 C 
ATOM     11  N   UNL     1       1.839  14.897  22.475  0.00  0.00    +0.000 NA
ATOM     12  O   UNL     1       2.855  15.038  21.558  0.00  0.00    +0.000 OA
ENDROOT
BRANCH  10  13
ATOM     13  C   UNL     1      -0.922  11.753  21.875  0.00  0.00    +0.000 A 
ATOM     14  C   UNL     1      -0.905  10.961  23.038  0.00  0.00    +0.000 A 
ATOM     15  C   UNL     1      -0.357   9.676  23.023  0.00  0.00    +0.000 A 
ATOM     16  C   UNL     1       0.205   9.167  21.855  0.00  0.00    +0.000 A 
ATOM     17  C   UNL     1       0.203   9.941  20.700  0.00  0.00    +0.000 A 
ATOM     18 BR   UNL     1       1.002   9.278  19.120  0.00  0.00    +0.000 Br
ATOM     19  C   UNL     1      -0.364  11.216  20.700  0.00  0.00    +0.000 A 
ENDBRANCH  10  13
BRANCH   8  20
ATOM     20  O   UNL     1      -3.010  14.742  24.822  0.00  0.00    +0.000 OA
ATOM     21  H   UNL     1      -3.010  15.719  24.736  0.00  0.00    +0.000 HD
ENDBRANCH   8  20
BRANCH   9  22
ATOM     22  C   UNL     1      -3.895  12.731  22.709  0.00  0.00    +0.000 C 
ATOM     23  O   UNL     1      -4.249  12.037  23.662  0.00  0.00    +0.000 OA
BRANCH  22  24
ATOM     24  C   UNL     1      -4.680  12.827  21.482  0.00  0.00    +0.000 A 
ATOM     25  C   UNL     1      -4.370  12.501  20.173  0.00  0.00    +0.000 A 
ATOM     26  C   UNL     1      -5.450  12.742  19.273  0.00  0.00    +0.000 A 
ATOM     27  C   UNL     1      -6.538  13.291  19.910  0.00  0.00    +0.000 A 
ATOM     28  S   UNL     1      -6.267  13.485  21.584  0.00  0.00    +0.000 S 
ENDBRANCH  22  24
ENDBRANCH   9  22
TORSDOF 4
ENDMDL
MODEL 7
REMARK VINA RESULT:      -6.5      6.515     10.075
REMARK  Name = 
REMARK  5 active torsions:
REMARK  status: ('A' for Active; 'I' for Inactive)
REMARK    1  A    between atoms: C_1  and  C_2
REMARK    2  A    between atoms: C_8  and  O_9
REMARK    3  A    between atoms: C_10  and  C_11
REMARK    4  A    between atoms: C_11  and  C_13
REMARK    5  A    between atoms: C_18  and  C_19
REMARK                            x       y       z     vdW  Elec       q    Type
REMARK                         _______ _______ _______ _____ _____    ______ ____
ROOT
ATOM      1  C   UNL     1       2.110   8.548  17.805  0.00  0.00    +0.000 C 
ATOM      2  C   UNL     1       1.338   9.269  18.830  0.00  0.00    +0.000 A 
ATOM      3  C   UNL     1       0.831  10.539  18.936  0.00  0.00    +0.000 A 
ATOM      4  C   UNL     1       0.221  10.585  20.219  0.00  0.00    +0.000 A 
ATOM      5  N   UNL     1      -0.430  11.677  20.772  0.00  0.00    +0.000 N 
ATOM      6  C   UNL     1      -0.531  11.859  22.141  0.00  0.00    +0.000 C 
ATOM      7  O   UNL     1      -0.174  11.186  23.091  0.00  0.00    +0.000 OA
ATOM      8  C   UNL     1      -1.100  13.213  22.349  0.00  0.00    +0.000 C 
ATOM      9  C   UNL     1      -1.352  13.741  21.145  0.00  0.00    +0.000 C 
ATOM     10  C   UNL     1      -1.020  12.787  20.044  0.00  0.00    +0.000 C 
ATOM     11  N   UNL     1       0.389   9.414  20.842  0.00  0.00    +0.000 NA
ATOM     12  O   UNL     1       1.044   8.583  19.963  0.00  0.00    +0.000 OA
ENDROOT
BRANCH  10  13
ATOM     13  C   UNL     1      -2.217  12.321  19.223  0.00  0.00    +0.000 A 
ATOM     14  C   UNL     1      -3.520  12.291  19.752  0.00  0.00    +0.000 A 
ATOM     15  C   UNL     1      -4.587  11.786  19.003  0.00  0.00    +0.000 A 
ATOM     16  C   UNL     1      -4.370  11.283  17.724  0.00  0.00    +0.000 A 
ATOM     17  C   UNL     1      -3.085  11.299  17.191  0.00  0.00    +0.000 A 
ATOM     18 BR   UNL     1      -2.769  10.578  15.472  0.00  0.00    +0.000 Br
ATOM     19  C   UNL     1      -2.018  11.823  17.922  0.00  0.00    +0.000 A 
ENDBRANCH  10  13
BRANCH   8  20
ATOM     20  O   UNL     1      -1.275  13.741  23.591  0.00  0.00    +0.000 OA
ATOM     21  H   UNL     1      -1.330  12.977  24.202  0.00  0.00    +0.000 HD
ENDBRANCH   8  20
BRANCH   9  22
ATOM     22  C   UNL     1      -2.008  15.059  20.941  0.00  0.00    +0.000 C 
ATOM     23  O   UNL     1      -3.015  15.318  21.601  0.00  0.00    +0.000 OA
BRANCH  22  24
ATOM     24  C   UNL     1      -1.488  15.971  19.927  0.00  0.00    +0.000 A 
ATOM     25  C   UNL     1      -0.425  15.847  19.049  0.00  0.00    +0.000 A 
ATOM     26  C   UNL     1      -0.271  16.987  18.204  0.00  0.00    +0.000 A 
ATOM     27  C   UNL     1      -1.189  17.969  18.493  0.00  0.00    +0.000 A 
ATOM     28  S   UNL     1      -2.244  17.506  19.752  0.00  0.00    +0.000 S 
ENDBRANCH  22  24
ENDBRANCH   9  22
TORSDOF 4
ENDMDL
MODEL 8
REMARK VINA RESULT:      -6.5      7.637      9.727
REMARK  Name = 
REMARK  5 active torsions:
REMARK  status: ('A' for Active; 'I' for Inactive)
REMARK    1  A    between atoms: C_1  and  C_2
REMARK    2  A    between atoms: C_8  and  O_9
REMARK    3  A    between atoms: C_10  and  C_11
REMARK    4  A    between atoms: C_11  and  C_13
REMARK    5  A    between atoms: C_18  and  C_19
REMARK                            x       y       z     vdW  Elec       q    Type
REMARK                         _______ _______ _______ _____ _____    ______ ____
ROOT
ATOM      1  C   UNL     1      -2.524  16.906  24.062  0.00  0.00    +0.000 C 
ATOM      2  C   UNL     1      -1.923  15.647  23.594  0.00  0.00    +0.000 A 
ATOM      3  C   UNL     1      -2.042  14.888  22.457  0.00  0.00    +0.000 A 
ATOM      4  C   UNL     1      -1.201  13.763  22.678  0.00  0.00    +0.000 A 
ATOM      5  N   UNL     1      -0.997  12.715  21.794  0.00  0.00    +0.000 N 
ATOM      6  C   UNL     1      -0.628  11.450  22.223  0.00  0.00    +0.000 C 
ATOM      7  O   UNL     1      -0.371  10.995  23.323  0.00  0.00    +0.000 OA
ATOM      8  C   UNL     1      -0.705  10.561  21.039  0.00  0.00    +0.000 C 
ATOM      9  C   UNL     1      -1.053  11.308  19.986  0.00  0.00    +0.000 C 
ATOM     10  C   UNL     1      -1.196  12.749  20.356  0.00  0.00    +0.000 C 
ATOM     11  N   UNL     1      -0.644  13.844  23.891  0.00  0.00    +0.000 NA
ATOM     12  O   UNL     1      -1.058  15.035  24.441  0.00  0.00    +0.000 OA
ENDROOT
BRANCH  10  13
ATOM     13  C   UNL     1      -0.187  13.680  19.691  0.00  0.00    +0.000 A 
ATOM     14  C   UNL     1       1.192  13.401  19.679  0.00  0.00    +0.000 A 
ATOM     15  C   UNL     1       2.103  14.309  19.133  0.00  0.00    +0.000 A 
ATOM     16  C   UNL     1       1.658  15.519  18.609  0.00  0.00    +0.000 A 
ATOM     17  C   UNL     1       0.299  15.812  18.621  0.00  0.00    +0.000 A 
ATOM     18 BR   UNL     1      -0.314  17.472  17.954  0.00  0.00    +0.000 Br
ATOM     19  C   UNL     1      -0.621  14.901  19.144  0.00  0.00    +0.000 A 
ENDBRANCH  10  13
BRANCH   8  20
ATOM     20  O   UNL     1      -0.465   9.224  21.123  0.00  0.00    +0.000 OA
ATOM     21  H   UNL     1       0.417   9.135  21.541  0.00  0.00    +0.000 HD
ENDBRANCH   8  20
BRANCH   9  22
ATOM     22  C   UNL     1      -1.150  10.787  18.597  0.00  0.00    +0.000 C 
ATOM     23  O   UNL     1      -0.157  10.252  18.104  0.00  0.00    +0.000 OA
BRANCH  22  24
ATOM     24  C   UNL     1      -2.383  10.984  17.841  0.00  0.00    +0.000 A 
ATOM     25  C   UNL     1      -3.582  11.581  18.191  0.00  0.00    +0.000 A 
ATOM     26  C   UNL     1      -4.534  11.571  17.128  0.00  0.00    +0.000 A 
ATOM     27  C   UNL     1      -4.055  10.924  16.013  0.00  0.00    +0.000 A 
ATOM     28  S   UNL     1      -2.460  10.361  16.239  0.00  0.00    +0.000 S 
ENDBRANCH  22  24
ENDBRANCH   9  22
TORSDOF 4
ENDMDL
MODEL 9
REMARK VINA RESULT:      -6.5      8.002     10.981
REMARK  Name = 
REMARK  5 active torsions:
REMARK  status: ('A' for Active; 'I' for Inactive)
REMARK    1  A    between atoms: C_1  and  C_2
REMARK    2  A    between atoms: C_8  and  O_9
REMARK    3  A    between atoms: C_10  and  C_11
REMARK    4  A    between atoms: C_11  and  C_13
REMARK    5  A    between atoms: C_18  and  C_19
REMARK                            x       y       z     vdW  Elec       q    Type
REMARK                         _______ _______ _______ _____ _____    ______ ____
ROOT
ATOM      1  C   UNL     1       2.045  15.467  20.218  0.00  0.00    +0.000 C 
ATOM      2  C   UNL     1       0.888  14.707  20.720  0.00  0.00    +0.000 A 
ATOM      3  C   UNL     1      -0.384  14.478  20.262  0.00  0.00    +0.000 A 
ATOM      4  C   UNL     1      -0.998  13.681  21.267  0.00  0.00    +0.000 A 
ATOM      5  N   UNL     1      -2.297  13.198  21.241  0.00  0.00    +0.000 N 
ATOM      6  C   UNL     1      -2.998  12.906  22.400  0.00  0.00    +0.000 C 
ATOM      7  O   UNL     1      -2.693  12.939  23.578  0.00  0.00    +0.000 OA
ATOM      8  C   UNL     1      -4.394  12.619  21.991  0.00  0.00    +0.000 C 
ATOM      9  C   UNL     1      -4.456  12.698  20.656  0.00  0.00    +0.000 C 
ATOM     10  C   UNL     1      -3.119  12.999  20.060  0.00  0.00    +0.000 C 
ATOM     11  N   UNL     1      -0.140  13.480  22.272  0.00  0.00    +0.000 NA
ATOM     12  O   UNL     1       1.045  14.080  21.913  0.00  0.00    +0.000 OA
ENDROOT
BRANCH  10  13
ATOM     13  C   UNL     1      -2.548  11.889  19.184  0.00  0.00    +0.000 A 
ATOM     14  C   UNL     1      -1.464  11.092  19.598  0.00  0.00    +0.000 A 
ATOM     15  C   UNL     1      -0.911  10.134  18.744  0.00  0.00    +0.000 A 
ATOM     16  C   UNL     1      -1.414   9.969  17.457  0.00  0.00    +0.000 A 
ATOM     17  C   UNL     1      -2.479  10.754  17.032  0.00  0.00    +0.000 A 
ATOM     18 BR   UNL     1      -3.142  10.570  15.270  0.00  0.00    +0.000 Br
ATOM     19  C   UNL     1      -3.053  11.697  17.886  0.00  0.00    +0.000 A 
ENDBRANCH  10  13
BRANCH   8  20
ATOM     20  O   UNL     1      -5.373  12.352  22.898  0.00  0.00    +0.000 OA
ATOM     21  H   UNL     1      -5.342  13.085  23.549  0.00  0.00    +0.000 HD
ENDBRANCH   8  20
BRANCH   9  22
ATOM     22  C   UNL     1      -5.675  12.390  19.865  0.00  0.00    +0.000 C 
ATOM     23  O   UNL     1      -6.216  11.296  20.028  0.00  0.00    +0.000 OA
BRANCH  22  24
ATOM     24  C   UNL     1      -6.153  13.354  18.878  0.00  0.00    +0.000 A 
ATOM     25  C   UNL     1      -6.424  13.218  17.527  0.00  0.00    +0.000 A 
ATOM     26  C   UNL     1      -6.894  14.428  16.934  0.00  0.00    +0.000 A 
ATOM     27  C   UNL     1      -6.922  15.466  17.836  0.00  0.00    +0.000 A 
ATOM     28  S   UNL     1      -6.415  14.975  19.389  0.00  0.00    +0.000 S 
ENDBRANCH  22  24
ENDBRANCH   9  22
TORSDOF 4
ENDMDL
