MODEL 1
REMARK VINA RESULT:      -8.5      0.000      0.000
REMARK  Name = 
REMARK  7 active torsions:
REMARK  status: ('A' for Active; 'I' for Inactive)
REMARK    1  A    between atoms: C_1  and  C_2
REMARK    2  A    between atoms: C_2  and  C_3
REMARK    3  A    between atoms: C_3  and  C_4
REMARK    4  A    between atoms: C_4  and  C_5
REMARK    5  A    between atoms: N_14  and  C_15
REMARK    6  A    between atoms: C_15  and  C_16
REMARK    7  A    between atoms: N_18  and  C_19
REMARK                            x       y       z     vdW  Elec       q    Type
REMARK                         _______ _______ _______ _____ _____    ______ ____
ROOT
ATOM      1  C   UNL     1       0.579   2.945  20.736  0.00  0.00    +0.000 C 
ATOM      2  C   UNL     1       1.921   3.580  20.405  0.00  0.00    +0.000 C 
ATOM      3  N   UNL     1       3.037   2.816  20.935  0.00  0.00    +0.000 N 
ATOM      4  C   UNL     1       3.942   2.493  19.960  0.00  0.00    +0.000 C 
ATOM      5  O   UNL     1       5.072   2.072  20.168  0.00  0.00    +0.000 OA
ATOM      6  N   UNL     1       3.402   2.782  18.752  0.00  0.00    +0.000 N 
ATOM      7  C   UNL     1       2.206   3.426  18.898  0.00  0.00    +0.000 C 
ATOM      8  O   UNL     1       1.506   3.866  18.002  0.00  0.00    +0.000 OA
ATOM      9  H   UNL     1       3.297   2.749  21.914  0.00  0.00    +0.000 HD
ENDROOT
BRANCH   2  10
ATOM     10  C   UNL     1       2.035   5.064  20.782  0.00  0.00    +0.000 C 
BRANCH  10  11
ATOM     11  C   UNL     1       2.955   5.864  19.853  0.00  0.00    +0.000 C 
BRANCH  11  12
ATOM     12  C   UNL     1       2.337   7.180  19.460  0.00  0.00    +0.000 A 
ATOM     13  C   UNL     1       1.614   7.928  20.398  0.00  0.00    +0.000 A 
ATOM     14  C   UNL     1       1.025   9.139  20.033  0.00  0.00    +0.000 A 
ATOM     15  C   UNL     1       1.151   9.609  18.727  0.00  0.00    +0.000 A 
ATOM     16  C   UNL     1       1.864   8.869  17.785  0.00  0.00    +0.000 A 
ATOM     17  C   UNL     1       2.453   7.657  18.149  0.00  0.00    +0.000 A 
ENDBRANCH  11  12
ENDBRANCH  10  11
ENDBRANCH   2  10
BRANCH   6  18
ATOM     18  C   UNL     1       4.045   2.575  17.469  0.00  0.00    +0.000 C 
BRANCH  18  19
ATOM     19  C   UNL     1       4.980   3.730  17.145  0.00  0.00    +0.000 C 
ATOM     20  O   UNL     1       5.437   3.866  16.010  0.00  0.00    +0.000 OA
ATOM     21  N   UNL     1       5.399   4.459  18.248  0.00  0.00    +0.000 N 
ATOM     22  H   UNL     1       5.422   3.961  19.134  0.00  0.00    +0.000 HD
BRANCH  21  23
ATOM     23  C   UNL     1       6.210   5.605  18.138  0.00  0.00    +0.000 A 
ATOM     24  C   UNL     1       5.871   6.664  17.290  0.00  0.00    +0.000 A 
ATOM     25  C   UNL     1       6.713   7.773  17.188  0.00  0.00    +0.000 A 
ATOM     26  C   UNL     1       7.904   7.813  17.910  0.00  0.00    +0.000 A 
ATOM     27  C   UNL     1       8.233   6.763  18.767  0.00  0.00    +0.000 A 
ATOM     28  C   UNL     1       7.372   5.673  18.905  0.00  0.00    +0.000 A 
ENDBRANCH  21  23
ENDBRANCH  18  19
ENDBRANCH   6  18
TORSDOF 6
ENDMDL
MODEL 2
REMARK VINA RESULT:      -8.4      0.167      1.348
REMARK  Name = 
REMARK  7 active torsions:
REMARK  status: ('A' for Active; 'I' for Inactive)
REMARK    1  A    between atoms: C_1  and  C_2
REMARK    2  A    between atoms: C_2  and  C_3
REMARK    3  A    between atoms: C_3  and  C_4
REMARK    4  A    between atoms: C_4  and  C_5
REMARK    5  A    between atoms: N_14  and  C_15
REMARK    6  A    between atoms: C_15  and  C_16
REMARK    7  A    between atoms: N_18  and  C_19
REMARK                            x       y       z     vdW  Elec       q    Type
REMARK                         _______ _______ _______ _____ _____    ______ ____
ROOT
ATOM      1  C   UNL     1       0.676   2.810  20.915  0.00  0.00    +0.000 C 
ATOM      2  C   UNL     1       1.990   3.474  20.534  0.00  0.00    +0.000 C 
ATOM      3  N   UNL     1       3.141   2.741  21.032  0.00  0.00    +0.000 N 
ATOM      4  C   UNL     1       4.021   2.432  20.030  0.00  0.00    +0.000 C 
ATOM      5  O   UNL     1       5.167   2.040  20.203  0.00  0.00    +0.000 OA
ATOM      6  N   UNL     1       3.434   2.696  18.839  0.00  0.00    +0.000 N 
ATOM      7  C   UNL     1       2.229   3.313  19.020  0.00  0.00    +0.000 C 
ATOM      8  O   UNL     1       1.489   3.728  18.144  0.00  0.00    +0.000 OA
ATOM      9  H   UNL     1       3.436   2.690  22.003  0.00  0.00    +0.000 HD
ENDROOT
BRANCH   2  10
ATOM     10  C   UNL     1       2.081   4.963  20.895  0.00  0.00    +0.000 C 
BRANCH  10  11
ATOM     11  C   UNL     1       2.992   5.766  19.960  0.00  0.00    +0.000 C 
BRANCH  11  12
ATOM     12  C   UNL     1       2.352   7.066  19.546  0.00  0.00    +0.000 A 
ATOM     13  C   UNL     1       2.422   7.495  18.215  0.00  0.00    +0.000 A 
ATOM     14  C   UNL     1       1.844   8.706  17.831  0.00  0.00    +0.000 A 
ATOM     15  C   UNL     1       1.198   9.499  18.777  0.00  0.00    +0.000 A 
ATOM     16  C   UNL     1       1.128   9.085  20.105  0.00  0.00    +0.000 A 
ATOM     17  C   UNL     1       1.705   7.873  20.491  0.00  0.00    +0.000 A 
ENDBRANCH  11  12
ENDBRANCH  10  11
ENDBRANCH   2  10
BRANCH   6  18
ATOM     18  C   UNL     1       4.039   2.493  17.537  0.00  0.00    +0.000 C 
BRANCH  18  19
ATOM     19  C   UNL     1       4.916   3.678  17.162  0.00  0.00    +0.000 C 
ATOM     20  O   UNL     1       5.177   3.915  15.983  0.00  0.00    +0.000 OA
ATOM     21  N   UNL     1       5.521   4.311  18.238  0.00  0.00    +0.000 N 
ATOM     22  H   UNL     1       5.687   3.737  19.061  0.00  0.00    +0.000 HD
BRANCH  21  23
ATOM     23  C   UNL     1       6.311   5.467  18.093  0.00  0.00    +0.000 A 
ATOM     24  C   UNL     1       7.495   5.642  18.814  0.00  0.00    +0.000 A 
ATOM     25  C   UNL     1       8.240   6.812  18.663  0.00  0.00    +0.000 A 
ATOM     26  C   UNL     1       7.789   7.819  17.812  0.00  0.00    +0.000 A 
ATOM     27  C   UNL     1       6.615   7.638  17.080  0.00  0.00    +0.000 A 
ATOM     28  C   UNL     1       5.892   6.450  17.196  0.00  0.00    +0.000 A 
ENDBRANCH  21  23
ENDBRANCH  18  19
ENDBRANCH   6  18
TORSDOF 6
ENDMDL
MODEL 3
REMARK VINA RESULT:      -8.3      0.433      1.040
REMARK  Name = 
REMARK  7 active torsions:
REMARK  status: ('A' for Active; 'I' for Inactive)
REMARK    1  A    between atoms: C_1  and  C_2
REMARK    2  A    between atoms: C_2  and  C_3
REMARK    3  A    between atoms: C_3  and  C_4
REMARK    4  A    between atoms: C_4  and  C_5
REMARK    5  A    between atoms: N_14  and  C_15
REMARK    6  A    between atoms: C_15  and  C_16
REMARK    7  A    between atoms: N_18  and  C_19
REMARK                            x       y       z     vdW  Elec       q    Type
REMARK                         _______ _______ _______ _____ _____    ______ ____
ROOT
ATOM      1  C   UNL     1       0.494   3.409  20.273  0.00  0.00    +0.000 C 
ATOM      2  C   UNL     1       1.900   3.946  20.053  0.00  0.00    +0.000 C 
ATOM      3  N   UNL     1       2.915   3.090  20.645  0.00  0.00    +0.000 N 
ATOM      4  C   UNL     1       3.862   2.717  19.730  0.00  0.00    +0.000 C 
ATOM      5  O   UNL     1       4.940   2.208  20.009  0.00  0.00    +0.000 OA
ATOM      6  N   UNL     1       3.435   3.066  18.494  0.00  0.00    +0.000 N 
ATOM      7  C   UNL     1       2.283   3.796  18.568  0.00  0.00    +0.000 C 
ATOM      8  O   UNL     1       1.685   4.304  17.634  0.00  0.00    +0.000 OA
ATOM      9  H   UNL     1       3.097   2.987  21.638  0.00  0.00    +0.000 HD
ENDROOT
BRANCH   2  10
ATOM     10  C   UNL     1       2.097   5.410  20.472  0.00  0.00    +0.000 C 
BRANCH  10  11
ATOM     11  C   UNL     1       2.872   6.242  19.445  0.00  0.00    +0.000 C 
BRANCH  11  12
ATOM     12  C   UNL     1       2.248   7.599  19.246  0.00  0.00    +0.000 A 
ATOM     13  C   UNL     1       1.462   8.169  20.256  0.00  0.00    +0.000 A 
ATOM     14  C   UNL     1       0.868   9.418  20.069  0.00  0.00    +0.000 A 
ATOM     15  C   UNL     1       1.051  10.103  18.870  0.00  0.00    +0.000 A 
ATOM     16  C   UNL     1       1.826   9.542  17.857  0.00  0.00    +0.000 A 
ATOM     17  C   UNL     1       2.421   8.293  18.042  0.00  0.00    +0.000 A 
ENDBRANCH  11  12
ENDBRANCH  10  11
ENDBRANCH   2  10
BRANCH   6  18
ATOM     18  C   UNL     1       4.154   2.833  17.256  0.00  0.00    +0.000 C 
BRANCH  18  19
ATOM     19  C   UNL     1       5.125   3.970  16.977  0.00  0.00    +0.000 C 
ATOM     20  O   UNL     1       5.629   4.102  15.862  0.00  0.00    +0.000 OA
ATOM     21  N   UNL     1       5.514   4.684  18.100  0.00  0.00    +0.000 N 
ATOM     22  H   UNL     1       5.490   4.181  18.983  0.00  0.00    +0.000 HD
BRANCH  21  23
ATOM     23  C   UNL     1       6.352   5.813  18.029  0.00  0.00    +0.000 A 
ATOM     24  C   UNL     1       7.575   5.863  18.704  0.00  0.00    +0.000 A 
ATOM     25  C   UNL     1       8.368   7.009  18.631  0.00  0.00    +0.000 A 
ATOM     26  C   UNL     1       7.928   8.115  17.906  0.00  0.00    +0.000 A 
ATOM     27  C   UNL     1       6.715   8.060  17.220  0.00  0.00    +0.000 A 
ATOM     28  C   UNL     1       5.941   6.898  17.255  0.00  0.00    +0.000 A 
ENDBRANCH  21  23
ENDBRANCH  18  19
ENDBRANCH   6  18
TORSDOF 6
ENDMDL
MODEL 4
REMARK VINA RESULT:      -8.1      2.904      5.452
REMARK  Name = 
REMARK  7 active torsions:
REMARK  status: ('A' for Active; 'I' for Inactive)
REMARK    1  A    between atoms: C_1  and  C_2
REMARK    2  A    between atoms: C_2  and  C_3
REMARK    3  A    between atoms: C_3  and  C_4
REMARK    4  A    between atoms: C_4  and  C_5
REMARK    5  A    between atoms: N_14  and  C_15
REMARK    6  A    between atoms: C_15  and  C_16
REMARK    7  A    between atoms: N_18  and  C_19
REMARK                            x       y       z     vdW  Elec       q    Type
REMARK                         _______ _______ _______ _____ _____    ______ ____
ROOT
ATOM      1  C   UNL     1       3.346   5.827  17.210  0.00  0.00    +0.000 C 
ATOM      2  C   UNL     1       4.657   5.055  17.209  0.00  0.00    +0.000 C 
ATOM      3  N   UNL     1       5.447   5.315  16.017  0.00  0.00    +0.000 N 
ATOM      4  C   UNL     1       6.711   5.736  16.326  0.00  0.00    +0.000 C 
ATOM      5  O   UNL     1       7.643   5.790  15.535  0.00  0.00    +0.000 OA
ATOM      6  N   UNL     1       6.767   6.012  17.651  0.00  0.00    +0.000 N 
ATOM      7  C   UNL     1       5.605   5.648  18.270  0.00  0.00    +0.000 C 
ATOM      8  O   UNL     1       5.368   5.714  19.464  0.00  0.00    +0.000 OA
ATOM      9  H   UNL     1       5.235   4.979  15.082  0.00  0.00    +0.000 HD
ENDROOT
BRANCH   2  10
ATOM     10  C   UNL     1       4.510   3.548  17.461  0.00  0.00    +0.000 C 
BRANCH  10  11
ATOM     11  C   UNL     1       3.054   3.080  17.549  0.00  0.00    +0.000 C 
BRANCH  11  12
ATOM     12  C   UNL     1       2.571   3.040  18.975  0.00  0.00    +0.000 A 
ATOM     13  C   UNL     1       3.426   2.613  19.999  0.00  0.00    +0.000 A 
ATOM     14  C   UNL     1       2.977   2.559  21.319  0.00  0.00    +0.000 A 
ATOM     15  C   UNL     1       1.668   2.929  21.625  0.00  0.00    +0.000 A 
ATOM     16  C   UNL     1       0.808   3.350  20.613  0.00  0.00    +0.000 A 
ATOM     17  C   UNL     1       1.256   3.404  19.292  0.00  0.00    +0.000 A 
ENDBRANCH  11  12
ENDBRANCH  10  11
ENDBRANCH   2  10
BRANCH   6  18
ATOM     18  C   UNL     1       7.934   6.494  18.365  0.00  0.00    +0.000 C 
BRANCH  18  19
ATOM     19  C   UNL     1       8.085   7.997  18.191  0.00  0.00    +0.000 C 
ATOM     20  O   UNL     1       7.623   8.562  17.201  0.00  0.00    +0.000 OA
ATOM     21  N   UNL     1       8.923   8.602  19.116  0.00  0.00    +0.000 N 
ATOM     22  H   UNL     1       9.651   8.015  19.514  0.00  0.00    +0.000 HD
BRANCH  21  23
ATOM     23  C   UNL     1       9.130   9.995  19.156  0.00  0.00    +0.000 A 
ATOM     24  C   UNL     1       9.592  10.635  20.310  0.00  0.00    +0.000 A 
ATOM     25  C   UNL     1       9.761  12.020  20.320  0.00  0.00    +0.000 A 
ATOM     26  C   UNL     1       9.444  12.769  19.189  0.00  0.00    +0.000 A 
ATOM     27  C   UNL     1       8.998  12.128  18.033  0.00  0.00    +0.000 A 
ATOM     28  C   UNL     1       8.870  10.738  18.005  0.00  0.00    +0.000 A 
ENDBRANCH  21  23
ENDBRANCH  18  19
ENDBRANCH   6  18
TORSDOF 6
ENDMDL
MODEL 5
REMARK VINA RESULT:      -8.0      2.842      3.965
REMARK  Name = 
REMARK  7 active torsions:
REMARK  status: ('A' for Active; 'I' for Inactive)
REMARK    1  A    between atoms: C_1  and  C_2
REMARK    2  A    between atoms: C_2  and  C_3
REMARK    3  A    between atoms: C_3  and  C_4
REMARK    4  A    between atoms: C_4  and  C_5
REMARK    5  A    between atoms: N_14  and  C_15
REMARK    6  A    between atoms: C_15  and  C_16
REMARK    7  A    between atoms: N_18  and  C_19
REMARK                            x       y       z     vdW  Elec       q    Type
REMARK                         _______ _______ _______ _____ _____    ______ ____
ROOT
ATOM      1  C   UNL     1       1.868   5.076  17.757  0.00  0.00    +0.000 C 
ATOM      2  C   UNL     1       2.910   5.606  18.729  0.00  0.00    +0.000 C 
ATOM      3  N   UNL     1       3.640   4.537  19.389  0.00  0.00    +0.000 N 
ATOM      4  C   UNL     1       4.993   4.673  19.235  0.00  0.00    +0.000 C 
ATOM      5  O   UNL     1       5.835   4.061  19.879  0.00  0.00    +0.000 OA
ATOM      6  N   UNL     1       5.231   5.634  18.311  0.00  0.00    +0.000 N 
ATOM      7  C   UNL     1       4.069   6.250  17.943  0.00  0.00    +0.000 C 
ATOM      8  O   UNL     1       3.959   7.191  17.175  0.00  0.00    +0.000 OA
ATOM      9  H   UNL     1       3.268   3.921  20.106  0.00  0.00    +0.000 HD
ENDROOT
BRANCH   2  10
ATOM     10  C   UNL     1       2.375   6.624  19.747  0.00  0.00    +0.000 C 
BRANCH  10  11
ATOM     11  C   UNL     1       2.029   7.983  19.130  0.00  0.00    +0.000 C 
BRANCH  11  12
ATOM     12  C   UNL     1       1.244   8.842  20.087  0.00  0.00    +0.000 A 
ATOM     13  C   UNL     1       0.785  10.104  19.690  0.00  0.00    +0.000 A 
ATOM     14  C   UNL     1       0.072  10.909  20.580  0.00  0.00    +0.000 A 
ATOM     15  C   UNL     1      -0.184  10.459  21.874  0.00  0.00    +0.000 A 
ATOM     16  C   UNL     1       0.273   9.207  22.280  0.00  0.00    +0.000 A 
ATOM     17  C   UNL     1       0.987   8.401  21.392  0.00  0.00    +0.000 A 
ENDBRANCH  11  12
ENDBRANCH  10  11
ENDBRANCH   2  10
BRANCH   6  18
ATOM     18  C   UNL     1       6.541   6.066  17.861  0.00  0.00    +0.000 C 
BRANCH  18  19
ATOM     19  C   UNL     1       6.973   5.279  16.634  0.00  0.00    +0.000 C 
ATOM     20  O   UNL     1       7.907   4.481  16.699  0.00  0.00    +0.000 OA
ATOM     21  N   UNL     1       6.367   5.678  15.451  0.00  0.00    +0.000 N 
ATOM     22  H   UNL     1       6.060   6.645  15.408  0.00  0.00    +0.000 HD
BRANCH  21  23
ATOM     23  C   UNL     1       6.590   5.021  14.226  0.00  0.00    +0.000 A 
ATOM     24  C   UNL     1       7.619   5.407  13.363  0.00  0.00    +0.000 A 
ATOM     25  C   UNL     1       7.794   4.749  12.144  0.00  0.00    +0.000 A 
ATOM     26  C   UNL     1       6.926   3.724  11.776  0.00  0.00    +0.000 A 
ATOM     27  C   UNL     1       5.908   3.328  12.644  0.00  0.00    +0.000 A 
ATOM     28  C   UNL     1       5.759   3.955  13.882  0.00  0.00    +0.000 A 
ENDBRANCH  21  23
ENDBRANCH  18  19
ENDBRANCH   6  18
TORSDOF 6
ENDMDL
MODEL 6
REMARK VINA RESULT:      -7.9      2.497      3.227
REMARK  Name = 
REMARK  7 active torsions:
REMARK  status: ('A' for Active; 'I' for Inactive)
REMARK    1  A    between atoms: C_1  and  C_2
REMARK    2  A    between atoms: C_2  and  C_3
REMARK    3  A    between atoms: C_3  and  C_4
REMARK    4  A    between atoms: C_4  and  C_5
REMARK    5  A    between atoms: N_14  and  C_15
REMARK    6  A    between atoms: C_15  and  C_16
REMARK    7  A    between atoms: N_18  and  C_19
REMARK                            x       y       z     vdW  Elec       q    Type
REMARK                         _______ _______ _______ _____ _____    ______ ____
ROOT
ATOM      1  C   UNL     1       1.854   3.447  17.251  0.00  0.00    +0.000 C 
ATOM      2  C   UNL     1       2.611   4.056  18.421  0.00  0.00    +0.000 C 
ATOM      3  N   UNL     1       3.328   3.055  19.193  0.00  0.00    +0.000 N 
ATOM      4  C   UNL     1       4.657   3.359  19.312  0.00  0.00    +0.000 C 
ATOM      5  O   UNL     1       5.427   2.826  20.100  0.00  0.00    +0.000 OA
ATOM      6  N   UNL     1       4.947   4.381  18.473  0.00  0.00    +0.000 N 
ATOM      7  C   UNL     1       3.810   4.868  17.893  0.00  0.00    +0.000 C 
ATOM      8  O   UNL     1       3.733   5.821  17.136  0.00  0.00    +0.000 OA
ATOM      9  H   UNL     1       2.904   2.368  19.809  0.00  0.00    +0.000 HD
ENDROOT
BRANCH   2  10
ATOM     10  C   UNL     1       1.764   4.956  19.331  0.00  0.00    +0.000 C 
BRANCH  10  11
ATOM     11  C   UNL     1       2.582   6.014  20.080  0.00  0.00    +0.000 C 
BRANCH  11  12
ATOM     12  C   UNL     1       1.953   7.379  19.973  0.00  0.00    +0.000 A 
ATOM     13  C   UNL     1       1.337   7.962  21.087  0.00  0.00    +0.000 A 
ATOM     14  C   UNL     1       0.739   9.219  20.987  0.00  0.00    +0.000 A 
ATOM     15  C   UNL     1       0.748   9.899  19.771  0.00  0.00    +0.000 A 
ATOM     16  C   UNL     1       1.352   9.324  18.655  0.00  0.00    +0.000 A 
ATOM     17  C   UNL     1       1.951   8.067  18.753  0.00  0.00    +0.000 A 
ENDBRANCH  11  12
ENDBRANCH  10  11
ENDBRANCH   2  10
BRANCH   6  18
ATOM     18  C   UNL     1       6.253   4.987  18.301  0.00  0.00    +0.000 C 
BRANCH  18  19
ATOM     19  C   UNL     1       6.841   4.618  16.948  0.00  0.00    +0.000 C 
ATOM     20  O   UNL     1       7.962   4.116  16.868  0.00  0.00    +0.000 OA
ATOM     21  N   UNL     1       6.106   5.064  15.859  0.00  0.00    +0.000 N 
ATOM     22  H   UNL     1       5.541   5.895  16.008  0.00  0.00    +0.000 HD
BRANCH  21  23
ATOM     23  C   UNL     1       6.457   4.758  14.530  0.00  0.00    +0.000 A 
ATOM     24  C   UNL     1       5.748   3.813  13.782  0.00  0.00    +0.000 A 
ATOM     25  C   UNL     1       6.140   3.518  12.476  0.00  0.00    +0.000 A 
ATOM     26  C   UNL     1       7.255   4.146  11.925  0.00  0.00    +0.000 A 
ATOM     27  C   UNL     1       7.953   5.101  12.666  0.00  0.00    +0.000 A 
ATOM     28  C   UNL     1       7.536   5.430  13.956  0.00  0.00    +0.000 A 
ENDBRANCH  21  23
ENDBRANCH  18  19
ENDBRANCH   6  18
TORSDOF 6
ENDMDL
MODEL 7
REMARK VINA RESULT:      -7.8      3.013      6.880
REMARK  Name = 
REMARK  7 active torsions:
REMARK  status: ('A' for Active; 'I' for Inactive)
REMARK    1  A    between atoms: C_1  and  C_2
REMARK    2  A    between atoms: C_2  and  C_3
REMARK    3  A    between atoms: C_3  and  C_4
REMARK    4  A    between atoms: C_4  and  C_5
REMARK    5  A    between atoms: N_14  and  C_15
REMARK    6  A    between atoms: C_15  and  C_16
REMARK    7  A    between atoms: N_18  and  C_19
REMARK                            x       y       z     vdW  Elec       q    Type
REMARK                         _______ _______ _______ _____ _____    ______ ____
ROOT
ATOM      1  C   UNL     1       7.587   7.341  17.691  0.00  0.00    +0.000 C 
ATOM      2  C   UNL     1       6.683   6.120  17.617  0.00  0.00    +0.000 C 
ATOM      3  N   UNL     1       6.312   5.629  18.933  0.00  0.00    +0.000 N 
ATOM      4  C   UNL     1       4.954   5.534  19.076  0.00  0.00    +0.000 C 
ATOM      5  O   UNL     1       4.388   4.931  19.978  0.00  0.00    +0.000 OA
ATOM      6  N   UNL     1       4.361   6.152  18.028  0.00  0.00    +0.000 N 
ATOM      7  C   UNL     1       5.291   6.539  17.105  0.00  0.00    +0.000 C 
ATOM      8  O   UNL     1       5.068   7.066  16.029  0.00  0.00    +0.000 OA
ATOM      9  H   UNL     1       6.928   5.147  19.581  0.00  0.00    +0.000 HD
ENDROOT
BRANCH   2  10
ATOM     10  C   UNL     1       7.217   4.985  16.731  0.00  0.00    +0.000 C 
BRANCH  10  11
ATOM     11  C   UNL     1       6.129   4.287  15.907  0.00  0.00    +0.000 C 
BRANCH  11  12
ATOM     12  C   UNL     1       6.471   4.271  14.440  0.00  0.00    +0.000 A 
ATOM     13  C   UNL     1       7.457   5.129  13.935  0.00  0.00    +0.000 A 
ATOM     14  C   UNL     1       7.765   5.128  12.574  0.00  0.00    +0.000 A 
ATOM     15  C   UNL     1       7.087   4.273  11.708  0.00  0.00    +0.000 A 
ATOM     16  C   UNL     1       6.100   3.420  12.199  0.00  0.00    +0.000 A 
ATOM     17  C   UNL     1       5.791   3.419  13.560  0.00  0.00    +0.000 A 
ENDBRANCH  11  12
ENDBRANCH  10  11
ENDBRANCH   2  10
BRANCH   6  18
ATOM     18  C   UNL     1       2.931   6.275  17.820  0.00  0.00    +0.000 C 
BRANCH  18  19
ATOM     19  C   UNL     1       2.394   7.520  18.508  0.00  0.00    +0.000 C 
ATOM     20  O   UNL     1       2.220   7.535  19.727  0.00  0.00    +0.000 OA
ATOM     21  N   UNL     1       1.958   8.514  17.644  0.00  0.00    +0.000 N 
ATOM     22  H   UNL     1       1.638   8.205  16.730  0.00  0.00    +0.000 HD
BRANCH  21  23
ATOM     23  C   UNL     1       1.495   9.764  18.097  0.00  0.00    +0.000 A 
ATOM     24  C   UNL     1       0.191   9.935  18.572  0.00  0.00    +0.000 A 
ATOM     25  C   UNL     1      -0.241  11.195  18.989  0.00  0.00    +0.000 A 
ATOM     26  C   UNL     1       0.618  12.288  18.908  0.00  0.00    +0.000 A 
ATOM     27  C   UNL     1       1.924  12.114  18.449  0.00  0.00    +0.000 A 
ATOM     28  C   UNL     1       2.373  10.847  18.073  0.00  0.00    +0.000 A 
ENDBRANCH  21  23
ENDBRANCH  18  19
ENDBRANCH   6  18
TORSDOF 6
ENDMDL
MODEL 8
REMARK VINA RESULT:      -7.8      3.956      7.756
REMARK  Name = 
REMARK  7 active torsions:
REMARK  status: ('A' for Active; 'I' for Inactive)
REMARK    1  A    between atoms: C_1  and  C_2
REMARK    2  A    between atoms: C_2  and  C_3
REMARK    3  A    between atoms: C_3  and  C_4
REMARK    4  A    between atoms: C_4  and  C_5
REMARK    5  A    between atoms: N_14  and  C_15
REMARK    6  A    between atoms: C_15  and  C_16
REMARK    7  A    between atoms: N_18  and  C_19
REMARK                            x       y       z     vdW  Elec       q    Type
REMARK                         _______ _______ _______ _____ _____    ______ ____
ROOT
ATOM      1  C   UNL     1       3.994   6.659  18.120  0.00  0.00    +0.000 C 
ATOM      2  C   UNL     1       2.558   6.897  18.562  0.00  0.00    +0.000 C 
ATOM      3  N   UNL     1       2.422   6.903  20.008  0.00  0.00    +0.000 N 
ATOM      4  C   UNL     1       1.822   8.048  20.458  0.00  0.00    +0.000 C 
ATOM      5  O   UNL     1       1.372   8.205  21.585  0.00  0.00    +0.000 OA
ATOM      6  N   UNL     1       1.752   8.934  19.436  0.00  0.00    +0.000 N 
ATOM      7  C   UNL     1       2.164   8.357  18.268  0.00  0.00    +0.000 C 
ATOM      8  O   UNL     1       2.163   8.876  17.164  0.00  0.00    +0.000 OA
ATOM      9  H   UNL     1       2.485   6.089  20.612  0.00  0.00    +0.000 HD
ENDROOT
BRANCH   2  10
ATOM     10  C   UNL     1       1.527   5.964  17.911  0.00  0.00    +0.000 C 
BRANCH  10  11
ATOM     11  C   UNL     1       2.023   4.523  17.745  0.00  0.00    +0.000 C 
BRANCH  11  12
ATOM     12  C   UNL     1       2.127   3.817  19.072  0.00  0.00    +0.000 A 
ATOM     13  C   UNL     1       3.338   3.237  19.471  0.00  0.00    +0.000 A 
ATOM     14  C   UNL     1       3.433   2.569  20.692  0.00  0.00    +0.000 A 
ATOM     15  C   UNL     1       2.317   2.471  21.520  0.00  0.00    +0.000 A 
ATOM     16  C   UNL     1       1.106   3.039  21.130  0.00  0.00    +0.000 A 
ATOM     17  C   UNL     1       1.009   3.708  19.909  0.00  0.00    +0.000 A 
ENDBRANCH  11  12
ENDBRANCH  10  11
ENDBRANCH   2  10
BRANCH   6  18
ATOM     18  C   UNL     1       1.192  10.269  19.513  0.00  0.00    +0.000 C 
BRANCH  18  19
ATOM     19  C   UNL     1      -0.290  10.249  19.169  0.00  0.00    +0.000 C 
ATOM     20  O   UNL     1      -1.100   9.715  19.925  0.00  0.00    +0.000 OA
ATOM     21  N   UNL     1      -0.591  10.697  17.891  0.00  0.00    +0.000 N 
ATOM     22  H   UNL     1       0.141  10.588  17.194  0.00  0.00    +0.000 HD
BRANCH  21  23
ATOM     23  C   UNL     1      -1.912  10.816  17.420  0.00  0.00    +0.000 A 
ATOM     24  C   UNL     1      -2.851  11.625  18.066  0.00  0.00    +0.000 A 
ATOM     25  C   UNL     1      -4.159  11.699  17.585  0.00  0.00    +0.000 A 
ATOM     26  C   UNL     1      -4.537  10.945  16.475  0.00  0.00    +0.000 A 
ATOM     27  C   UNL     1      -3.595  10.150  15.821  0.00  0.00    +0.000 A 
ATOM     28  C   UNL     1      -2.275  10.109  16.274  0.00  0.00    +0.000 A 
ENDBRANCH  21  23
ENDBRANCH  18  19
ENDBRANCH   6  18
TORSDOF 6
ENDMDL
MODEL 9
REMARK VINA RESULT:      -7.8      2.990      5.035
REMARK  Name = 
REMARK  7 active torsions:
REMARK  status: ('A' for Active; 'I' for Inactive)
REMARK    1  A    between atoms: C_1  and  C_2
REMARK    2  A    between atoms: C_2  and  C_3
REMARK    3  A    between atoms: C_3  and  C_4
REMARK    4  A    between atoms: C_4  and  C_5
REMARK    5  A    between atoms: N_14  and  C_15
REMARK    6  A    between atoms: C_15  and  C_16
REMARK    7  A    between atoms: N_18  and  C_19
REMARK                            x       y       z     vdW  Elec       q    Type
REMARK                         _______ _______ _______ _____ _____    ______ ____
ROOT
ATOM      1  C   UNL     1       4.145   4.111  17.004  0.00  0.00    +0.000 C 
ATOM      2  C   UNL     1       4.605   5.313  17.815  0.00  0.00    +0.000 C 
ATOM      3  N   UNL     1       5.398   4.927  18.969  0.00  0.00    +0.000 N 
ATOM      4  C   UNL     1       6.611   5.559  18.988  0.00  0.00    +0.000 C 
ATOM      5  O   UNL     1       7.361   5.604  19.954  0.00  0.00    +0.000 OA
ATOM      6  N   UNL     1       6.800   6.174  17.796  0.00  0.00    +0.000 N 
ATOM      7  C   UNL     1       5.676   6.089  17.025  0.00  0.00    +0.000 C 
ATOM      8  O   UNL     1       5.512   6.591  15.925  0.00  0.00    +0.000 OA
ATOM      9  H   UNL     1       5.042   4.482  19.810  0.00  0.00    +0.000 HD
ENDROOT
BRANCH   2  10
ATOM     10  C   UNL     1       3.481   6.282  18.211  0.00  0.00    +0.000 C 
BRANCH  10  11
ATOM     11  C   UNL     1       2.079   5.675  18.095  0.00  0.00    +0.000 C 
BRANCH  11  12
ATOM     12  C   UNL     1       1.824   4.658  19.176  0.00  0.00    +0.000 A 
ATOM     13  C   UNL     1       2.254   4.899  20.488  0.00  0.00    +0.000 A 
ATOM     14  C   UNL     1       2.034   3.953  21.489  0.00  0.00    +0.000 A 
ATOM     15  C   UNL     1       1.388   2.756  21.185  0.00  0.00    +0.000 A 
ATOM     16  C   UNL     1       0.962   2.504  19.883  0.00  0.00    +0.000 A 
ATOM     17  C   UNL     1       1.180   3.450  18.880  0.00  0.00    +0.000 A 
ENDBRANCH  11  12
ENDBRANCH  10  11
ENDBRANCH   2  10
BRANCH   6  18
ATOM     18  C   UNL     1       7.970   6.943  17.419  0.00  0.00    +0.000 C 
BRANCH  18  19
ATOM     19  C   UNL     1       7.831   8.389  17.872  0.00  0.00    +0.000 C 
ATOM     20  O   UNL     1       6.797   9.017  17.648  0.00  0.00    +0.000 OA
ATOM     21  N   UNL     1       8.999   8.955  18.361  0.00  0.00    +0.000 N 
ATOM     22  H   UNL     1       9.869   8.569  18.004  0.00  0.00    +0.000 HD
BRANCH  21  23
ATOM     23  C   UNL     1       9.046  10.259  18.890  0.00  0.00    +0.000 A 
ATOM     24  C   UNL     1       8.990  11.387  18.067  0.00  0.00    +0.000 A 
ATOM     25  C   UNL     1       9.065  12.664  18.625  0.00  0.00    +0.000 A 
ATOM     26  C   UNL     1       9.224  12.815  20.001  0.00  0.00    +0.000 A 
ATOM     27  C   UNL     1       9.264  11.689  20.824  0.00  0.00    +0.000 A 
ATOM     28  C   UNL     1       9.145  10.412  20.273  0.00  0.00    +0.000 A 
ENDBRANCH  21  23
ENDBRANCH  18  19
ENDBRANCH   6  18
TORSDOF 6
ENDMDL
