MODEL 1
REMARK VINA RESULT:      -6.9      0.000      0.000
REMARK  Name = 
REMARK  15 active torsions:
REMARK  status: ('A' for Active; 'I' for Inactive)
REMARK    1  A    between atoms: C_1  and  C_2
REMARK    2  A    between atoms: C_2  and  C_3
REMARK    3  A    between atoms: C_4  and  C_5
REMARK    4  A    between atoms: C_5  and  C_6
REMARK    5  A    between atoms: C_6  and  C_7
REMARK    6  A    between atoms: C_7  and  C_8
REMARK    7  A    between atoms: C_7  and  O_9
REMARK    8  A    between atoms: C_7  and  C_10
REMARK    9  A    between atoms: C_13  and  C_14
REMARK   10  A    between atoms: C_16  and  O_17
REMARK   11  A    between atoms: C_20  and  C_21
REMARK   12  A    between atoms: C_24  and  O_25
REMARK   13  A    between atoms: C_26  and  C_27
REMARK   14  A    between atoms: C_26  and  C_28
REMARK   15  A    between atoms: C_32  and  C_33
REMARK                            x       y       z     vdW  Elec       q    Type
REMARK                         _______ _______ _______ _____ _____    ______ ____
ROOT
ATOM      1  C   UNL     1       9.939  14.709  19.105  0.00  0.00    +0.000 C 
ATOM      2  C   UNL     1      10.119  15.639  20.348  0.00  0.00    +0.000 C 
ATOM      3  C   UNL     1       8.790  16.302  20.666  0.00  0.00    +0.000 C 
ATOM      4  C   UNL     1       7.749  15.339  20.108  0.00  0.00    +0.000 C 
ATOM      5  C   UNL     1       7.676  14.151  21.128  0.00  0.00    +0.000 C 
ATOM      6  C   UNL     1       8.429  14.914  18.763  0.00  0.00    +0.000 C 
ATOM      7  C   UNL     1       7.591  13.796  18.121  0.00  0.00    +0.000 C 
ATOM      8  C   UNL     1       6.172  14.321  17.825  0.00  0.00    +0.000 C 
ATOM      9  C   UNL     1       5.457  14.881  19.071  0.00  0.00    +0.000 C 
ATOM     10  C   UNL     1       3.919  15.212  18.877  0.00  0.00    +0.000 C 
ATOM     11  C   UNL     1       3.689  16.302  17.806  0.00  0.00    +0.000 C 
ATOM     12  C   UNL     1       3.188  13.932  18.372  0.00  0.00    +0.000 C 
ATOM     13  C   UNL     1       1.667  14.024  18.442  0.00  0.00    +0.000 C 
ATOM     14  C   UNL     1       1.187  14.340  19.851  0.00  0.00    +0.000 C 
ATOM     15  C   UNL     1       1.810  15.626  20.472  0.00  0.00    +0.000 C 
ATOM     16  C   UNL     1       1.200  16.919  19.898  0.00  0.00    +0.000 C 
ATOM     17  C   UNL     1       1.442  15.605  21.983  0.00  0.00    +0.000 C 
ATOM     18  C   UNL     1       3.369  15.561  20.313  0.00  0.00    +0.000 C 
ATOM     19  C   UNL     1       4.130  16.753  20.932  0.00  0.00    +0.000 C 
ATOM     20  C   UNL     1       5.613  16.416  21.114  0.00  0.00    +0.000 C 
ATOM     21  C   UNL     1       6.322  15.984  19.805  0.00  0.00    +0.000 C 
ATOM     22  C   UNL     1       6.486  17.278  18.950  0.00  0.00    +0.000 C 
ENDROOT
BRANCH   1  23
ATOM     23  C   UNL     1      10.996  15.034  17.970  0.00  0.00    +0.000 C 
ATOM     24  C   UNL     1      10.466  16.032  16.934  0.00  0.00    +0.000 C 
BRANCH  23  25
ATOM     25  O   UNL     1      12.168  15.617  18.554  0.00  0.00    +0.000 OA
ATOM     26  H   UNL     1      11.934  15.991  19.418  0.00  0.00    +0.000 HD
ENDBRANCH  23  25
BRANCH  23  27
ATOM     27  C   UNL     1      11.470  13.794  17.160  0.00  0.00    +0.000 C 
BRANCH  27  28
ATOM     28  C   UNL     1      11.682  12.529  17.966  0.00  0.00    +0.000 C 
BRANCH  28  32
ATOM     29  C   UNL     1       8.958   9.868  18.668  0.00  0.00    +0.000 C 
ATOM     30  C   UNL     1       9.927  10.990  18.875  0.00  0.00    +0.000 C 
ATOM     31  C   UNL     1      10.127  11.479  20.286  0.00  0.00    +0.000 C 
ATOM     32  C   UNL     1      10.592  11.512  17.825  0.00  0.00    +0.000 C 
ENDBRANCH  28  32
ENDBRANCH  27  28
ENDBRANCH  23  27
ENDBRANCH   1  23
BRANCH   7  33
ATOM     33  O   UNL     1       8.123  13.321  16.899  0.00  0.00    +0.000 OA
ATOM     34  H   UNL     1       8.990  13.741  16.762  0.00  0.00    +0.000 HD
ENDBRANCH   7  33
BRANCH  14  35
ATOM     35  O   UNL     1      -0.239  14.398  19.851  0.00  0.00    +0.000 OA
ATOM     36  H   UNL     1      -0.527  14.722  20.721  0.00  0.00    +0.000 HD
ENDBRANCH  14  35
TORSDOF 7
ENDMDL
MODEL 2
REMARK VINA RESULT:      -6.1      5.031     11.594
REMARK  Name = 
REMARK  15 active torsions:
REMARK  status: ('A' for Active; 'I' for Inactive)
REMARK    1  A    between atoms: C_1  and  C_2
REMARK    2  A    between atoms: C_2  and  C_3
REMARK    3  A    between atoms: C_4  and  C_5
REMARK    4  A    between atoms: C_5  and  C_6
REMARK    5  A    between atoms: C_6  and  C_7
REMARK    6  A    between atoms: C_7  and  C_8
REMARK    7  A    between atoms: C_7  and  O_9
REMARK    8  A    between atoms: C_7  and  C_10
REMARK    9  A    between atoms: C_13  and  C_14
REMARK   10  A    between atoms: C_16  and  O_17
REMARK   11  A    between atoms: C_20  and  C_21
REMARK   12  A    between atoms: C_24  and  O_25
REMARK   13  A    between atoms: C_26  and  C_27
REMARK   14  A    between atoms: C_26  and  C_28
REMARK   15  A    between atoms: C_32  and  C_33
REMARK                            x       y       z     vdW  Elec       q    Type
REMARK                         _______ _______ _______ _____ _____    ______ ____
ROOT
ATOM      1  C   UNL     1      -4.384  14.024  23.628  0.00  0.00    +0.000 C 
ATOM      2  C   UNL     1      -3.813  12.598  23.909  0.00  0.00    +0.000 C 
ATOM      3  C   UNL     1      -2.608  12.363  23.014  0.00  0.00    +0.000 C 
ATOM      4  C   UNL     1      -2.079  13.763  22.725  0.00  0.00    +0.000 C 
ATOM      5  C   UNL     1      -1.330  14.214  24.026  0.00  0.00    +0.000 C 
ATOM      6  C   UNL     1      -3.418  14.549  22.519  0.00  0.00    +0.000 C 
ATOM      7  C   UNL     1      -3.092  16.045  22.378  0.00  0.00    +0.000 C 
ATOM      8  C   UNL     1      -2.186  16.262  21.150  0.00  0.00    +0.000 C 
ATOM      9  C   UNL     1      -0.887  15.431  21.195  0.00  0.00    +0.000 C 
ATOM     10  C   UNL     1       0.184  15.790  20.086  0.00  0.00    +0.000 C 
ATOM     11  C   UNL     1      -0.352  15.546  18.657  0.00  0.00    +0.000 C 
ATOM     12  C   UNL     1       0.519  17.309  20.180  0.00  0.00    +0.000 C 
ATOM     13  C   UNL     1       1.754  17.719  19.384  0.00  0.00    +0.000 C 
ATOM     14  C   UNL     1       2.980  16.919  19.797  0.00  0.00    +0.000 C 
ATOM     15  C   UNL     1       2.802  15.374  19.713  0.00  0.00    +0.000 C 
ATOM     16  C   UNL     1       2.859  14.847  18.267  0.00  0.00    +0.000 C 
ATOM     17  C   UNL     1       4.022  14.752  20.451  0.00  0.00    +0.000 C 
ATOM     18  C   UNL     1       1.482  14.974  20.459  0.00  0.00    +0.000 C 
ATOM     19  C   UNL     1       1.199  13.458  20.502  0.00  0.00    +0.000 C 
ATOM     20  C   UNL     1       0.162  13.128  21.581  0.00  0.00    +0.000 C 
ATOM     21  C   UNL     1      -1.177  13.891  21.416  0.00  0.00    +0.000 C 
ATOM     22  C   UNL     1      -1.902  13.242  20.197  0.00  0.00    +0.000 C 
ENDROOT
BRANCH   1  23
ATOM     23  C   UNL     1      -5.931  13.981  23.288  0.00  0.00    +0.000 C 
ATOM     24  C   UNL     1      -6.645  12.781  23.921  0.00  0.00    +0.000 C 
BRANCH  23  25
ATOM     25  O   UNL     1      -6.569  15.163  23.791  0.00  0.00    +0.000 OA
ATOM     26  H   UNL     1      -7.352  15.349  23.249  0.00  0.00    +0.000 HD
ENDBRANCH  23  25
BRANCH  23  27
ATOM     27  C   UNL     1      -6.253  13.912  21.768  0.00  0.00    +0.000 C 
BRANCH  27  28
ATOM     28  C   UNL     1      -6.231  12.526  21.157  0.00  0.00    +0.000 C 
BRANCH  28  32
ATOM     29  C   UNL     1      -4.534  11.339  17.886  0.00  0.00    +0.000 C 
ATOM     30  C   UNL     1      -5.564  11.544  18.952  0.00  0.00    +0.000 C 
ATOM     31  C   UNL     1      -6.851  10.770  18.826  0.00  0.00    +0.000 C 
ATOM     32  C   UNL     1      -5.318  12.380  19.979  0.00  0.00    +0.000 C 
ENDBRANCH  28  32
ENDBRANCH  27  28
ENDBRANCH  23  27
ENDBRANCH   1  23
BRANCH   7  33
ATOM     33  O   UNL     1      -4.236  16.858  22.201  0.00  0.00    +0.000 OA
ATOM     34  H   UNL     1      -4.964  16.476  22.722  0.00  0.00    +0.000 HD
ENDBRANCH   7  33
BRANCH  14  35
ATOM     35  O   UNL     1       4.099  17.359  19.028  0.00  0.00    +0.000 OA
ATOM     36  H   UNL     1       4.520  16.576  18.635  0.00  0.00    +0.000 HD
ENDBRANCH  14  35
TORSDOF 7
ENDMDL
MODEL 3
REMARK VINA RESULT:      -5.9      6.987      9.687
REMARK  Name = 
REMARK  15 active torsions:
REMARK  status: ('A' for Active; 'I' for Inactive)
REMARK    1  A    between atoms: C_1  and  C_2
REMARK    2  A    between atoms: C_2  and  C_3
REMARK    3  A    between atoms: C_4  and  C_5
REMARK    4  A    between atoms: C_5  and  C_6
REMARK    5  A    between atoms: C_6  and  C_7
REMARK    6  A    between atoms: C_7  and  C_8
REMARK    7  A    between atoms: C_7  and  O_9
REMARK    8  A    between atoms: C_7  and  C_10
REMARK    9  A    between atoms: C_13  and  C_14
REMARK   10  A    between atoms: C_16  and  O_17
REMARK   11  A    between atoms: C_20  and  C_21
REMARK   12  A    between atoms: C_24  and  O_25
REMARK   13  A    between atoms: C_26  and  C_27
REMARK   14  A    between atoms: C_26  and  C_28
REMARK   15  A    between atoms: C_32  and  C_33
REMARK                            x       y       z     vdW  Elec       q    Type
REMARK                         _______ _______ _______ _____ _____    ______ ____
ROOT
ATOM      1  C   UNL     1       1.106  11.206  19.743  0.00  0.00    +0.000 C 
ATOM      2  C   UNL     1       1.305  12.225  18.576  0.00  0.00    +0.000 C 
ATOM      3  C   UNL     1       0.307  13.360  18.735  0.00  0.00    +0.000 C 
ATOM      4  C   UNL     1       0.007  13.387  20.229  0.00  0.00    +0.000 C 
ATOM      5  C   UNL     1       1.251  14.063  20.903  0.00  0.00    +0.000 C 
ATOM      6  C   UNL     1      -0.068  11.854  20.544  0.00  0.00    +0.000 C 
ATOM      7  C   UNL     1      -0.201  11.672  22.065  0.00  0.00    +0.000 C 
ATOM      8  C   UNL     1      -1.497  12.351  22.553  0.00  0.00    +0.000 C 
ATOM      9  C   UNL     1      -1.579  13.846  22.182  0.00  0.00    +0.000 C 
ATOM     10  C   UNL     1      -2.766  14.646  22.860  0.00  0.00    +0.000 C 
ATOM     11  C   UNL     1      -4.150  14.094  22.449  0.00  0.00    +0.000 C 
ATOM     12  C   UNL     1      -2.665  14.486  24.407  0.00  0.00    +0.000 C 
ATOM     13  C   UNL     1      -3.553  15.451  25.185  0.00  0.00    +0.000 C 
ATOM     14  C   UNL     1      -3.263  16.900  24.822  0.00  0.00    +0.000 C 
ATOM     15  C   UNL     1      -3.366  17.217  23.300  0.00  0.00    +0.000 C 
ATOM     16  C   UNL     1      -4.824  17.314  22.812  0.00  0.00    +0.000 C 
ATOM     17  C   UNL     1      -2.748  18.631  23.105  0.00  0.00    +0.000 C 
ATOM     18  C   UNL     1      -2.522  16.163  22.504  0.00  0.00    +0.000 C 
ATOM     19  C   UNL     1      -2.490  16.384  20.976  0.00  0.00    +0.000 C 
ATOM     20  C   UNL     1      -1.336  15.605  20.338  0.00  0.00    +0.000 C 
ATOM     21  C   UNL     1      -1.370  14.083  20.631  0.00  0.00    +0.000 C 
ATOM     22  C   UNL     1      -2.538  13.500  19.778  0.00  0.00    +0.000 C 
ENDROOT
BRANCH   1  23
ATOM     23  C   UNL     1       0.896   9.731  19.206  0.00  0.00    +0.000 C 
ATOM     24  C   UNL     1       1.689   9.447  17.925  0.00  0.00    +0.000 C 
BRANCH  23  25
ATOM     25  O   UNL     1       1.341   8.790  20.192  0.00  0.00    +0.000 OA
ATOM     26  H   UNL     1       1.546   7.950  19.752  0.00  0.00    +0.000 HD
ENDBRANCH  23  25
BRANCH  23  27
ATOM     27  C   UNL     1      -0.581   9.370  18.879  0.00  0.00    +0.000 C 
BRANCH  27  28
ATOM     28  C   UNL     1      -1.106   9.899  17.559  0.00  0.00    +0.000 C 
BRANCH  28  32
ATOM     29  C   UNL     1      -4.521  11.510  16.706  0.00  0.00    +0.000 C 
ATOM     30  C   UNL     1      -3.259  10.717  16.575  0.00  0.00    +0.000 C 
ATOM     31  C   UNL     1      -2.939  10.146  15.218  0.00  0.00    +0.000 C 
ATOM     32  C   UNL     1      -2.452  10.549  17.642  0.00  0.00    +0.000 C 
ENDBRANCH  28  32
ENDBRANCH  27  28
ENDBRANCH  23  27
ENDBRANCH   1  23
BRANCH   7  33
ATOM     33  O   UNL     1      -0.263  10.318  22.468  0.00  0.00    +0.000 OA
ATOM     34  H   UNL     1      -0.519   9.782  21.697  0.00  0.00    +0.000 HD
ENDBRANCH   7  33
BRANCH  14  35
ATOM     35  O   UNL     1      -4.112  17.748  25.592  0.00  0.00    +0.000 OA
ATOM     36  H   UNL     1      -5.033  17.555  25.348  0.00  0.00    +0.000 HD
ENDBRANCH  14  35
TORSDOF 7
ENDMDL
MODEL 4
REMARK VINA RESULT:      -5.8      3.876      5.784
REMARK  Name = 
REMARK  15 active torsions:
REMARK  status: ('A' for Active; 'I' for Inactive)
REMARK    1  A    between atoms: C_1  and  C_2
REMARK    2  A    between atoms: C_2  and  C_3
REMARK    3  A    between atoms: C_4  and  C_5
REMARK    4  A    between atoms: C_5  and  C_6
REMARK    5  A    between atoms: C_6  and  C_7
REMARK    6  A    between atoms: C_7  and  C_8
REMARK    7  A    between atoms: C_7  and  O_9
REMARK    8  A    between atoms: C_7  and  C_10
REMARK    9  A    between atoms: C_13  and  C_14
REMARK   10  A    between atoms: C_16  and  O_17
REMARK   11  A    between atoms: C_20  and  C_21
REMARK   12  A    between atoms: C_24  and  O_25
REMARK   13  A    between atoms: C_26  and  C_27
REMARK   14  A    between atoms: C_26  and  C_28
REMARK   15  A    between atoms: C_32  and  C_33
REMARK                            x       y       z     vdW  Elec       q    Type
REMARK                         _______ _______ _______ _____ _____    ______ ____
ROOT
ATOM      1  C   UNL     1       9.916  12.783  19.330  0.00  0.00    +0.000 C 
ATOM      2  C   UNL     1       9.803  14.212  18.710  0.00  0.00    +0.000 C 
ATOM      3  C   UNL     1       8.931  15.074  19.607  0.00  0.00    +0.000 C 
ATOM      4  C   UNL     1       9.076  14.442  20.987  0.00  0.00    +0.000 C 
ATOM      5  C   UNL     1      10.482  14.887  21.516  0.00  0.00    +0.000 C 
ATOM      6  C   UNL     1       9.045  12.919  20.620  0.00  0.00    +0.000 C 
ATOM      7  C   UNL     1       9.349  12.102  21.886  0.00  0.00    +0.000 C 
ATOM      8  C   UNL     1       8.273  12.386  22.953  0.00  0.00    +0.000 C 
ATOM      9  C   UNL     1       8.136  13.883  23.299  0.00  0.00    +0.000 C 
ATOM     10  C   UNL     1       7.222  14.207  24.551  0.00  0.00    +0.000 C 
ATOM     11  C   UNL     1       5.761  13.749  24.339  0.00  0.00    +0.000 C 
ATOM     12  C   UNL     1       7.759  13.421  25.785  0.00  0.00    +0.000 C 
ATOM     13  C   UNL     1       7.166  13.880  27.113  0.00  0.00    +0.000 C 
ATOM     14  C   UNL     1       7.387  15.367  27.344  0.00  0.00    +0.000 C 
ATOM     15  C   UNL     1       6.859  16.283  26.200  0.00  0.00    +0.000 C 
ATOM     16  C   UNL     1       5.327  16.437  26.220  0.00  0.00    +0.000 C 
ATOM     17  C   UNL     1       7.441  17.700  26.470  0.00  0.00    +0.000 C 
ATOM     18  C   UNL     1       7.403  15.748  24.830  0.00  0.00    +0.000 C 
ATOM     19  C   UNL     1       7.001  16.593  23.602  0.00  0.00    +0.000 C 
ATOM     20  C   UNL     1       7.895  16.268  22.402  0.00  0.00    +0.000 C 
ATOM     21  C   UNL     1       7.897  14.769  22.010  0.00  0.00    +0.000 C 
ATOM     22  C   UNL     1       6.514  14.490  21.345  0.00  0.00    +0.000 C 
ENDROOT
BRANCH   1  23
ATOM     23  C   UNL     1       9.511  11.658  18.291  0.00  0.00    +0.000 C 
ATOM     24  C   UNL     1       8.261  12.019  17.481  0.00  0.00    +0.000 C 
BRANCH  23  25
ATOM     25  O   UNL     1      10.577  11.460  17.353  0.00  0.00    +0.000 OA
ATOM     26  H   UNL     1      11.410  11.741  17.764  0.00  0.00    +0.000 HD
ENDBRANCH  23  25
BRANCH  23  27
ATOM     27  C   UNL     1       9.216  10.270  18.929  0.00  0.00    +0.000 C 
BRANCH  27  28
ATOM     28  C   UNL     1       8.340   9.346  18.107  0.00  0.00    +0.000 C 
BRANCH  28  32
ATOM     29  C   UNL     1       7.636   5.572  18.607  0.00  0.00    +0.000 C 
ATOM     30  C   UNL     1       7.560   6.966  18.069  0.00  0.00    +0.000 C 
ATOM     31  C   UNL     1       6.465   7.266  17.078  0.00  0.00    +0.000 C 
ATOM     32  C   UNL     1       8.440   7.900  18.482  0.00  0.00    +0.000 C 
ENDBRANCH  28  32
ENDBRANCH  27  28
ENDBRANCH  23  27
ENDBRANCH   1  23
BRANCH   7  33
ATOM     33  O   UNL     1       9.362  10.705  21.668  0.00  0.00    +0.000 OA
ATOM     34  H   UNL     1       9.052  10.536  20.761  0.00  0.00    +0.000 HD
ENDBRANCH   7  33
BRANCH  14  35
ATOM     35  O   UNL     1       6.824  15.728  28.604  0.00  0.00    +0.000 OA
ATOM     36  H   UNL     1       5.856  15.690  28.524  0.00  0.00    +0.000 HD
ENDBRANCH  14  35
TORSDOF 7
ENDMDL
MODEL 5
REMARK VINA RESULT:      -5.8      5.008     11.402
REMARK  Name = 
REMARK  15 active torsions:
REMARK  status: ('A' for Active; 'I' for Inactive)
REMARK    1  A    between atoms: C_1  and  C_2
REMARK    2  A    between atoms: C_2  and  C_3
REMARK    3  A    between atoms: C_4  and  C_5
REMARK    4  A    between atoms: C_5  and  C_6
REMARK    5  A    between atoms: C_6  and  C_7
REMARK    6  A    between atoms: C_7  and  C_8
REMARK    7  A    between atoms: C_7  and  O_9
REMARK    8  A    between atoms: C_7  and  C_10
REMARK    9  A    between atoms: C_13  and  C_14
REMARK   10  A    between atoms: C_16  and  O_17
REMARK   11  A    between atoms: C_20  and  C_21
REMARK   12  A    between atoms: C_24  and  O_25
REMARK   13  A    between atoms: C_26  and  C_27
REMARK   14  A    between atoms: C_26  and  C_28
REMARK   15  A    between atoms: C_32  and  C_33
REMARK                            x       y       z     vdW  Elec       q    Type
REMARK                         _______ _______ _______ _____ _____    ______ ____
ROOT
ATOM      1  C   UNL     1      -2.820  13.072  23.556  0.00  0.00    +0.000 C 
ATOM      2  C   UNL     1      -3.317  12.292  22.297  0.00  0.00    +0.000 C 
ATOM      3  C   UNL     1      -2.694  12.907  21.056  0.00  0.00    +0.000 C 
ATOM      4  C   UNL     1      -1.406  13.545  21.562  0.00  0.00    +0.000 C 
ATOM      5  C   UNL     1      -0.399  12.363  21.777  0.00  0.00    +0.000 C 
ATOM      6  C   UNL     1      -1.891  14.155  22.921  0.00  0.00    +0.000 C 
ATOM      7  C   UNL     1      -0.670  14.710  23.673  0.00  0.00    +0.000 C 
ATOM      8  C   UNL     1      -0.006  15.818  22.832  0.00  0.00    +0.000 C 
ATOM      9  C   UNL     1       0.400  15.351  21.419  0.00  0.00    +0.000 C 
ATOM     10  C   UNL     1       1.296  16.370  20.601  0.00  0.00    +0.000 C 
ATOM     11  C   UNL     1       0.568  17.708  20.344  0.00  0.00    +0.000 C 
ATOM     12  C   UNL     1       2.567  16.708  21.437  0.00  0.00    +0.000 C 
ATOM     13  C   UNL     1       3.653  17.427  20.644  0.00  0.00    +0.000 C 
ATOM     14  C   UNL     1       4.071  16.632  19.415  0.00  0.00    +0.000 C 
ATOM     15  C   UNL     1       2.899  16.255  18.461  0.00  0.00    +0.000 C 
ATOM     16  C   UNL     1       2.417  17.446  17.612  0.00  0.00    +0.000 C 
ATOM     17  C   UNL     1       3.469  15.210  17.460  0.00  0.00    +0.000 C 
ATOM     18  C   UNL     1       1.751  15.598  19.303  0.00  0.00    +0.000 C 
ATOM     19  C   UNL     1       0.536  15.124  18.477  0.00  0.00    +0.000 C 
ATOM     20  C   UNL     1      -0.318  14.138  19.282  0.00  0.00    +0.000 C 
ATOM     21  C   UNL     1      -0.813  14.703  20.638  0.00  0.00    +0.000 C 
ATOM     22  C   UNL     1      -1.925  15.743  20.298  0.00  0.00    +0.000 C 
ENDROOT
BRANCH   1  23
ATOM     23  C   UNL     1      -4.026  13.578  24.449  0.00  0.00    +0.000 C 
ATOM     24  C   UNL     1      -4.961  12.443  24.883  0.00  0.00    +0.000 C 
BRANCH  23  25
ATOM     25  O   UNL     1      -3.520  14.186  25.645  0.00  0.00    +0.000 OA
ATOM     26  H   UNL     1      -2.699  13.737  25.900  0.00  0.00    +0.000 HD
ENDBRANCH  23  25
BRANCH  23  27
ATOM     27  C   UNL     1      -4.936  14.636  23.761  0.00  0.00    +0.000 C 
BRANCH  27  28
ATOM     28  C   UNL     1      -6.351  14.184  23.460  0.00  0.00    +0.000 C 
BRANCH  28  32
ATOM     29  C   UNL     1      -7.315  12.301  20.218  0.00  0.00    +0.000 C 
ATOM     30  C   UNL     1      -7.246  12.688  21.662  0.00  0.00    +0.000 C 
ATOM     31  C   UNL     1      -7.914  11.773  22.655  0.00  0.00    +0.000 C 
ATOM     32  C   UNL     1      -6.592  13.808  22.031  0.00  0.00    +0.000 C 
ENDBRANCH  28  32
ENDBRANCH  27  28
ENDBRANCH  23  27
ENDBRANCH   1  23
BRANCH   7  33
ATOM     33  O   UNL     1      -0.990  15.276  24.929  0.00  0.00    +0.000 OA
ATOM     34  H   UNL     1      -1.514  16.081  24.776  0.00  0.00    +0.000 HD
ENDBRANCH   7  33
BRANCH  14  35
ATOM     35  O   UNL     1       5.095  17.349  18.728  0.00  0.00    +0.000 OA
ATOM     36  H   UNL     1       4.793  17.507  17.818  0.00  0.00    +0.000 HD
ENDBRANCH  14  35
TORSDOF 7
ENDMDL
MODEL 6
REMARK VINA RESULT:      -5.7      2.639      7.857
REMARK  Name = 
REMARK  15 active torsions:
REMARK  status: ('A' for Active; 'I' for Inactive)
REMARK    1  A    between atoms: C_1  and  C_2
REMARK    2  A    between atoms: C_2  and  C_3
REMARK    3  A    between atoms: C_4  and  C_5
REMARK    4  A    between atoms: C_5  and  C_6
REMARK    5  A    between atoms: C_6  and  C_7
REMARK    6  A    between atoms: C_7  and  C_8
REMARK    7  A    between atoms: C_7  and  O_9
REMARK    8  A    between atoms: C_7  and  C_10
REMARK    9  A    between atoms: C_13  and  C_14
REMARK   10  A    between atoms: C_16  and  O_17
REMARK   11  A    between atoms: C_20  and  C_21
REMARK   12  A    between atoms: C_24  and  O_25
REMARK   13  A    between atoms: C_26  and  C_27
REMARK   14  A    between atoms: C_26  and  C_28
REMARK   15  A    between atoms: C_32  and  C_33
REMARK                            x       y       z     vdW  Elec       q    Type
REMARK                         _______ _______ _______ _____ _____    ______ ____
ROOT
ATOM      1  C   UNL     1       3.986  16.495  21.621  0.00  0.00    +0.000 C 
ATOM      2  C   UNL     1       4.026  17.504  20.429  0.00  0.00    +0.000 C 
ATOM      3  C   UNL     1       5.411  17.480  19.807  0.00  0.00    +0.000 C 
ATOM      4  C   UNL     1       5.945  16.092  20.138  0.00  0.00    +0.000 C 
ATOM      5  C   UNL     1       5.221  15.109  19.155  0.00  0.00    +0.000 C 
ATOM      6  C   UNL     1       5.440  15.923  21.611  0.00  0.00    +0.000 C 
ATOM      7  C   UNL     1       5.744  14.489  22.073  0.00  0.00    +0.000 C 
ATOM      8  C   UNL     1       7.265  14.246  22.032  0.00  0.00    +0.000 C 
ATOM      9  C   UNL     1       7.887  14.506  20.645  0.00  0.00    +0.000 C 
ATOM     10  C   UNL     1       9.394  14.045  20.482  0.00  0.00    +0.000 C 
ATOM     11  C   UNL     1      10.339  14.794  21.449  0.00  0.00    +0.000 C 
ATOM     12  C   UNL     1       9.501  12.532  20.839  0.00  0.00    +0.000 C 
ATOM     13  C   UNL     1      10.824  11.894  20.428  0.00  0.00    +0.000 C 
ATOM     14  C   UNL     1      11.094  12.068  18.941  0.00  0.00    +0.000 C 
ATOM     15  C   UNL     1      11.058  13.545  18.446  0.00  0.00    +0.000 C 
ATOM     16  C   UNL     1      12.321  14.334  18.839  0.00  0.00    +0.000 C 
ATOM     17  C   UNL     1      11.048  13.486  16.892  0.00  0.00    +0.000 C 
ATOM     18  C   UNL     1       9.734  14.217  18.952  0.00  0.00    +0.000 C 
ATOM     19  C   UNL     1       9.536  15.677  18.492  0.00  0.00    +0.000 C 
ATOM     20  C   UNL     1       8.074  16.105  18.655  0.00  0.00    +0.000 C 
ATOM     21  C   UNL     1       7.533  15.949  20.099  0.00  0.00    +0.000 C 
ATOM     22  C   UNL     1       8.198  17.082  20.939  0.00  0.00    +0.000 C 
ENDROOT
BRANCH   1  23
ATOM     23  C   UNL     1       3.480  17.181  22.956  0.00  0.00    +0.000 C 
ATOM     24  C   UNL     1       2.018  17.635  22.873  0.00  0.00    +0.000 C 
BRANCH  23  25
ATOM     25  O   UNL     1       3.569  16.249  24.042  0.00  0.00    +0.000 OA
ATOM     26  H   UNL     1       4.489  15.948  24.120  0.00  0.00    +0.000 HD
ENDBRANCH  23  25
BRANCH  23  27
ATOM     27  C   UNL     1       4.291  18.439  23.379  0.00  0.00    +0.000 C 
BRANCH  27  28
ATOM     28  C   UNL     1       5.191  18.260  24.585  0.00  0.00    +0.000 C 
BRANCH  28  32
ATOM     29  C   UNL     1       8.695  16.614  24.629  0.00  0.00    +0.000 C 
ATOM     30  C   UNL     1       7.247  16.866  24.907  0.00  0.00    +0.000 C 
ATOM     31  C   UNL     1       6.580  15.993  25.939  0.00  0.00    +0.000 C 
ATOM     32  C   UNL     1       6.594  17.849  24.258  0.00  0.00    +0.000 C 
ENDBRANCH  28  32
ENDBRANCH  27  28
ENDBRANCH  23  27
ENDBRANCH   1  23
BRANCH   7  33
ATOM     33  O   UNL     1       5.314  14.219  23.394  0.00  0.00    +0.000 OA
ATOM     34  H   UNL     1       4.875  13.350  23.400  0.00  0.00    +0.000 HD
ENDBRANCH   7  33
BRANCH  14  35
ATOM     35  O   UNL     1      12.333  11.439  18.620  0.00  0.00    +0.000 OA
ATOM     36  H   UNL     1      12.244  10.488  18.800  0.00  0.00    +0.000 HD
ENDBRANCH  14  35
TORSDOF 7
ENDMDL
MODEL 7
REMARK VINA RESULT:      -5.7      6.514      8.625
REMARK  Name = 
REMARK  15 active torsions:
REMARK  status: ('A' for Active; 'I' for Inactive)
REMARK    1  A    between atoms: C_1  and  C_2
REMARK    2  A    between atoms: C_2  and  C_3
REMARK    3  A    between atoms: C_4  and  C_5
REMARK    4  A    between atoms: C_5  and  C_6
REMARK    5  A    between atoms: C_6  and  C_7
REMARK    6  A    between atoms: C_7  and  C_8
REMARK    7  A    between atoms: C_7  and  O_9
REMARK    8  A    between atoms: C_7  and  C_10
REMARK    9  A    between atoms: C_13  and  C_14
REMARK   10  A    between atoms: C_16  and  O_17
REMARK   11  A    between atoms: C_20  and  C_21
REMARK   12  A    between atoms: C_24  and  O_25
REMARK   13  A    between atoms: C_26  and  C_27
REMARK   14  A    between atoms: C_26  and  C_28
REMARK   15  A    between atoms: C_32  and  C_33
REMARK                            x       y       z     vdW  Elec       q    Type
REMARK                         _______ _______ _______ _____ _____    ______ ____
ROOT
ATOM      1  C   UNL     1       1.788  10.680  19.121  0.00  0.00    +0.000 C 
ATOM      2  C   UNL     1       2.177  11.905  18.234  0.00  0.00    +0.000 C 
ATOM      3  C   UNL     1       1.158  13.012  18.445  0.00  0.00    +0.000 C 
ATOM      4  C   UNL     1       0.605  12.750  19.841  0.00  0.00    +0.000 C 
ATOM      5  C   UNL     1       1.709  13.244  20.838  0.00  0.00    +0.000 C 
ATOM      6  C   UNL     1       0.489  11.188  19.825  0.00  0.00    +0.000 C 
ATOM      7  C   UNL     1       0.097  10.710  21.233  0.00  0.00    +0.000 C 
ATOM      8  C   UNL     1      -1.268  11.313  21.620  0.00  0.00    +0.000 C 
ATOM      9  C   UNL     1      -1.297  12.854  21.548  0.00  0.00    +0.000 C 
ATOM     10  C   UNL     1      -2.589  13.536  22.161  0.00  0.00    +0.000 C 
ATOM     11  C   UNL     1      -3.877  13.114  21.418  0.00  0.00    +0.000 C 
ATOM     12  C   UNL     1      -2.754  13.068  23.638  0.00  0.00    +0.000 C 
ATOM     13  C   UNL     1      -3.769  13.883  24.432  0.00  0.00    +0.000 C 
ATOM     14  C   UNL     1      -3.432  15.366  24.422  0.00  0.00    +0.000 C 
ATOM     15  C   UNL     1      -3.275  15.983  23.000  0.00  0.00    +0.000 C 
ATOM     16  C   UNL     1      -4.627  16.214  22.300  0.00  0.00    +0.000 C 
ATOM     17  C   UNL     1      -2.643  17.389  23.201  0.00  0.00    +0.000 C 
ATOM     18  C   UNL     1      -2.298  15.086  22.163  0.00  0.00    +0.000 C 
ATOM     19  C   UNL     1      -2.005  15.605  20.740  0.00  0.00    +0.000 C 
ATOM     20  C   UNL     1      -0.753  14.937  20.164  0.00  0.00    +0.000 C 
ATOM     21  C   UNL     1      -0.826  13.389  20.135  0.00  0.00    +0.000 C 
ATOM     22  C   UNL     1      -1.826  13.020  18.997  0.00  0.00    +0.000 C 
ENDROOT
BRANCH   1  23
ATOM     23  C   UNL     1       1.684   9.347  18.271  0.00  0.00    +0.000 C 
ATOM     24  C   UNL     1       0.265   9.079  17.758  0.00  0.00    +0.000 C 
BRANCH  23  25
ATOM     25  O   UNL     1       2.536   9.441  17.121  0.00  0.00    +0.000 OA
ATOM     26  H   UNL     1       2.063   9.918  16.421  0.00  0.00    +0.000 HD
ENDBRANCH  23  25
BRANCH  23  27
ATOM     27  C   UNL     1       2.108   8.062  19.037  0.00  0.00    +0.000 C 
BRANCH  27  28
ATOM     28  C   UNL     1       2.846   7.025  18.215  0.00  0.00    +0.000 C 
BRANCH  28  32
ATOM     29  C   UNL     1       2.137   3.252  17.712  0.00  0.00    +0.000 C 
ATOM     30  C   UNL     1       2.855   4.564  17.745  0.00  0.00    +0.000 C 
ATOM     31  C   UNL     1       4.239   4.610  17.152  0.00  0.00    +0.000 C 
ATOM     32  C   UNL     1       2.257   5.649  18.277  0.00  0.00    +0.000 C 
ENDBRANCH  28  32
ENDBRANCH  27  28
ENDBRANCH  23  27
ENDBRANCH   1  23
BRANCH   7  33
ATOM     33  O   UNL     1      -0.023   9.305  21.339  0.00  0.00    +0.000 OA
ATOM     34  H   UNL     1      -0.694   9.107  22.015  0.00  0.00    +0.000 HD
ENDBRANCH   7  33
BRANCH  14  35
ATOM     35  O   UNL     1      -4.408  16.067  25.191  0.00  0.00    +0.000 OA
ATOM     36  H   UNL     1      -4.331  15.773  26.114  0.00  0.00    +0.000 HD
ENDBRANCH  14  35
TORSDOF 7
ENDMDL
MODEL 8
REMARK VINA RESULT:      -5.6      4.247      7.973
REMARK  Name = 
REMARK  15 active torsions:
REMARK  status: ('A' for Active; 'I' for Inactive)
REMARK    1  A    between atoms: C_1  and  C_2
REMARK    2  A    between atoms: C_2  and  C_3
REMARK    3  A    between atoms: C_4  and  C_5
REMARK    4  A    between atoms: C_5  and  C_6
REMARK    5  A    between atoms: C_6  and  C_7
REMARK    6  A    between atoms: C_7  and  C_8
REMARK    7  A    between atoms: C_7  and  O_9
REMARK    8  A    between atoms: C_7  and  C_10
REMARK    9  A    between atoms: C_13  and  C_14
REMARK   10  A    between atoms: C_16  and  O_17
REMARK   11  A    between atoms: C_20  and  C_21
REMARK   12  A    between atoms: C_24  and  O_25
REMARK   13  A    between atoms: C_26  and  C_27
REMARK   14  A    between atoms: C_26  and  C_28
REMARK   15  A    between atoms: C_32  and  C_33
REMARK                            x       y       z     vdW  Elec       q    Type
REMARK                         _______ _______ _______ _____ _____    ______ ____
ROOT
ATOM      1  C   UNL     1       6.272  12.942  24.923  0.00  0.00    +0.000 C 
ATOM      2  C   UNL     1       5.600  14.339  25.115  0.00  0.00    +0.000 C 
ATOM      3  C   UNL     1       6.336  15.362  24.266  0.00  0.00    +0.000 C 
ATOM      4  C   UNL     1       6.947  14.541  23.137  0.00  0.00    +0.000 C 
ATOM      5  C   UNL     1       5.768  14.217  22.157  0.00  0.00    +0.000 C 
ATOM      6  C   UNL     1       7.424  13.271  23.920  0.00  0.00    +0.000 C 
ATOM      7  C   UNL     1       7.929  12.231  22.906  0.00  0.00    +0.000 C 
ATOM      8  C   UNL     1       9.120  12.815  22.120  0.00  0.00    +0.000 C 
ATOM      9  C   UNL     1       8.788  14.142  21.408  0.00  0.00    +0.000 C 
ATOM     10  C   UNL     1       9.892  14.661  20.397  0.00  0.00    +0.000 C 
ATOM     11  C   UNL     1      11.236  14.953  21.102  0.00  0.00    +0.000 C 
ATOM     12  C   UNL     1      10.176  13.547  19.344  0.00  0.00    +0.000 C 
ATOM     13  C   UNL     1      10.981  14.028  18.141  0.00  0.00    +0.000 C 
ATOM     14  C   UNL     1      10.308  15.201  17.445  0.00  0.00    +0.000 C 
ATOM     15  C   UNL     1       9.998  16.412  18.375  0.00  0.00    +0.000 C 
ATOM     16  C   UNL     1      11.253  17.240  18.710  0.00  0.00    +0.000 C 
ATOM     17  C   UNL     1       9.058  17.353  17.570  0.00  0.00    +0.000 C 
ATOM     18  C   UNL     1       9.248  15.893  19.651  0.00  0.00    +0.000 C 
ATOM     19  C   UNL     1       8.830  16.996  20.646  0.00  0.00    +0.000 C 
ATOM     20  C   UNL     1       7.762  16.478  21.615  0.00  0.00    +0.000 C 
ATOM     21  C   UNL     1       8.193  15.217  22.406  0.00  0.00    +0.000 C 
ATOM     22  C   UNL     1       9.240  15.696  23.456  0.00  0.00    +0.000 C 
ENDROOT
BRANCH   1  23
ATOM     23  C   UNL     1       6.675  12.288  26.308  0.00  0.00    +0.000 C 
ATOM     24  C   UNL     1       6.020  10.920  26.531  0.00  0.00    +0.000 C 
BRANCH  23  25
ATOM     25  O   UNL     1       8.094  12.086  26.352  0.00  0.00    +0.000 OA
ATOM     26  H   UNL     1       8.376  12.056  27.280  0.00  0.00    +0.000 HD
ENDBRANCH  23  25
BRANCH  23  27
ATOM     27  C   UNL     1       6.306  13.142  27.554  0.00  0.00    +0.000 C 
BRANCH  27  28
ATOM     28  C   UNL     1       7.461  13.866  28.215  0.00  0.00    +0.000 C 
BRANCH  28  32
ATOM     29  C   UNL     1       8.903  17.251  27.010  0.00  0.00    +0.000 C 
ATOM     30  C   UNL     1       8.764  15.783  27.267  0.00  0.00    +0.000 C 
ATOM     31  C   UNL     1       9.944  14.909  26.930  0.00  0.00    +0.000 C 
ATOM     32  C   UNL     1       7.624  15.293  27.792  0.00  0.00    +0.000 C 
ENDBRANCH  28  32
ENDBRANCH  27  28
ENDBRANCH  23  27
ENDBRANCH   1  23
BRANCH   7  33
ATOM     33  O   UNL     1       8.374  11.029  23.505  0.00  0.00    +0.000 OA
ATOM     34  H   UNL     1       8.922  10.551  22.858  0.00  0.00    +0.000 HD
ENDBRANCH   7  33
BRANCH  14  35
ATOM     35  O   UNL     1      11.101  15.591  16.326  0.00  0.00    +0.000 OA
ATOM     36  H   UNL     1      11.901  15.040  16.316  0.00  0.00    +0.000 HD
ENDBRANCH  14  35
TORSDOF 7
ENDMDL
MODEL 9
REMARK VINA RESULT:      -5.6      7.406      9.390
REMARK  Name = 
REMARK  15 active torsions:
REMARK  status: ('A' for Active; 'I' for Inactive)
REMARK    1  A    between atoms: C_1  and  C_2
REMARK    2  A    between atoms: C_2  and  C_3
REMARK    3  A    between atoms: C_4  and  C_5
REMARK    4  A    between atoms: C_5  and  C_6
REMARK    5  A    between atoms: C_6  and  C_7
REMARK    6  A    between atoms: C_7  and  C_8
REMARK    7  A    between atoms: C_7  and  O_9
REMARK    8  A    between atoms: C_7  and  C_10
REMARK    9  A    between atoms: C_13  and  C_14
REMARK   10  A    between atoms: C_16  and  O_17
REMARK   11  A    between atoms: C_20  and  C_21
REMARK   12  A    between atoms: C_24  and  O_25
REMARK   13  A    between atoms: C_26  and  C_27
REMARK   14  A    between atoms: C_26  and  C_28
REMARK   15  A    between atoms: C_32  and  C_33
REMARK                            x       y       z     vdW  Elec       q    Type
REMARK                         _______ _______ _______ _____ _____    ______ ____
ROOT
ATOM      1  C   UNL     1       0.868  10.841  20.756  0.00  0.00    +0.000 C 
ATOM      2  C   UNL     1       1.199  11.651  19.462  0.00  0.00    +0.000 C 
ATOM      3  C   UNL     1       0.183  12.770  19.306  0.00  0.00    +0.000 C 
ATOM      4  C   UNL     1      -0.292  13.044  20.728  0.00  0.00    +0.000 C 
ATOM      5  C   UNL     1       0.859  13.856  21.414  0.00  0.00    +0.000 C 
ATOM      6  C   UNL     1      -0.396  11.586  21.292  0.00  0.00    +0.000 C 
ATOM      7  C   UNL     1      -0.709  11.663  22.795  0.00  0.00    +0.000 C 
ATOM      8  C   UNL     1      -2.056  12.382  23.005  0.00  0.00    +0.000 C 
ATOM      9  C   UNL     1      -2.101  13.790  22.375  0.00  0.00    +0.000 C 
ATOM     10  C   UNL     1      -3.365  14.664  22.762  0.00  0.00    +0.000 C 
ATOM     11  C   UNL     1      -4.687  14.014  22.294  0.00  0.00    +0.000 C 
ATOM     12  C   UNL     1      -3.447  14.772  24.314  0.00  0.00    +0.000 C 
ATOM     13  C   UNL     1      -4.425  15.834  24.806  0.00  0.00    +0.000 C 
ATOM     14  C   UNL     1      -4.102  17.206  24.235  0.00  0.00    +0.000 C 
ATOM     15  C   UNL     1      -4.025  17.256  22.680  0.00  0.00    +0.000 C 
ATOM     16  C   UNL     1      -5.415  17.231  22.016  0.00  0.00    +0.000 C 
ATOM     17  C   UNL     1      -3.395  18.631  22.317  0.00  0.00    +0.000 C 
ATOM     18  C   UNL     1      -3.087  16.103  22.180  0.00  0.00    +0.000 C 
ATOM     19  C   UNL     1      -2.875  16.061  20.652  0.00  0.00    +0.000 C 
ATOM     20  C   UNL     1      -1.649  15.213  20.296  0.00  0.00    +0.000 C 
ATOM     21  C   UNL     1      -1.711  13.764  20.841  0.00  0.00    +0.000 C 
ATOM     22  C   UNL     1      -2.767  13.015  19.972  0.00  0.00    +0.000 C 
ENDROOT
BRANCH   1  23
ATOM     23  C   UNL     1       0.730   9.291  20.461  0.00  0.00    +0.000 C 
ATOM     24  C   UNL     1       1.466   8.423  21.488  0.00  0.00    +0.000 C 
BRANCH  23  25
ATOM     25  O   UNL     1      -0.652   8.912  20.504  0.00  0.00    +0.000 OA
ATOM     26  H   UNL     1      -1.186   9.700  20.692  0.00  0.00    +0.000 HD
ENDBRANCH  23  25
BRANCH  23  27
ATOM     27  C   UNL     1       1.271   8.851  19.070  0.00  0.00    +0.000 C 
BRANCH  27  28
ATOM     28  C   UNL     1       2.416   7.859  19.098  0.00  0.00    +0.000 C 
BRANCH  28  32
ATOM     29  C   UNL     1       2.094   4.267  17.689  0.00  0.00    +0.000 C 
ATOM     30  C   UNL     1       2.118   5.412  18.652  0.00  0.00    +0.000 C 
ATOM     31  C   UNL     1       2.025   5.083  20.119  0.00  0.00    +0.000 C 
ATOM     32  C   UNL     1       2.235   6.676  18.198  0.00  0.00    +0.000 C 
ENDBRANCH  28  32
ENDBRANCH  27  28
ENDBRANCH  23  27
ENDBRANCH   1  23
BRANCH   7  33
ATOM     33  O   UNL     1      -0.811  10.396  23.416  0.00  0.00    +0.000 OA
ATOM     34  H   UNL     1      -0.003  10.246  23.937  0.00  0.00    +0.000 HD
ENDBRANCH   7  33
BRANCH  14  35
ATOM     35  O   UNL     1      -5.041  18.151  24.743  0.00  0.00    +0.000 OA
ATOM     36  H   UNL     1      -5.799  17.660  25.102  0.00  0.00    +0.000 HD
ENDBRANCH  14  35
TORSDOF 7
ENDMDL
