MODEL 1
REMARK VINA RESULT:      -6.8      0.000      0.000
REMARK  Name = 
REMARK  5 active torsions:
REMARK  status: ('A' for Active; 'I' for Inactive)
REMARK    1  A    between atoms: C_1  and  O_2
REMARK    2  A    between atoms: O_2  and  C_3
REMARK    3  A    between atoms: C_5  and  O_6
REMARK    4  A    between atoms: C_11  and  C_13
REMARK    5  A    between atoms: C_18  and  O_19
REMARK                            x       y       z     vdW  Elec       q    Type
REMARK                         _______ _______ _______ _____ _____    ______ ____
ROOT
ATOM      1  C   UNL     1       2.980   2.404  19.740  0.00  0.00    +0.000 C 
ATOM      2  C   UNL     1       1.555   2.303  19.158  0.00  0.00    +0.000 C 
ATOM      3  C   UNL     1       1.774   3.651  18.443  0.00  0.00    +0.000 C 
ATOM      4  C   UNL     1       3.317   3.468  18.636  0.00  0.00    +0.000 C 
ATOM      5  C   UNL     1       4.095   4.690  19.164  0.00  0.00    +0.000 C 
ATOM      6  C   UNL     1       4.222   5.718  18.042  0.00  0.00    +0.000 C 
ATOM      7  N   UNL     1       4.959   5.111  16.936  0.00  0.00    +0.000 N 
ATOM      8  C   UNL     1       6.291   5.381  16.572  0.00  0.00    +0.000 C 
ATOM      9  O   UNL     1       6.826   4.773  15.641  0.00  0.00    +0.000 OA
ATOM     10  C   UNL     1       4.273   3.965  16.340  0.00  0.00    +0.000 C 
ATOM     11  C   UNL     1       4.028   2.877  17.393  0.00  0.00    +0.000 C 
ENDROOT
BRANCH   8  12
ATOM     12  C   UNL     1       7.112   6.402  17.330  0.00  0.00    +0.000 A 
ATOM     13  N   UNL     1       7.088   7.680  16.847  0.00  0.00    +0.000 NA
ATOM     14  C   UNL     1       7.792   8.616  17.515  0.00  0.00    +0.000 A 
ATOM     15  C   UNL     1       8.486   8.367  18.684  0.00  0.00    +0.000 A 
ATOM     16  C   UNL     1       8.472   7.074  19.197  0.00  0.00    +0.000 A 
ATOM     17  C   UNL     1       7.787   6.069  18.511  0.00  0.00    +0.000 A 
BRANCH  17  18
ATOM     18  O   UNL     1       7.830   4.794  18.997  0.00  0.00    +0.000 OA
ATOM     19  H   UNL     1       7.758   4.158  18.268  0.00  0.00    +0.000 HD
ENDBRANCH  17  18
ENDBRANCH   8  12
BRANCH   1  21
ATOM     20  C   UNL     1       1.886   2.763  21.894  0.00  0.00    +0.000 C 
ATOM     21  O   UNL     1       3.064   2.878  21.107  0.00  0.00    +0.000 OA
ENDBRANCH   1  21
BRANCH   3  22
ATOM     22  O   UNL     1       1.160   4.792  19.074  0.00  0.00    +0.000 OA
ATOM     23  H   UNL     1       0.244   4.808  18.741  0.00  0.00    +0.000 HD
ENDBRANCH   3  22
TORSDOF 4
ENDMDL
MODEL 2
REMARK VINA RESULT:      -6.7      2.444      4.221
REMARK  Name = 
REMARK  5 active torsions:
REMARK  status: ('A' for Active; 'I' for Inactive)
REMARK    1  A    between atoms: C_1  and  O_2
REMARK    2  A    between atoms: O_2  and  C_3
REMARK    3  A    between atoms: C_5  and  O_6
REMARK    4  A    between atoms: C_11  and  C_13
REMARK    5  A    between atoms: C_18  and  O_19
REMARK                            x       y       z     vdW  Elec       q    Type
REMARK                         _______ _______ _______ _____ _____    ______ ____
ROOT
ATOM      1  C   UNL     1       2.438   4.355  18.828  0.00  0.00    +0.000 C 
ATOM      2  C   UNL     1       2.797   3.811  20.226  0.00  0.00    +0.000 C 
ATOM      3  C   UNL     1       4.097   3.223  19.639  0.00  0.00    +0.000 C 
ATOM      4  C   UNL     1       3.942   4.185  18.414  0.00  0.00    +0.000 C 
ATOM      5  C   UNL     1       4.138   3.559  17.018  0.00  0.00    +0.000 C 
ATOM      6  C   UNL     1       5.626   3.299  16.797  0.00  0.00    +0.000 C 
ATOM      7  N   UNL     1       6.337   4.573  16.864  0.00  0.00    +0.000 N 
ATOM      8  C   UNL     1       6.876   5.288  15.777  0.00  0.00    +0.000 C 
ATOM      9  O   UNL     1       7.420   6.382  15.950  0.00  0.00    +0.000 OA
ATOM     10  C   UNL     1       6.244   5.223  18.172  0.00  0.00    +0.000 C 
ATOM     11  C   UNL     1       4.778   5.484  18.540  0.00  0.00    +0.000 C 
ENDROOT
BRANCH   8  12
ATOM     12  C   UNL     1       6.775   4.749  14.367  0.00  0.00    +0.000 A 
ATOM     13  N   UNL     1       5.713   3.932  14.104  0.00  0.00    +0.000 NA
ATOM     14  C   UNL     1       5.585   3.454  12.850  0.00  0.00    +0.000 A 
ATOM     15  C   UNL     1       6.431   3.788  11.809  0.00  0.00    +0.000 A 
ATOM     16  C   UNL     1       7.486   4.656  12.071  0.00  0.00    +0.000 A 
ATOM     17  C   UNL     1       7.675   5.140  13.367  0.00  0.00    +0.000 A 
BRANCH  17  18
ATOM     18  O   UNL     1       8.747   5.946  13.619  0.00  0.00    +0.000 OA
ATOM     19  H   UNL     1       9.118   5.742  14.492  0.00  0.00    +0.000 HD
ENDBRANCH  17  18
ENDBRANCH   8  12
BRANCH   1  21
ATOM     20  C   UNL     1       0.750   2.591  18.802  0.00  0.00    +0.000 C 
ATOM     21  O   UNL     1       1.491   3.560  18.073  0.00  0.00    +0.000 OA
ENDBRANCH   1  21
BRANCH   3  22
ATOM     22  O   UNL     1       4.070   1.806  19.375  0.00  0.00    +0.000 OA
ATOM     23  H   UNL     1       4.031   1.382  20.251  0.00  0.00    +0.000 HD
ENDBRANCH   3  22
TORSDOF 4
ENDMDL
MODEL 3
REMARK VINA RESULT:      -6.7      2.471      4.166
REMARK  Name = 
REMARK  5 active torsions:
REMARK  status: ('A' for Active; 'I' for Inactive)
REMARK    1  A    between atoms: C_1  and  O_2
REMARK    2  A    between atoms: O_2  and  C_3
REMARK    3  A    between atoms: C_5  and  O_6
REMARK    4  A    between atoms: C_11  and  C_13
REMARK    5  A    between atoms: C_18  and  O_19
REMARK                            x       y       z     vdW  Elec       q    Type
REMARK                         _______ _______ _______ _____ _____    ______ ____
ROOT
ATOM      1  C   UNL     1       1.454   4.071  18.631  0.00  0.00    +0.000 C 
ATOM      2  C   UNL     1       1.806   4.162  20.129  0.00  0.00    +0.000 C 
ATOM      3  C   UNL     1       3.298   4.026  19.765  0.00  0.00    +0.000 C 
ATOM      4  C   UNL     1       2.945   4.430  18.295  0.00  0.00    +0.000 C 
ATOM      5  C   UNL     1       3.559   3.565  17.176  0.00  0.00    +0.000 C 
ATOM      6  C   UNL     1       5.044   3.897  17.053  0.00  0.00    +0.000 C 
ATOM      7  N   UNL     1       5.178   5.309  16.705  0.00  0.00    +0.000 N 
ATOM      8  C   UNL     1       5.533   5.830  15.446  0.00  0.00    +0.000 C 
ATOM      9  O   UNL     1       5.572   7.049  15.257  0.00  0.00    +0.000 OA
ATOM     10  C   UNL     1       4.660   6.213  17.733  0.00  0.00    +0.000 C 
ATOM     11  C   UNL     1       3.175   5.933  17.996  0.00  0.00    +0.000 C 
ENDROOT
BRANCH   8  12
ATOM     12  C   UNL     1       5.845   4.912  14.286  0.00  0.00    +0.000 A 
ATOM     13  N   UNL     1       4.812   4.150  13.819  0.00  0.00    +0.000 NA
ATOM     14  C   UNL     1       5.055   3.338  12.771  0.00  0.00    +0.000 A 
ATOM     15  C   UNL     1       6.268   3.275  12.111  0.00  0.00    +0.000 A 
ATOM     16  C   UNL     1       7.306   4.084  12.562  0.00  0.00    +0.000 A 
ATOM     17  C   UNL     1       7.104   4.909  13.671  0.00  0.00    +0.000 A 
BRANCH  17  18
ATOM     18  O   UNL     1       8.149   5.656  14.134  0.00  0.00    +0.000 OA
ATOM     19  H   UNL     1       8.503   5.262  14.947  0.00  0.00    +0.000 HD
ENDBRANCH  17  18
ENDBRANCH   8  12
BRANCH   1  21
ATOM     20  C   UNL     1       0.578   1.856  19.171  0.00  0.00    +0.000 C 
ATOM     21  O   UNL     1       1.010   2.770  18.172  0.00  0.00    +0.000 OA
ENDBRANCH   1  21
BRANCH   3  22
ATOM     22  O   UNL     1       3.869   2.719  19.973  0.00  0.00    +0.000 OA
ATOM     23  H   UNL     1       4.000   2.646  20.936  0.00  0.00    +0.000 HD
ENDBRANCH   3  22
TORSDOF 4
ENDMDL
MODEL 4
REMARK VINA RESULT:      -6.6      2.484      6.408
REMARK  Name = 
REMARK  5 active torsions:
REMARK  status: ('A' for Active; 'I' for Inactive)
REMARK    1  A    between atoms: C_1  and  O_2
REMARK    2  A    between atoms: O_2  and  C_3
REMARK    3  A    between atoms: C_5  and  O_6
REMARK    4  A    between atoms: C_11  and  C_13
REMARK    5  A    between atoms: C_18  and  O_19
REMARK                            x       y       z     vdW  Elec       q    Type
REMARK                         _______ _______ _______ _____ _____    ______ ____
ROOT
ATOM      1  C   UNL     1       6.326   3.978  14.302  0.00  0.00    +0.000 C 
ATOM      2  C   UNL     1       7.177   5.242  14.068  0.00  0.00    +0.000 C 
ATOM      3  C   UNL     1       6.403   5.948  15.199  0.00  0.00    +0.000 C 
ATOM      4  C   UNL     1       5.936   4.545  15.713  0.00  0.00    +0.000 C 
ATOM      5  C   UNL     1       4.440   4.400  16.053  0.00  0.00    +0.000 C 
ATOM      6  C   UNL     1       4.158   5.125  17.367  0.00  0.00    +0.000 C 
ATOM      7  N   UNL     1       4.960   4.507  18.421  0.00  0.00    +0.000 N 
ATOM      8  C   UNL     1       4.489   3.657  19.440  0.00  0.00    +0.000 C 
ATOM      9  O   UNL     1       5.269   3.156  20.253  0.00  0.00    +0.000 OA
ATOM     10  C   UNL     1       6.401   4.634  18.205  0.00  0.00    +0.000 C 
ATOM     11  C   UNL     1       6.805   3.993  16.872  0.00  0.00    +0.000 C 
ENDROOT
BRANCH   8  12
ATOM     12  C   UNL     1       3.020   3.311  19.546  0.00  0.00    +0.000 A 
ATOM     13  N   UNL     1       2.261   4.122  20.342  0.00  0.00    +0.000 NA
ATOM     14  C   UNL     1       0.944   3.852  20.439  0.00  0.00    +0.000 A 
ATOM     15  C   UNL     1       0.313   2.842  19.737  0.00  0.00    +0.000 A 
ATOM     16  C   UNL     1       1.080   2.047  18.892  0.00  0.00    +0.000 A 
ATOM     17  C   UNL     1       2.455   2.270  18.798  0.00  0.00    +0.000 A 
BRANCH  17  18
ATOM     18  O   UNL     1       3.203   1.446  18.007  0.00  0.00    +0.000 OA
ATOM     19  H   UNL     1       4.147   1.635  18.129  0.00  0.00    +0.000 HD
ENDBRANCH  17  18
ENDBRANCH   8  12
BRANCH   1  21
ATOM     20  C   UNL     1       5.537   3.218  12.119  0.00  0.00    +0.000 C 
ATOM     21  O   UNL     1       5.222   3.789  13.382  0.00  0.00    +0.000 OA
ENDBRANCH   1  21
BRANCH   3  22
ATOM     22  O   UNL     1       5.381   6.868  14.767  0.00  0.00    +0.000 OA
ATOM     23  H   UNL     1       5.531   6.990  13.812  0.00  0.00    +0.000 HD
ENDBRANCH   3  22
TORSDOF 4
ENDMDL
MODEL 5
REMARK VINA RESULT:      -6.4      2.363      6.418
REMARK  Name = 
REMARK  5 active torsions:
REMARK  status: ('A' for Active; 'I' for Inactive)
REMARK    1  A    between atoms: C_1  and  O_2
REMARK    2  A    between atoms: O_2  and  C_3
REMARK    3  A    between atoms: C_5  and  O_6
REMARK    4  A    between atoms: C_11  and  C_13
REMARK    5  A    between atoms: C_18  and  O_19
REMARK                            x       y       z     vdW  Elec       q    Type
REMARK                         _______ _______ _______ _____ _____    ______ ____
ROOT
ATOM      1  C   UNL     1       6.348   4.019  14.331  0.00  0.00    +0.000 C 
ATOM      2  C   UNL     1       7.208   5.277  14.096  0.00  0.00    +0.000 C 
ATOM      3  C   UNL     1       6.437   5.990  15.224  0.00  0.00    +0.000 C 
ATOM      4  C   UNL     1       5.959   4.592  15.740  0.00  0.00    +0.000 C 
ATOM      5  C   UNL     1       4.461   4.457  16.077  0.00  0.00    +0.000 C 
ATOM      6  C   UNL     1       4.182   5.186  17.389  0.00  0.00    +0.000 C 
ATOM      7  N   UNL     1       4.977   4.565  18.446  0.00  0.00    +0.000 N 
ATOM      8  C   UNL     1       4.498   3.721  19.465  0.00  0.00    +0.000 C 
ATOM      9  O   UNL     1       5.274   3.217  20.282  0.00  0.00    +0.000 OA
ATOM     10  C   UNL     1       6.419   4.683  18.233  0.00  0.00    +0.000 C 
ATOM     11  C   UNL     1       6.822   4.036  16.901  0.00  0.00    +0.000 C 
ENDROOT
BRANCH   8  12
ATOM     12  C   UNL     1       3.027   3.385  19.569  0.00  0.00    +0.000 A 
ATOM     13  N   UNL     1       2.604   2.287  18.874  0.00  0.00    +0.000 NA
ATOM     14  C   UNL     1       1.301   1.951  18.965  0.00  0.00    +0.000 A 
ATOM     15  C   UNL     1       0.389   2.617  19.762  0.00  0.00    +0.000 A 
ATOM     16  C   UNL     1       0.833   3.708  20.502  0.00  0.00    +0.000 A 
ATOM     17  C   UNL     1       2.166   4.111  20.402  0.00  0.00    +0.000 A 
BRANCH  17  18
ATOM     18  O   UNL     1       2.572   5.217  21.092  0.00  0.00    +0.000 OA
ATOM     19  H   UNL     1       2.526   5.047  22.047  0.00  0.00    +0.000 HD
ENDBRANCH  17  18
ENDBRANCH   8  12
BRANCH   1  21
ATOM     20  C   UNL     1       5.553   3.227  12.162  0.00  0.00    +0.000 C 
ATOM     21  O   UNL     1       5.245   3.835  13.409  0.00  0.00    +0.000 OA
ENDBRANCH   1  21
BRANCH   3  22
ATOM     22  O   UNL     1       5.421   6.916  14.788  0.00  0.00    +0.000 OA
ATOM     23  H   UNL     1       4.736   6.890  15.481  0.00  0.00    +0.000 HD
ENDBRANCH   3  22
TORSDOF 4
ENDMDL
MODEL 6
REMARK VINA RESULT:      -5.9      1.113      1.167
REMARK  Name = 
REMARK  5 active torsions:
REMARK  status: ('A' for Active; 'I' for Inactive)
REMARK    1  A    between atoms: C_1  and  O_2
REMARK    2  A    between atoms: O_2  and  C_3
REMARK    3  A    between atoms: C_5  and  O_6
REMARK    4  A    between atoms: C_11  and  C_13
REMARK    5  A    between atoms: C_18  and  O_19
REMARK                            x       y       z     vdW  Elec       q    Type
REMARK                         _______ _______ _______ _____ _____    ______ ____
ROOT
ATOM      1  C   UNL     1       2.590   2.124  20.041  0.00  0.00    +0.000 C 
ATOM      2  C   UNL     1       1.058   2.296  19.993  0.00  0.00    +0.000 C 
ATOM      3  C   UNL     1       1.257   3.764  19.565  0.00  0.00    +0.000 C 
ATOM      4  C   UNL     1       2.727   3.412  19.155  0.00  0.00    +0.000 C 
ATOM      5  C   UNL     1       3.825   4.384  19.631  0.00  0.00    +0.000 C 
ATOM      6  C   UNL     1       3.754   5.659  18.795  0.00  0.00    +0.000 C 
ATOM      7  N   UNL     1       3.985   5.312  17.395  0.00  0.00    +0.000 N 
ATOM      8  C   UNL     1       5.155   5.561  16.653  0.00  0.00    +0.000 C 
ATOM      9  O   UNL     1       5.253   5.181  15.484  0.00  0.00    +0.000 OA
ATOM     10  C   UNL     1       2.963   4.424  16.841  0.00  0.00    +0.000 C 
ATOM     11  C   UNL     1       2.891   3.118  17.642  0.00  0.00    +0.000 C 
ENDROOT
BRANCH   8  12
ATOM     12  C   UNL     1       6.334   6.274  17.279  0.00  0.00    +0.000 A 
ATOM     13  N   UNL     1       6.479   7.596  16.968  0.00  0.00    +0.000 NA
ATOM     14  C   UNL     1       7.508   8.263  17.528  0.00  0.00    +0.000 A 
ATOM     15  C   UNL     1       8.384   7.702  18.438  0.00  0.00    +0.000 A 
ATOM     16  C   UNL     1       8.207   6.367  18.786  0.00  0.00    +0.000 A 
ATOM     17  C   UNL     1       7.177   5.632  18.195  0.00  0.00    +0.000 A 
BRANCH  17  18
ATOM     18  O   UNL     1       7.051   4.309  18.507  0.00  0.00    +0.000 OA
ATOM     19  H   UNL     1       6.588   3.843  17.793  0.00  0.00    +0.000 HD
ENDBRANCH  17  18
ENDBRANCH   8  12
BRANCH   1  21
ATOM     20  C   UNL     1       4.437   1.557  21.535  0.00  0.00    +0.000 C 
ATOM     21  O   UNL     1       3.186   2.209  21.359  0.00  0.00    +0.000 OA
ENDBRANCH   1  21
BRANCH   3  22
ATOM     22  O   UNL     1       1.078   4.742  20.608  0.00  0.00    +0.000 OA
ATOM     23  H   UNL     1       1.627   5.502  20.345  0.00  0.00    +0.000 HD
ENDBRANCH   3  22
TORSDOF 4
ENDMDL
MODEL 7
REMARK VINA RESULT:      -5.8      3.112      4.373
REMARK  Name = 
REMARK  5 active torsions:
REMARK  status: ('A' for Active; 'I' for Inactive)
REMARK    1  A    between atoms: C_1  and  O_2
REMARK    2  A    between atoms: O_2  and  C_3
REMARK    3  A    between atoms: C_5  and  O_6
REMARK    4  A    between atoms: C_11  and  C_13
REMARK    5  A    between atoms: C_18  and  O_19
REMARK                            x       y       z     vdW  Elec       q    Type
REMARK                         _______ _______ _______ _____ _____    ______ ____
ROOT
ATOM      1  C   UNL     1       3.455   2.335  19.932  0.00  0.00    +0.000 C 
ATOM      2  C   UNL     1       3.636   1.264  18.837  0.00  0.00    +0.000 C 
ATOM      3  C   UNL     1       2.995   2.228  17.819  0.00  0.00    +0.000 C 
ATOM      4  C   UNL     1       3.284   3.411  18.802  0.00  0.00    +0.000 C 
ATOM      5  C   UNL     1       2.127   4.398  19.050  0.00  0.00    +0.000 C 
ATOM      6  C   UNL     1       1.961   5.286  17.819  0.00  0.00    +0.000 C 
ATOM      7  N   UNL     1       3.200   6.030  17.611  0.00  0.00    +0.000 N 
ATOM      8  C   UNL     1       3.408   7.398  17.874  0.00  0.00    +0.000 C 
ATOM      9  O   UNL     1       4.516   7.911  17.700  0.00  0.00    +0.000 OA
ATOM     10  C   UNL     1       4.351   5.174  17.324  0.00  0.00    +0.000 C 
ATOM     11  C   UNL     1       4.586   4.184  18.471  0.00  0.00    +0.000 C 
ENDROOT
BRANCH   8  12
ATOM     12  C   UNL     1       2.288   8.266  18.405  0.00  0.00    +0.000 A 
ATOM     13  N   UNL     1       1.689   9.100  17.505  0.00  0.00    +0.000 NA
ATOM     14  C   UNL     1       0.673   9.870  17.944  0.00  0.00    +0.000 A 
ATOM     15  C   UNL     1       0.171   9.820  19.231  0.00  0.00    +0.000 A 
ATOM     16  C   UNL     1       0.755   8.937  20.133  0.00  0.00    +0.000 A 
ATOM     17  C   UNL     1       1.837   8.153  19.726  0.00  0.00    +0.000 A 
BRANCH  17  18
ATOM     18  O   UNL     1       2.434   7.332  20.639  0.00  0.00    +0.000 OA
ATOM     19  H   UNL     1       2.373   7.722  21.525  0.00  0.00    +0.000 HD
ENDBRANCH  17  18
ENDBRANCH   8  12
BRANCH   1  21
ATOM     20  C   UNL     1       2.280   2.930  21.989  0.00  0.00    +0.000 C 
ATOM     21  O   UNL     1       2.307   2.155  20.798  0.00  0.00    +0.000 OA
ENDBRANCH   1  21
BRANCH   3  22
ATOM     22  O   UNL     1       1.617   1.958  17.495  0.00  0.00    +0.000 OA
ATOM     23  H   UNL     1       1.101   2.610  18.006  0.00  0.00    +0.000 HD
ENDBRANCH   3  22
TORSDOF 4
ENDMDL
MODEL 8
REMARK VINA RESULT:      -5.6      4.467      7.009
REMARK  Name = 
REMARK  5 active torsions:
REMARK  status: ('A' for Active; 'I' for Inactive)
REMARK    1  A    between atoms: C_1  and  O_2
REMARK    2  A    between atoms: O_2  and  C_3
REMARK    3  A    between atoms: C_5  and  O_6
REMARK    4  A    between atoms: C_11  and  C_13
REMARK    5  A    between atoms: C_18  and  O_19
REMARK                            x       y       z     vdW  Elec       q    Type
REMARK                         _______ _______ _______ _____ _____    ______ ____
ROOT
ATOM      1  C   UNL     1      -0.398  10.389  18.194  0.00  0.00    +0.000 C 
ATOM      2  C   UNL     1       0.334  11.708  18.514  0.00  0.00    +0.000 C 
ATOM      3  C   UNL     1       1.314  10.924  19.408  0.00  0.00    +0.000 C 
ATOM      4  C   UNL     1       0.871   9.607  18.686  0.00  0.00    +0.000 C 
ATOM      5  C   UNL     1       0.550   8.401  19.590  0.00  0.00    +0.000 C 
ATOM      6  C   UNL     1       1.857   7.824  20.129  0.00  0.00    +0.000 C 
ATOM      7  N   UNL     1       2.672   7.384  19.000  0.00  0.00    +0.000 N 
ATOM      8  C   UNL     1       2.903   6.052  18.604  0.00  0.00    +0.000 C 
ATOM      9  O   UNL     1       3.577   5.801  17.603  0.00  0.00    +0.000 OA
ATOM     10  C   UNL     1       3.065   8.473  18.106  0.00  0.00    +0.000 C 
ATOM     11  C   UNL     1       1.826   9.180  17.543  0.00  0.00    +0.000 C 
ENDROOT
BRANCH   8  12
ATOM     12  C   UNL     1       2.306   4.898  19.379  0.00  0.00    +0.000 A 
ATOM     13  N   UNL     1       2.616   4.833  20.708  0.00  0.00    +0.000 NA
ATOM     14  C   UNL     1       2.080   3.827  21.428  0.00  0.00    +0.000 A 
ATOM     15  C   UNL     1       1.196   2.898  20.913  0.00  0.00    +0.000 A 
ATOM     16  C   UNL     1       0.848   2.993  19.570  0.00  0.00    +0.000 A 
ATOM     17  C   UNL     1       1.415   3.997  18.782  0.00  0.00    +0.000 A 
BRANCH  17  18
ATOM     18  O   UNL     1       1.106   4.042  17.453  0.00  0.00    +0.000 OA
ATOM     19  H   UNL     1       1.883   4.318  16.941  0.00  0.00    +0.000 HD
ENDBRANCH  17  18
ENDBRANCH   8  12
BRANCH   1  21
ATOM     20  C   UNL     1      -2.815  10.040  18.208  0.00  0.00    +0.000 C 
ATOM     21  O   UNL     1      -1.609  10.148  18.952  0.00  0.00    +0.000 OA
ENDBRANCH   1  21
BRANCH   3  22
ATOM     22  O   UNL     1       1.067  11.016  20.825  0.00  0.00    +0.000 OA
ATOM     23  H   UNL     1       1.198  10.113  21.168  0.00  0.00    +0.000 HD
ENDBRANCH   3  22
TORSDOF 4
ENDMDL
MODEL 9
REMARK VINA RESULT:      -5.6      3.030      5.898
REMARK  Name = 
REMARK  5 active torsions:
REMARK  status: ('A' for Active; 'I' for Inactive)
REMARK    1  A    between atoms: C_1  and  O_2
REMARK    2  A    between atoms: O_2  and  C_3
REMARK    3  A    between atoms: C_5  and  O_6
REMARK    4  A    between atoms: C_11  and  C_13
REMARK    5  A    between atoms: C_18  and  O_19
REMARK                            x       y       z     vdW  Elec       q    Type
REMARK                         _______ _______ _______ _____ _____    ______ ____
ROOT
ATOM      1  C   UNL     1       5.456   4.203  15.458  0.00  0.00    +0.000 C 
ATOM      2  C   UNL     1       6.788   3.584  15.928  0.00  0.00    +0.000 C 
ATOM      3  C   UNL     1       6.786   4.544  17.133  0.00  0.00    +0.000 C 
ATOM      4  C   UNL     1       5.255   4.780  16.904  0.00  0.00    +0.000 C 
ATOM      5  C   UNL     1       4.772   6.243  16.932  0.00  0.00    +0.000 C 
ATOM      6  C   UNL     1       4.767   6.736  18.376  0.00  0.00    +0.000 C 
ATOM      7  N   UNL     1       3.848   5.904  19.150  0.00  0.00    +0.000 N 
ATOM      8  C   UNL     1       2.571   6.276  19.611  0.00  0.00    +0.000 C 
ATOM      9  O   UNL     1       1.862   5.471  20.220  0.00  0.00    +0.000 OA
ATOM     10  C   UNL     1       4.251   4.500  19.217  0.00  0.00    +0.000 C 
ATOM     11  C   UNL     1       4.354   3.901  17.808  0.00  0.00    +0.000 C 
ENDROOT
BRANCH   8  12
ATOM     12  C   UNL     1       2.023   7.661  19.346  0.00  0.00    +0.000 A 
ATOM     13  N   UNL     1       1.958   8.049  18.038  0.00  0.00    +0.000 NA
ATOM     14  C   UNL     1       1.453   9.270  17.770  0.00  0.00    +0.000 A 
ATOM     15  C   UNL     1       0.949  10.122  18.734  0.00  0.00    +0.000 A 
ATOM     16  C   UNL     1       0.976   9.706  20.061  0.00  0.00    +0.000 A 
ATOM     17  C   UNL     1       1.529   8.464  20.382  0.00  0.00    +0.000 A 
BRANCH  17  18
ATOM     18  O   UNL     1       1.598   8.095  21.694  0.00  0.00    +0.000 OA
ATOM     19  H   UNL     1       0.930   7.418  21.884  0.00  0.00    +0.000 HD
ENDBRANCH  17  18
ENDBRANCH   8  12
BRANCH   1  21
ATOM     20  C   UNL     1       6.662   5.052  13.511  0.00  0.00    +0.000 C 
ATOM     21  O   UNL     1       5.566   5.192  14.404  0.00  0.00    +0.000 OA
ENDBRANCH   1  21
BRANCH   3  22
ATOM     22  O   UNL     1       7.655   5.688  17.014  0.00  0.00    +0.000 OA
ATOM     23  H   UNL     1       7.649   5.918  16.067  0.00  0.00    +0.000 HD
ENDBRANCH   3  22
TORSDOF 4
ENDMDL
