MODEL 1
REMARK VINA RESULT:      -8.1      0.000      0.000
REMARK  Name = 
REMARK  16 active torsions:
REMARK  status: ('A' for Active; 'I' for Inactive)
REMARK    1  A    between atoms: C_1  and  O_2
REMARK    2  A    between atoms: O_2  and  C_3
REMARK    3  A    between atoms: C_5  and  C_6
REMARK    4  A    between atoms: C_6  and  C_7
REMARK    5  A    between atoms: C_6  and  O_12
REMARK    6  A    between atoms: C_7  and  C_8
REMARK    7  A    between atoms: C_9  and  C_10
REMARK    8  A    between atoms: C_9  and  C_11
REMARK    9  A    between atoms: O_12  and  C_13
REMARK   10  A    between atoms: C_13  and  C_15
REMARK   11  A    between atoms: C_15  and  C_16
REMARK   12  A    between atoms: C_15  and  C_17
REMARK   13  A    between atoms: C_18  and  O_19
REMARK   14  A    between atoms: O_19  and  C_20
REMARK   15  A    between atoms: N_24  and  O_25
REMARK   16  A    between atoms: N_29  and  O_30
REMARK                            x       y       z     vdW  Elec       q    Type
REMARK                         _______ _______ _______ _____ _____    ______ ____
ROOT
ATOM      1  C   UNL     1       3.484   6.950  17.970  0.00  0.00    +0.000 A 
ATOM      2  C   UNL     1       4.313   6.313  17.067  0.00  0.00    +0.000 A 
ATOM      3  C   UNL     1       4.632   4.961  17.149  0.00  0.00    +0.000 A 
ATOM      4  C   UNL     1       4.015   4.167  18.166  0.00  0.00    +0.000 A 
ATOM      5  C   UNL     1       3.103   4.786  19.102  0.00  0.00    +0.000 A 
ATOM      6  C   UNL     1       2.871   6.204  19.000  0.00  0.00    +0.000 A 
ATOM      7  C   UNL     1       1.969   6.950  19.955  0.00  0.00    +0.000 C 
ATOM      8  N   UNL     1       1.768   8.234  19.840  0.00  0.00    +0.000 NA
ATOM      9  C   UNL     1       1.325   6.167  21.017  0.00  0.00    +0.000 C 
ATOM     10  C   UNL     1       1.493   4.861  21.122  0.00  0.00    +0.000 C 
ATOM     11  C   UNL     1       2.340   4.062  20.193  0.00  0.00    +0.000 C 
ATOM     12  N   UNL     1       2.383   2.773  20.325  0.00  0.00    +0.000 NA
ENDROOT
BRANCH   1  14
ATOM     13  C   UNL     1       2.145   8.808  17.259  0.00  0.00    +0.000 C 
ATOM     14  O   UNL     1       3.323   8.311  17.886  0.00  0.00    +0.000 OA
ENDBRANCH   1  14
BRANCH   4  15
ATOM     15  O   UNL     1       4.458   2.884  18.003  0.00  0.00    +0.000 OA
ATOM     16  C   UNL     1       3.700   1.745  17.678  0.00  0.00    +0.000 C 
ENDBRANCH   4  15
BRANCH   8  17
ATOM     17  O   UNL     1       0.912   8.767  20.808  0.00  0.00    +0.000 OA
ATOM     18  H   UNL     1       0.446   7.969  21.120  0.00  0.00    +0.000 HD
ENDBRANCH   8  17
BRANCH  12  19
ATOM     19  O   UNL     1       1.620   2.260  21.381  0.00  0.00    +0.000 OA
ATOM     20  H   UNL     1       1.983   1.362  21.488  0.00  0.00    +0.000 HD
ENDBRANCH  12  19
BRANCH   3  21
ATOM     21  C   UNL     1       5.684   4.424  16.139  0.00  0.00    +0.000 C 
BRANCH  21  22
ATOM     22  C   UNL     1       5.235   4.435  14.634  0.00  0.00    +0.000 C 
BRANCH  22  23
ATOM     23  C   UNL     1       6.204   3.903  13.615  0.00  0.00    +0.000 C 
ATOM     24  C   UNL     1       5.860   3.411  12.407  0.00  0.00    +0.000 C 
ATOM     25  C   UNL     1       4.461   3.408  11.838  0.00  0.00    +0.000 C 
ATOM     26  C   UNL     1       6.897   2.804  11.505  0.00  0.00    +0.000 C 
ENDBRANCH  22  23
ENDBRANCH  21  22
BRANCH  21  27
ATOM     27  O   UNL     1       6.963   5.089  16.273  0.00  0.00    +0.000 OA
BRANCH  27  28
ATOM     28  C   UNL     1       7.658   4.928  17.430  0.00  0.00    +0.000 C 
ATOM     29  O   UNL     1       8.394   3.980  17.687  0.00  0.00    +0.000 OA
BRANCH  28  30
ATOM     30  C   UNL     1       7.346   6.054  18.395  0.00  0.00    +0.000 C 
ATOM     31  C   UNL     1       8.017   5.794  19.742  0.00  0.00    +0.000 C 
ATOM     32  C   UNL     1       7.804   7.388  17.819  0.00  0.00    +0.000 C 
ENDBRANCH  28  30
ENDBRANCH  27  28
ENDBRANCH  21  27
ENDBRANCH   3  21
TORSDOF 10
ENDMDL
MODEL 2
REMARK VINA RESULT:      -7.3      1.283      5.204
REMARK  Name = 
REMARK  16 active torsions:
REMARK  status: ('A' for Active; 'I' for Inactive)
REMARK    1  A    between atoms: C_1  and  O_2
REMARK    2  A    between atoms: O_2  and  C_3
REMARK    3  A    between atoms: C_5  and  C_6
REMARK    4  A    between atoms: C_6  and  C_7
REMARK    5  A    between atoms: C_6  and  O_12
REMARK    6  A    between atoms: C_7  and  C_8
REMARK    7  A    between atoms: C_9  and  C_10
REMARK    8  A    between atoms: C_9  and  C_11
REMARK    9  A    between atoms: O_12  and  C_13
REMARK   10  A    between atoms: C_13  and  C_15
REMARK   11  A    between atoms: C_15  and  C_16
REMARK   12  A    between atoms: C_15  and  C_17
REMARK   13  A    between atoms: C_18  and  O_19
REMARK   14  A    between atoms: O_19  and  C_20
REMARK   15  A    between atoms: N_24  and  O_25
REMARK   16  A    between atoms: N_29  and  O_30
REMARK                            x       y       z     vdW  Elec       q    Type
REMARK                         _______ _______ _______ _____ _____    ______ ____
ROOT
ATOM      1  C   UNL     1       4.134   3.320  18.747  0.00  0.00    +0.000 A 
ATOM      2  C   UNL     1       4.896   3.677  17.650  0.00  0.00    +0.000 A 
ATOM      3  C   UNL     1       4.807   4.923  17.035  0.00  0.00    +0.000 A 
ATOM      4  C   UNL     1       3.948   5.914  17.605  0.00  0.00    +0.000 A 
ATOM      5  C   UNL     1       3.170   5.596  18.782  0.00  0.00    +0.000 A 
ATOM      6  C   UNL     1       3.261   4.266  19.326  0.00  0.00    +0.000 A 
ATOM      7  C   UNL     1       2.458   3.824  20.528  0.00  0.00    +0.000 C 
ATOM      8  N   UNL     1       2.561   2.614  21.008  0.00  0.00    +0.000 NA
ATOM      9  C   UNL     1       1.559   4.814  21.134  0.00  0.00    +0.000 C 
ATOM     10  C   UNL     1       1.475   6.051  20.678  0.00  0.00    +0.000 C 
ATOM     11  C   UNL     1       2.263   6.559  19.521  0.00  0.00    +0.000 C 
ATOM     12  N   UNL     1       2.173   7.811  19.193  0.00  0.00    +0.000 NA
ENDROOT
BRANCH   1  14
ATOM     13  C   UNL     1       3.902   0.975  18.302  0.00  0.00    +0.000 C 
ATOM     14  O   UNL     1       4.196   2.030  19.212  0.00  0.00    +0.000 OA
ENDBRANCH   1  14
BRANCH   4  15
ATOM     15  O   UNL     1       4.075   7.045  16.846  0.00  0.00    +0.000 OA
ATOM     16  C   UNL     1       4.440   8.334  17.275  0.00  0.00    +0.000 C 
ENDBRANCH   4  15
BRANCH   8  17
ATOM     17  O   UNL     1       1.745   2.370  22.116  0.00  0.00    +0.000 OA
ATOM     18  H   UNL     1       1.635   1.402  22.071  0.00  0.00    +0.000 HD
ENDBRANCH   8  17
BRANCH  12  19
ATOM     19  O   UNL     1       1.293   8.566  19.977  0.00  0.00    +0.000 OA
ATOM     20  H   UNL     1       1.772   9.409  20.081  0.00  0.00    +0.000 HD
ENDBRANCH  12  19
BRANCH   3  21
ATOM     21  C   UNL     1       5.628   5.124  15.731  0.00  0.00    +0.000 C 
BRANCH  21  22
ATOM     22  C   UNL     1       7.164   5.377  15.939  0.00  0.00    +0.000 C 
BRANCH  22  23
ATOM     23  C   UNL     1       7.584   6.732  16.437  0.00  0.00    +0.000 C 
ATOM     24  C   UNL     1       7.802   7.045  17.732  0.00  0.00    +0.000 C 
ATOM     25  C   UNL     1       7.762   6.064  18.880  0.00  0.00    +0.000 C 
ATOM     26  C   UNL     1       8.115   8.458  18.135  0.00  0.00    +0.000 C 
ENDBRANCH  22  23
ENDBRANCH  21  22
BRANCH  21  27
ATOM     27  O   UNL     1       5.435   4.041  14.788  0.00  0.00    +0.000 OA
BRANCH  27  28
ATOM     28  C   UNL     1       6.136   4.064  13.625  0.00  0.00    +0.000 C 
ATOM     29  O   UNL     1       7.038   4.853  13.357  0.00  0.00    +0.000 OA
BRANCH  28  30
ATOM     30  C   UNL     1       5.605   3.016  12.667  0.00  0.00    +0.000 C 
ATOM     31  C   UNL     1       4.426   3.577  11.874  0.00  0.00    +0.000 C 
ATOM     32  C   UNL     1       6.709   2.551  11.726  0.00  0.00    +0.000 C 
ENDBRANCH  28  30
ENDBRANCH  27  28
ENDBRANCH  21  27
ENDBRANCH   3  21
TORSDOF 10
ENDMDL
MODEL 3
REMARK VINA RESULT:      -7.2      6.174      9.743
REMARK  Name = 
REMARK  16 active torsions:
REMARK  status: ('A' for Active; 'I' for Inactive)
REMARK    1  A    between atoms: C_1  and  O_2
REMARK    2  A    between atoms: O_2  and  C_3
REMARK    3  A    between atoms: C_5  and  C_6
REMARK    4  A    between atoms: C_6  and  C_7
REMARK    5  A    between atoms: C_6  and  O_12
REMARK    6  A    between atoms: C_7  and  C_8
REMARK    7  A    between atoms: C_9  and  C_10
REMARK    8  A    between atoms: C_9  and  C_11
REMARK    9  A    between atoms: O_12  and  C_13
REMARK   10  A    between atoms: C_13  and  C_15
REMARK   11  A    between atoms: C_15  and  C_16
REMARK   12  A    between atoms: C_15  and  C_17
REMARK   13  A    between atoms: C_18  and  O_19
REMARK   14  A    between atoms: O_19  and  C_20
REMARK   15  A    between atoms: N_24  and  O_25
REMARK   16  A    between atoms: N_29  and  O_30
REMARK                            x       y       z     vdW  Elec       q    Type
REMARK                         _______ _______ _______ _____ _____    ______ ____
ROOT
ATOM      1  C   UNL     1      -2.904  11.382  17.839  0.00  0.00    +0.000 A 
ATOM      2  C   UNL     1      -1.627  11.044  18.246  0.00  0.00    +0.000 A 
ATOM      3  C   UNL     1      -1.137  11.316  19.520  0.00  0.00    +0.000 A 
ATOM      4  C   UNL     1      -2.014  11.902  20.486  0.00  0.00    +0.000 A 
ATOM      5  C   UNL     1      -3.374  12.227  20.114  0.00  0.00    +0.000 A 
ATOM      6  C   UNL     1      -3.793  11.980  18.758  0.00  0.00    +0.000 A 
ATOM      7  C   UNL     1      -5.178  12.322  18.262  0.00  0.00    +0.000 C 
ATOM      8  N   UNL     1      -5.539  12.083  17.031  0.00  0.00    +0.000 NA
ATOM      9  C   UNL     1      -6.103  12.932  19.226  0.00  0.00    +0.000 C 
ATOM     10  C   UNL     1      -5.760  13.146  20.483  0.00  0.00    +0.000 C 
ATOM     11  C   UNL     1      -4.424  12.800  21.044  0.00  0.00    +0.000 C 
ATOM     12  N   UNL     1      -4.203  12.974  22.310  0.00  0.00    +0.000 NA
ENDROOT
BRANCH   1  14
ATOM     13  C   UNL     1      -2.624  10.136  15.809  0.00  0.00    +0.000 C 
ATOM     14  O   UNL     1      -3.261  11.188  16.528  0.00  0.00    +0.000 OA
ENDBRANCH   1  14
BRANCH   4  15
ATOM     15  O   UNL     1      -1.309  12.024  21.651  0.00  0.00    +0.000 OA
ATOM     16  C   UNL     1      -1.387  11.210  22.795  0.00  0.00    +0.000 C 
ENDBRANCH   4  15
BRANCH   8  17
ATOM     17  O   UNL     1      -6.851  12.466  16.736  0.00  0.00    +0.000 OA
ATOM     18  H   UNL     1      -6.783  13.439  16.762  0.00  0.00    +0.000 HD
ENDBRANCH   8  17
BRANCH  12  19
ATOM     19  O   UNL     1      -5.278  13.509  23.029  0.00  0.00    +0.000 OA
ATOM     20  H   UNL     1      -5.028  13.323  23.953  0.00  0.00    +0.000 HD
ENDBRANCH  12  19
BRANCH   3  21
ATOM     21  C   UNL     1       0.361  10.997  19.780  0.00  0.00    +0.000 C 
BRANCH  21  22
ATOM     22  C   UNL     1       0.745   9.476  19.707  0.00  0.00    +0.000 C 
BRANCH  22  23
ATOM     23  C   UNL     1       1.672   9.044  18.605  0.00  0.00    +0.000 C 
ATOM     24  C   UNL     1       2.392   7.903  18.605  0.00  0.00    +0.000 C 
ATOM     25  C   UNL     1       2.307   6.824  19.658  0.00  0.00    +0.000 C 
ATOM     26  C   UNL     1       3.371   7.617  17.502  0.00  0.00    +0.000 C 
ENDBRANCH  22  23
ENDBRANCH  21  22
BRANCH  21  27
ATOM     27  O   UNL     1       1.243  11.765  18.926  0.00  0.00    +0.000 OA
BRANCH  27  28
ATOM     28  C   UNL     1       1.740  12.939  19.397  0.00  0.00    +0.000 C 
ATOM     29  O   UNL     1       2.324  13.081  20.467  0.00  0.00    +0.000 OA
BRANCH  28  30
ATOM     30  C   UNL     1       1.412  14.072  18.444  0.00  0.00    +0.000 C 
ATOM     31  C   UNL     1       0.066  14.693  18.808  0.00  0.00    +0.000 C 
ATOM     32  C   UNL     1       2.513  15.125  18.477  0.00  0.00    +0.000 C 
ENDBRANCH  28  30
ENDBRANCH  27  28
ENDBRANCH  21  27
ENDBRANCH   3  21
TORSDOF 10
ENDMDL
MODEL 4
REMARK VINA RESULT:      -7.2      1.212      3.575
REMARK  Name = 
REMARK  16 active torsions:
REMARK  status: ('A' for Active; 'I' for Inactive)
REMARK    1  A    between atoms: C_1  and  O_2
REMARK    2  A    between atoms: O_2  and  C_3
REMARK    3  A    between atoms: C_5  and  C_6
REMARK    4  A    between atoms: C_6  and  C_7
REMARK    5  A    between atoms: C_6  and  O_12
REMARK    6  A    between atoms: C_7  and  C_8
REMARK    7  A    between atoms: C_9  and  C_10
REMARK    8  A    between atoms: C_9  and  C_11
REMARK    9  A    between atoms: O_12  and  C_13
REMARK   10  A    between atoms: C_13  and  C_15
REMARK   11  A    between atoms: C_15  and  C_16
REMARK   12  A    between atoms: C_15  and  C_17
REMARK   13  A    between atoms: C_18  and  O_19
REMARK   14  A    between atoms: O_19  and  C_20
REMARK   15  A    between atoms: N_24  and  O_25
REMARK   16  A    between atoms: N_29  and  O_30
REMARK                            x       y       z     vdW  Elec       q    Type
REMARK                         _______ _______ _______ _____ _____    ______ ____
ROOT
ATOM      1  C   UNL     1       4.046   3.113  19.171  0.00  0.00    +0.000 A 
ATOM      2  C   UNL     1       4.956   3.268  18.142  0.00  0.00    +0.000 A 
ATOM      3  C   UNL     1       5.031   4.417  17.361  0.00  0.00    +0.000 A 
ATOM      4  C   UNL     1       4.187   5.526  17.680  0.00  0.00    +0.000 A 
ATOM      5  C   UNL     1       3.254   5.421  18.781  0.00  0.00    +0.000 A 
ATOM      6  C   UNL     1       3.182   4.178  19.504  0.00  0.00    +0.000 A 
ATOM      7  C   UNL     1       2.213   3.956  20.642  0.00  0.00    +0.000 C 
ATOM      8  N   UNL     1       2.169   2.822  21.288  0.00  0.00    +0.000 NA
ATOM      9  C   UNL     1       1.324   5.071  20.992  0.00  0.00    +0.000 C 
ATOM     10  C   UNL     1       1.384   6.234  20.368  0.00  0.00    +0.000 C 
ATOM     11  C   UNL     1       2.339   6.528  19.264  0.00  0.00    +0.000 C 
ATOM     12  N   UNL     1       2.380   7.724  18.763  0.00  0.00    +0.000 NA
ENDROOT
BRANCH   1  14
ATOM     13  C   UNL     1       4.005   0.720  19.012  0.00  0.00    +0.000 C 
ATOM     14  O   UNL     1       3.958   1.900  19.808  0.00  0.00    +0.000 OA
ENDBRANCH   1  14
BRANCH   4  15
ATOM     15  O   UNL     1       4.485   6.529  16.800  0.00  0.00    +0.000 OA
ATOM     16  C   UNL     1       4.992   7.808  17.092  0.00  0.00    +0.000 C 
ENDBRANCH   4  15
BRANCH   8  17
ATOM     17  O   UNL     1       1.212   2.783  22.306  0.00  0.00    +0.000 OA
ATOM     18  H   UNL     1       0.399   2.584  21.806  0.00  0.00    +0.000 HD
ENDBRANCH   8  17
BRANCH  12  19
ATOM     19  O   UNL     1       1.471   8.630  19.322  0.00  0.00    +0.000 OA
ATOM     20  H   UNL     1       1.922   9.486  19.198  0.00  0.00    +0.000 HD
ENDBRANCH  12  19
BRANCH   3  21
ATOM     21  C   UNL     1       6.014   4.386  16.157  0.00  0.00    +0.000 C 
BRANCH  21  22
ATOM     22  C   UNL     1       5.388   4.783  14.772  0.00  0.00    +0.000 C 
BRANCH  22  23
ATOM     23  C   UNL     1       5.619   3.855  13.613  0.00  0.00    +0.000 C 
ATOM     24  C   UNL     1       6.611   3.983  12.707  0.00  0.00    +0.000 C 
ATOM     25  C   UNL     1       7.713   5.014  12.767  0.00  0.00    +0.000 C 
ATOM     26  C   UNL     1       6.689   3.061  11.523  0.00  0.00    +0.000 C 
ENDBRANCH  22  23
ENDBRANCH  21  22
BRANCH  21  27
ATOM     27  O   UNL     1       7.205   5.172  16.400  0.00  0.00    +0.000 OA
BRANCH  27  28
ATOM     28  C   UNL     1       7.887   4.972  17.558  0.00  0.00    +0.000 C 
ATOM     29  O   UNL     1       8.628   4.021  17.788  0.00  0.00    +0.000 OA
BRANCH  28  30
ATOM     30  C   UNL     1       7.553   6.058  18.562  0.00  0.00    +0.000 C 
ATOM     31  C   UNL     1       8.050   5.662  19.950  0.00  0.00    +0.000 C 
ATOM     32  C   UNL     1       8.170   7.384  18.132  0.00  0.00    +0.000 C 
ENDBRANCH  28  30
ENDBRANCH  27  28
ENDBRANCH  21  27
ENDBRANCH   3  21
TORSDOF 10
ENDMDL
MODEL 5
REMARK VINA RESULT:      -7.2      7.277     11.137
REMARK  Name = 
REMARK  16 active torsions:
REMARK  status: ('A' for Active; 'I' for Inactive)
REMARK    1  A    between atoms: C_1  and  O_2
REMARK    2  A    between atoms: O_2  and  C_3
REMARK    3  A    between atoms: C_5  and  C_6
REMARK    4  A    between atoms: C_6  and  C_7
REMARK    5  A    between atoms: C_6  and  O_12
REMARK    6  A    between atoms: C_7  and  C_8
REMARK    7  A    between atoms: C_9  and  C_10
REMARK    8  A    between atoms: C_9  and  C_11
REMARK    9  A    between atoms: O_12  and  C_13
REMARK   10  A    between atoms: C_13  and  C_15
REMARK   11  A    between atoms: C_15  and  C_16
REMARK   12  A    between atoms: C_15  and  C_17
REMARK   13  A    between atoms: C_18  and  O_19
REMARK   14  A    between atoms: O_19  and  C_20
REMARK   15  A    between atoms: N_24  and  O_25
REMARK   16  A    between atoms: N_29  and  O_30
REMARK                            x       y       z     vdW  Elec       q    Type
REMARK                         _______ _______ _______ _____ _____    ______ ____
ROOT
ATOM      1  C   UNL     1      -3.202  12.733  21.968  0.00  0.00    +0.000 A 
ATOM      2  C   UNL     1      -1.917  12.711  21.459  0.00  0.00    +0.000 A 
ATOM      3  C   UNL     1      -1.632  12.434  20.125  0.00  0.00    +0.000 A 
ATOM      4  C   UNL     1      -2.716  12.240  19.213  0.00  0.00    +0.000 A 
ATOM      5  C   UNL     1      -4.078  12.303  19.697  0.00  0.00    +0.000 A 
ATOM      6  C   UNL     1      -4.298  12.527  21.103  0.00  0.00    +0.000 A 
ATOM      7  C   UNL     1      -5.680  12.569  21.711  0.00  0.00    +0.000 C 
ATOM      8  N   UNL     1      -5.856  12.780  22.987  0.00  0.00    +0.000 NA
ATOM      9  C   UNL     1      -6.818  12.366  20.805  0.00  0.00    +0.000 C 
ATOM     10  C   UNL     1      -6.652  12.188  19.507  0.00  0.00    +0.000 C 
ATOM     11  C   UNL     1      -5.320  12.170  18.840  0.00  0.00    +0.000 C 
ATOM     12  N   UNL     1      -5.260  12.067  17.548  0.00  0.00    +0.000 NA
ENDROOT
BRANCH   1  14
ATOM     13  C   UNL     1      -2.665  13.935  23.972  0.00  0.00    +0.000 C 
ATOM     14  O   UNL     1      -3.383  12.892  23.319  0.00  0.00    +0.000 OA
ENDBRANCH   1  14
BRANCH   4  15
ATOM     15  O   UNL     1      -2.173  12.029  17.976  0.00  0.00    +0.000 OA
ATOM     16  C   UNL     1      -2.119  10.824  17.253  0.00  0.00    +0.000 C 
ENDBRANCH   4  15
BRANCH   8  17
ATOM     17  O   UNL     1      -7.196  12.782  23.385  0.00  0.00    +0.000 OA
ATOM     18  H   UNL     1      -7.488  11.895  23.102  0.00  0.00    +0.000 HD
ENDBRANCH   8  17
BRANCH  12  19
ATOM     19  O   UNL     1      -6.498  11.955  16.905  0.00  0.00    +0.000 OA
ATOM     20  H   UNL     1      -7.126  12.190  17.613  0.00  0.00    +0.000 HD
ENDBRANCH  12  19
BRANCH   3  21
ATOM     21  C   UNL     1      -0.132  12.312  19.737  0.00  0.00    +0.000 C 
BRANCH  21  22
ATOM     22  C   UNL     1       0.685  13.652  19.791  0.00  0.00    +0.000 C 
BRANCH  22  23
ATOM     23  C   UNL     1       0.257  14.766  18.876  0.00  0.00    +0.000 C 
ATOM     24  C   UNL     1      -0.183  15.973  19.285  0.00  0.00    +0.000 C 
ATOM     25  C   UNL     1      -0.219  16.444  20.720  0.00  0.00    +0.000 C 
ATOM     26  C   UNL     1      -0.689  16.980  18.291  0.00  0.00    +0.000 C 
ENDBRANCH  22  23
ENDBRANCH  21  22
BRANCH  21  27
ATOM     27  O   UNL     1       0.552  11.291  20.503  0.00  0.00    +0.000 OA
BRANCH  27  28
ATOM     28  C   UNL     1       0.568  10.021  20.020  0.00  0.00    +0.000 C 
ATOM     29  O   UNL     1       0.790   9.711  18.853  0.00  0.00    +0.000 OA
BRANCH  28  30
ATOM     30  C   UNL     1       0.204   9.035  21.112  0.00  0.00    +0.000 C 
ATOM     31  C   UNL     1       1.223   7.898  21.155  0.00  0.00    +0.000 C 
ATOM     32  C   UNL     1       0.134   9.741  22.461  0.00  0.00    +0.000 C 
ENDBRANCH  28  30
ENDBRANCH  27  28
ENDBRANCH  21  27
ENDBRANCH   3  21
TORSDOF 10
ENDMDL
MODEL 6
REMARK VINA RESULT:      -7.1      8.156     13.200
REMARK  Name = 
REMARK  16 active torsions:
REMARK  status: ('A' for Active; 'I' for Inactive)
REMARK    1  A    between atoms: C_1  and  O_2
REMARK    2  A    between atoms: O_2  and  C_3
REMARK    3  A    between atoms: C_5  and  C_6
REMARK    4  A    between atoms: C_6  and  C_7
REMARK    5  A    between atoms: C_6  and  O_12
REMARK    6  A    between atoms: C_7  and  C_8
REMARK    7  A    between atoms: C_9  and  C_10
REMARK    8  A    between atoms: C_9  and  C_11
REMARK    9  A    between atoms: O_12  and  C_13
REMARK   10  A    between atoms: C_13  and  C_15
REMARK   11  A    between atoms: C_15  and  C_16
REMARK   12  A    between atoms: C_15  and  C_17
REMARK   13  A    between atoms: C_18  and  O_19
REMARK   14  A    between atoms: O_19  and  C_20
REMARK   15  A    between atoms: N_24  and  O_25
REMARK   16  A    between atoms: N_29  and  O_30
REMARK                            x       y       z     vdW  Elec       q    Type
REMARK                         _______ _______ _______ _____ _____    ______ ____
ROOT
ATOM      1  C   UNL     1      -4.392  12.336  18.956  0.00  0.00    +0.000 A 
ATOM      2  C   UNL     1      -4.403  12.952  20.193  0.00  0.00    +0.000 A 
ATOM      3  C   UNL     1      -3.374  12.813  21.120  0.00  0.00    +0.000 A 
ATOM      4  C   UNL     1      -2.212  12.065  20.756  0.00  0.00    +0.000 A 
ATOM      5  C   UNL     1      -2.140  11.445  19.451  0.00  0.00    +0.000 A 
ATOM      6  C   UNL     1      -3.270  11.573  18.567  0.00  0.00    +0.000 A 
ATOM      7  C   UNL     1      -3.309  10.928  17.201  0.00  0.00    +0.000 C 
ATOM      8  N   UNL     1      -4.341  11.063  16.413  0.00  0.00    +0.000 NA
ATOM      9  C   UNL     1      -2.135  10.145  16.796  0.00  0.00    +0.000 C 
ATOM     10  C   UNL     1      -1.071  10.032  17.570  0.00  0.00    +0.000 C 
ATOM     11  C   UNL     1      -0.955  10.671  18.911  0.00  0.00    +0.000 C 
ATOM     12  N   UNL     1       0.159  10.569  19.567  0.00  0.00    +0.000 NA
ENDROOT
BRANCH   1  14
ATOM     13  C   UNL     1      -6.453  13.449  18.439  0.00  0.00    +0.000 C 
ATOM     14  O   UNL     1      -5.503  12.426  18.154  0.00  0.00    +0.000 OA
ENDBRANCH   1  14
BRANCH   4  15
ATOM     15  O   UNL     1      -1.347  12.118  21.813  0.00  0.00    +0.000 OA
ATOM     16  C   UNL     1      -1.109  11.127  22.783  0.00  0.00    +0.000 C 
ENDBRANCH   4  15
BRANCH   8  17
ATOM     17  O   UNL     1      -4.216  10.397  15.190  0.00  0.00    +0.000 OA
ATOM     18  H   UNL     1      -3.303  10.057  15.243  0.00  0.00    +0.000 HD
ENDBRANCH   8  17
BRANCH  12  19
ATOM     19  O   UNL     1       1.156   9.822  18.928  0.00  0.00    +0.000 OA
ATOM     20  H   UNL     1       1.307   9.091  19.556  0.00  0.00    +0.000 HD
ENDBRANCH  12  19
BRANCH   3  21
ATOM     21  C   UNL     1      -3.596  13.457  22.518  0.00  0.00    +0.000 C 
BRANCH  21  22
ATOM     22  C   UNL     1      -2.910  14.854  22.728  0.00  0.00    +0.000 C 
BRANCH  22  23
ATOM     23  C   UNL     1      -2.055  15.032  23.951  0.00  0.00    +0.000 C 
ATOM     24  C   UNL     1      -2.386  15.786  25.020  0.00  0.00    +0.000 C 
ATOM     25  C   UNL     1      -3.709  16.489  25.211  0.00  0.00    +0.000 C 
ATOM     26  C   UNL     1      -1.412  15.983  26.148  0.00  0.00    +0.000 C 
ENDBRANCH  22  23
ENDBRANCH  21  22
BRANCH  21  27
ATOM     27  O   UNL     1      -4.999  13.543  22.866  0.00  0.00    +0.000 OA
BRANCH  27  28
ATOM     28  C   UNL     1      -5.470  12.743  23.858  0.00  0.00    +0.000 C 
ATOM     29  O   UNL     1      -4.776  12.158  24.684  0.00  0.00    +0.000 OA
BRANCH  28  30
ATOM     30  C   UNL     1      -6.977  12.616  23.764  0.00  0.00    +0.000 C 
ATOM     31  C   UNL     1      -7.647  13.868  24.325  0.00  0.00    +0.000 C 
ATOM     32  C   UNL     1      -7.400  12.386  22.318  0.00  0.00    +0.000 C 
ENDBRANCH  28  30
ENDBRANCH  27  28
ENDBRANCH  21  27
ENDBRANCH   3  21
TORSDOF 10
ENDMDL
MODEL 7
REMARK VINA RESULT:      -7.1      1.322      5.213
REMARK  Name = 
REMARK  16 active torsions:
REMARK  status: ('A' for Active; 'I' for Inactive)
REMARK    1  A    between atoms: C_1  and  O_2
REMARK    2  A    between atoms: O_2  and  C_3
REMARK    3  A    between atoms: C_5  and  C_6
REMARK    4  A    between atoms: C_6  and  C_7
REMARK    5  A    between atoms: C_6  and  O_12
REMARK    6  A    between atoms: C_7  and  C_8
REMARK    7  A    between atoms: C_9  and  C_10
REMARK    8  A    between atoms: C_9  and  C_11
REMARK    9  A    between atoms: O_12  and  C_13
REMARK   10  A    between atoms: C_13  and  C_15
REMARK   11  A    between atoms: C_15  and  C_16
REMARK   12  A    between atoms: C_15  and  C_17
REMARK   13  A    between atoms: C_18  and  O_19
REMARK   14  A    between atoms: O_19  and  C_20
REMARK   15  A    between atoms: N_24  and  O_25
REMARK   16  A    between atoms: N_29  and  O_30
REMARK                            x       y       z     vdW  Elec       q    Type
REMARK                         _______ _______ _______ _____ _____    ______ ____
ROOT
ATOM      1  C   UNL     1       3.452   3.022  18.197  0.00  0.00    +0.000 A 
ATOM      2  C   UNL     1       4.369   3.379  17.227  0.00  0.00    +0.000 A 
ATOM      3  C   UNL     1       4.619   4.700  16.867  0.00  0.00    +0.000 A 
ATOM      4  C   UNL     1       3.960   5.748  17.582  0.00  0.00    +0.000 A 
ATOM      5  C   UNL     1       3.028   5.417  18.638  0.00  0.00    +0.000 A 
ATOM      6  C   UNL     1       2.766   4.027  18.912  0.00  0.00    +0.000 A 
ATOM      7  C   UNL     1       1.780   3.580  19.967  0.00  0.00    +0.000 C 
ATOM      8  N   UNL     1       1.564   2.315  20.203  0.00  0.00    +0.000 NA
ATOM      9  C   UNL     1       1.079   4.630  20.715  0.00  0.00    +0.000 C 
ATOM     10  C   UNL     1       1.317   5.912  20.509  0.00  0.00    +0.000 C 
ATOM     11  C   UNL     1       2.300   6.418  19.511  0.00  0.00    +0.000 C 
ATOM     12  N   UNL     1       2.524   7.693  19.432  0.00  0.00    +0.000 NA
ENDROOT
BRANCH   1  14
ATOM     13  C   UNL     1       4.262   0.830  18.735  0.00  0.00    +0.000 C 
ATOM     14  O   UNL     1       3.179   1.692  18.402  0.00  0.00    +0.000 OA
ENDBRANCH   1  14
BRANCH   4  15
ATOM     15  O   UNL     1       4.406   6.933  17.067  0.00  0.00    +0.000 OA
ATOM     16  C   UNL     1       3.648   8.075  16.750  0.00  0.00    +0.000 C 
ENDBRANCH   4  15
BRANCH   8  17
ATOM     17  O   UNL     1       0.618   2.076  21.204  0.00  0.00    +0.000 OA
ATOM     18  H   UNL     1      -0.051   1.552  20.724  0.00  0.00    +0.000 HD
ENDBRANCH   8  17
BRANCH  12  19
ATOM     19  O   UNL     1       1.771   8.482  20.310  0.00  0.00    +0.000 OA
ATOM     20  H   UNL     1       0.974   7.938  20.451  0.00  0.00    +0.000 HD
ENDBRANCH  12  19
BRANCH   3  21
ATOM     21  C   UNL     1       5.578   4.931  15.665  0.00  0.00    +0.000 C 
BRANCH  21  22
ATOM     22  C   UNL     1       7.110   4.866  16.009  0.00  0.00    +0.000 C 
BRANCH  22  23
ATOM     23  C   UNL     1       7.495   4.820  17.461  0.00  0.00    +0.000 C 
ATOM     24  C   UNL     1       7.754   5.901  18.225  0.00  0.00    +0.000 C 
ATOM     25  C   UNL     1       7.597   7.336  17.779  0.00  0.00    +0.000 C 
ATOM     26  C   UNL     1       8.236   5.741  19.639  0.00  0.00    +0.000 C 
ENDBRANCH  22  23
ENDBRANCH  21  22
BRANCH  21  27
ATOM     27  O   UNL     1       5.288   4.049  14.554  0.00  0.00    +0.000 OA
BRANCH  27  28
ATOM     28  C   UNL     1       6.120   4.068  13.479  0.00  0.00    +0.000 C 
ATOM     29  O   UNL     1       7.026   4.877  13.299  0.00  0.00    +0.000 OA
BRANCH  28  30
ATOM     30  C   UNL     1       5.731   2.987  12.491  0.00  0.00    +0.000 C 
ATOM     31  C   UNL     1       4.512   3.427  11.682  0.00  0.00    +0.000 C 
ATOM     32  C   UNL     1       6.900   2.669  11.567  0.00  0.00    +0.000 C 
ENDBRANCH  28  30
ENDBRANCH  27  28
ENDBRANCH  21  27
ENDBRANCH   3  21
TORSDOF 10
ENDMDL
MODEL 8
REMARK VINA RESULT:      -7.1      8.708     13.725
REMARK  Name = 
REMARK  16 active torsions:
REMARK  status: ('A' for Active; 'I' for Inactive)
REMARK    1  A    between atoms: C_1  and  O_2
REMARK    2  A    between atoms: O_2  and  C_3
REMARK    3  A    between atoms: C_5  and  C_6
REMARK    4  A    between atoms: C_6  and  C_7
REMARK    5  A    between atoms: C_6  and  O_12
REMARK    6  A    between atoms: C_7  and  C_8
REMARK    7  A    between atoms: C_9  and  C_10
REMARK    8  A    between atoms: C_9  and  C_11
REMARK    9  A    between atoms: O_12  and  C_13
REMARK   10  A    between atoms: C_13  and  C_15
REMARK   11  A    between atoms: C_15  and  C_16
REMARK   12  A    between atoms: C_15  and  C_17
REMARK   13  A    between atoms: C_18  and  O_19
REMARK   14  A    between atoms: O_19  and  C_20
REMARK   15  A    between atoms: N_24  and  O_25
REMARK   16  A    between atoms: N_29  and  O_30
REMARK                            x       y       z     vdW  Elec       q    Type
REMARK                         _______ _______ _______ _____ _____    ______ ____
ROOT
ATOM      1  C   UNL     1      -4.709  12.540  19.241  0.00  0.00    +0.000 A 
ATOM      2  C   UNL     1      -4.751  13.180  20.465  0.00  0.00    +0.000 A 
ATOM      3  C   UNL     1      -3.713  13.120  21.391  0.00  0.00    +0.000 A 
ATOM      4  C   UNL     1      -2.510  12.433  21.036  0.00  0.00    +0.000 A 
ATOM      5  C   UNL     1      -2.408  11.790  19.744  0.00  0.00    +0.000 A 
ATOM      6  C   UNL     1      -3.546  11.835  18.863  0.00  0.00    +0.000 A 
ATOM      7  C   UNL     1      -3.553  11.160  17.510  0.00  0.00    +0.000 C 
ATOM      8  N   UNL     1      -4.593  11.219  16.725  0.00  0.00    +0.000 NA
ATOM      9  C   UNL     1      -2.336  10.438  17.117  0.00  0.00    +0.000 C 
ATOM     10  C   UNL     1      -1.265  10.402  17.889  0.00  0.00    +0.000 C 
ATOM     11  C   UNL     1      -1.182  11.074  19.215  0.00  0.00    +0.000 C 
ATOM     12  N   UNL     1      -0.061  11.050  19.869  0.00  0.00    +0.000 NA
ENDROOT
BRANCH   1  14
ATOM     13  C   UNL     1      -7.099  12.439  19.071  0.00  0.00    +0.000 C 
ATOM     14  O   UNL     1      -5.826  12.550  18.443  0.00  0.00    +0.000 OA
ENDBRANCH   1  14
BRANCH   4  15
ATOM     15  O   UNL     1      -1.647  12.557  22.089  0.00  0.00    +0.000 OA
ATOM     16  C   UNL     1      -1.266  11.567  23.012  0.00  0.00    +0.000 C 
ENDBRANCH   4  15
BRANCH   8  17
ATOM     17  O   UNL     1      -4.434  10.537  15.515  0.00  0.00    +0.000 OA
ATOM     18  H   UNL     1      -4.172  11.259  14.914  0.00  0.00    +0.000 HD
ENDBRANCH   8  17
BRANCH  12  19
ATOM     19  O   UNL     1       0.974  10.349  19.241  0.00  0.00    +0.000 OA
ATOM     20  H   UNL     1       1.562  10.127  19.987  0.00  0.00    +0.000 HD
ENDBRANCH  12  19
BRANCH   3  21
ATOM     21  C   UNL     1      -3.967  13.779  22.775  0.00  0.00    +0.000 C 
BRANCH  21  22
ATOM     22  C   UNL     1      -3.407  15.238  22.936  0.00  0.00    +0.000 C 
BRANCH  22  23
ATOM     23  C   UNL     1      -4.295  16.374  22.511  0.00  0.00    +0.000 C 
ATOM     24  C   UNL     1      -5.069  17.100  23.344  0.00  0.00    +0.000 C 
ATOM     25  C   UNL     1      -5.095  16.960  24.848  0.00  0.00    +0.000 C 
ATOM     26  C   UNL     1      -6.002  18.146  22.803  0.00  0.00    +0.000 C 
ENDBRANCH  22  23
ENDBRANCH  21  22
BRANCH  21  27
ATOM     27  O   UNL     1      -5.365  13.749  23.150  0.00  0.00    +0.000 OA
BRANCH  27  28
ATOM     28  C   UNL     1      -5.784  12.784  24.010  0.00  0.00    +0.000 C 
ATOM     29  O   UNL     1      -5.048  12.019  24.628  0.00  0.00    +0.000 OA
BRANCH  28  30
ATOM     30  C   UNL     1      -7.298  12.733  24.052  0.00  0.00    +0.000 C 
ATOM     31  C   UNL     1      -7.870  14.146  24.147  0.00  0.00    +0.000 C 
ATOM     32  C   UNL     1      -7.838  12.020  22.818  0.00  0.00    +0.000 C 
ENDBRANCH  28  30
ENDBRANCH  27  28
ENDBRANCH  21  27
ENDBRANCH   3  21
TORSDOF 10
ENDMDL
MODEL 9
REMARK VINA RESULT:      -7.0      6.193      9.698
REMARK  Name = 
REMARK  16 active torsions:
REMARK  status: ('A' for Active; 'I' for Inactive)
REMARK    1  A    between atoms: C_1  and  O_2
REMARK    2  A    between atoms: O_2  and  C_3
REMARK    3  A    between atoms: C_5  and  C_6
REMARK    4  A    between atoms: C_6  and  C_7
REMARK    5  A    between atoms: C_6  and  O_12
REMARK    6  A    between atoms: C_7  and  C_8
REMARK    7  A    between atoms: C_9  and  C_10
REMARK    8  A    between atoms: C_9  and  C_11
REMARK    9  A    between atoms: O_12  and  C_13
REMARK   10  A    between atoms: C_13  and  C_15
REMARK   11  A    between atoms: C_15  and  C_16
REMARK   12  A    between atoms: C_15  and  C_17
REMARK   13  A    between atoms: C_18  and  O_19
REMARK   14  A    between atoms: O_19  and  C_20
REMARK   15  A    between atoms: N_24  and  O_25
REMARK   16  A    between atoms: N_29  and  O_30
REMARK                            x       y       z     vdW  Elec       q    Type
REMARK                         _______ _______ _______ _____ _____    ______ ____
ROOT
ATOM      1  C   UNL     1      -2.922  11.526  17.638  0.00  0.00    +0.000 A 
ATOM      2  C   UNL     1      -1.556  11.378  17.781  0.00  0.00    +0.000 A 
ATOM      3  C   UNL     1      -0.876  11.684  18.957  0.00  0.00    +0.000 A 
ATOM      4  C   UNL     1      -1.627  12.097  20.101  0.00  0.00    +0.000 A 
ATOM      5  C   UNL     1      -3.066  12.218  20.007  0.00  0.00    +0.000 A 
ATOM      6  C   UNL     1      -3.696  11.950  18.740  0.00  0.00    +0.000 A 
ATOM      7  C   UNL     1      -5.186  12.088  18.529  0.00  0.00    +0.000 C 
ATOM      8  N   UNL     1      -5.737  11.834  17.373  0.00  0.00    +0.000 NA
ATOM      9  C   UNL     1      -5.988  12.519  19.681  0.00  0.00    +0.000 C 
ATOM     10  C   UNL     1      -5.446  12.744  20.864  0.00  0.00    +0.000 C 
ATOM     11  C   UNL     1      -3.991  12.593  21.147  0.00  0.00    +0.000 C 
ATOM     12  N   UNL     1      -3.560  12.760  22.358  0.00  0.00    +0.000 NA
ENDROOT
BRANCH   1  14
ATOM     13  C   UNL     1      -2.835  10.433  15.505  0.00  0.00    +0.000 C 
ATOM     14  O   UNL     1      -3.492  11.319  16.406  0.00  0.00    +0.000 OA
ENDBRANCH   1  14
BRANCH   4  15
ATOM     15  O   UNL     1      -0.738  12.292  21.121  0.00  0.00    +0.000 OA
ATOM     16  C   UNL     1      -0.437  11.417  22.181  0.00  0.00    +0.000 C 
ENDBRANCH   4  15
BRANCH   8  17
ATOM     17  O   UNL     1      -7.122  12.018  17.349  0.00  0.00    +0.000 OA
ATOM     18  H   UNL     1      -7.369  11.556  16.526  0.00  0.00    +0.000 HD
ENDBRANCH   8  17
BRANCH  12  19
ATOM     19  O   UNL     1      -4.544  13.101  23.294  0.00  0.00    +0.000 OA
ATOM     20  H   UNL     1      -4.095  12.931  24.144  0.00  0.00    +0.000 HD
ENDBRANCH  12  19
BRANCH   3  21
ATOM     21  C   UNL     1       0.675  11.593  18.916  0.00  0.00    +0.000 C 
BRANCH  21  22
ATOM     22  C   UNL     1       1.253  10.248  18.346  0.00  0.00    +0.000 C 
BRANCH  22  23
ATOM     23  C   UNL     1       1.405   9.096  19.300  0.00  0.00    +0.000 C 
ATOM     24  C   UNL     1       2.124   7.982  19.055  0.00  0.00    +0.000 C 
ATOM     25  C   UNL     1       2.978   7.751  17.831  0.00  0.00    +0.000 C 
ATOM     26  C   UNL     1       2.124   6.841  20.034  0.00  0.00    +0.000 C 
ENDBRANCH  22  23
ENDBRANCH  21  22
BRANCH  21  27
ATOM     27  O   UNL     1       1.273  12.715  18.223  0.00  0.00    +0.000 OA
BRANCH  27  28
ATOM     28  C   UNL     1       1.418  13.887  18.894  0.00  0.00    +0.000 C 
ATOM     29  O   UNL     1       0.548  14.744  19.020  0.00  0.00    +0.000 OA
BRANCH  28  30
ATOM     30  C   UNL     1       2.835  14.025  19.415  0.00  0.00    +0.000 C 
ATOM     31  C   UNL     1       3.371  15.424  19.118  0.00  0.00    +0.000 C 
ATOM     32  C   UNL     1       2.879  13.743  20.912  0.00  0.00    +0.000 C 
ENDBRANCH  28  30
ENDBRANCH  27  28
ENDBRANCH  21  27
ENDBRANCH   3  21
TORSDOF 10
ENDMDL
