MODEL 1
REMARK VINA RESULT:      -7.8      0.000      0.000
REMARK  Name = 
REMARK  3 active torsions:
REMARK  status: ('A' for Active; 'I' for Inactive)
REMARK    1  A    between atoms: C_1  and  O_2
REMARK    2  A    between atoms: O_2  and  C_3
REMARK    3  A    between atoms: C_10  and  C_11
REMARK                            x       y       z     vdW  Elec       q    Type
REMARK                         _______ _______ _______ _____ _____    ______ ____
ROOT
ATOM      1  C   UNL     1       3.001   3.639  19.735  0.00  0.00    +0.000 A 
ATOM      2  C   UNL     1       2.112   4.103  20.715  0.00  0.00    +0.000 A 
ATOM      3  C   UNL     1       1.706   5.441  20.738  0.00  0.00    +0.000 A 
ATOM      4  C   UNL     1       2.203   6.303  19.770  0.00  0.00    +0.000 A 
ATOM      5  C   UNL     1       3.109   5.859  18.807  0.00  0.00    +0.000 A 
ATOM      6  C   UNL     1       3.494   4.527  18.777  0.00  0.00    +0.000 A 
ATOM      7  C   UNL     1       3.476   6.975  17.928  0.00  0.00    +0.000 C 
ATOM      8  C   UNL     1       4.497   7.102  17.063  0.00  0.00    +0.000 C 
ATOM      9  C   UNL     1       2.485   8.083  18.237  0.00  0.00    +0.000 C 
ATOM     10  C   UNL     1       1.923   7.768  19.631  0.00  0.00    +0.000 C 
ENDROOT
BRANCH   8  11
ATOM     11  C   UNL     1       5.524   6.083  16.816  0.00  0.00    +0.000 A 
ATOM     12  C   UNL     1       6.527   5.845  17.756  0.00  0.00    +0.000 A 
ATOM     13  C   UNL     1       7.560   4.991  17.407  0.00  0.00    +0.000 A 
ATOM     14  N   UNL     1       7.639   4.353  16.219  0.00  0.00    +0.000 NA
ATOM     15  C   UNL     1       6.630   4.567  15.346  0.00  0.00    +0.000 A 
ATOM     16  C   UNL     1       5.564   5.413  15.595  0.00  0.00    +0.000 A 
ENDBRANCH   8  11
BRANCH   1  18
ATOM     17  C   UNL     1       3.423   1.626  18.554  0.00  0.00    +0.000 C 
ATOM     18  O   UNL     1       3.321   2.308  19.802  0.00  0.00    +0.000 OA
ENDBRANCH   1  18
TORSDOF 2
ENDMDL
MODEL 2
REMARK VINA RESULT:      -7.7      0.259      1.137
REMARK  Name = 
REMARK  3 active torsions:
REMARK  status: ('A' for Active; 'I' for Inactive)
REMARK    1  A    between atoms: C_1  and  O_2
REMARK    2  A    between atoms: O_2  and  C_3
REMARK    3  A    between atoms: C_10  and  C_11
REMARK                            x       y       z     vdW  Elec       q    Type
REMARK                         _______ _______ _______ _____ _____    ______ ____
ROOT
ATOM      1  C   UNL     1       3.316   3.502  19.687  0.00  0.00    +0.000 A 
ATOM      2  C   UNL     1       2.393   3.857  20.679  0.00  0.00    +0.000 A 
ATOM      3  C   UNL     1       1.876   5.155  20.747  0.00  0.00    +0.000 A 
ATOM      4  C   UNL     1       2.300   6.088  19.810  0.00  0.00    +0.000 A 
ATOM      5  C   UNL     1       3.240   5.753  18.835  0.00  0.00    +0.000 A 
ATOM      6  C   UNL     1       3.734   4.461  18.761  0.00  0.00    +0.000 A 
ATOM      7  C   UNL     1       3.513   6.926  17.995  0.00  0.00    +0.000 C 
ATOM      8  C   UNL     1       4.519   7.167  17.138  0.00  0.00    +0.000 C 
ATOM      9  C   UNL     1       2.433   7.936  18.338  0.00  0.00    +0.000 C 
ATOM     10  C   UNL     1       1.899   7.528  19.720  0.00  0.00    +0.000 C 
ENDROOT
BRANCH   8  11
ATOM     11  C   UNL     1       5.628   6.246  16.860  0.00  0.00    +0.000 A 
ATOM     12  C   UNL     1       5.621   5.453  15.711  0.00  0.00    +0.000 A 
ATOM     13  C   UNL     1       6.605   4.489  15.577  0.00  0.00    +0.000 A 
ATOM     14  N   UNL     1       7.591   4.290  16.479  0.00  0.00    +0.000 NA
ATOM     15  C   UNL     1       7.600   5.103  17.558  0.00  0.00    +0.000 A 
ATOM     16  C   UNL     1       6.652   6.084  17.791  0.00  0.00    +0.000 A 
ENDBRANCH   8  11
BRANCH   1  18
ATOM     17  C   UNL     1       3.617   1.478  18.487  0.00  0.00    +0.000 C 
ATOM     18  O   UNL     1       3.747   2.201  19.710  0.00  0.00    +0.000 OA
ENDBRANCH   1  18
TORSDOF 2
ENDMDL
MODEL 3
REMARK VINA RESULT:      -7.3      0.965      1.454
REMARK  Name = 
REMARK  3 active torsions:
REMARK  status: ('A' for Active; 'I' for Inactive)
REMARK    1  A    between atoms: C_1  and  O_2
REMARK    2  A    between atoms: O_2  and  C_3
REMARK    3  A    between atoms: C_10  and  C_11
REMARK                            x       y       z     vdW  Elec       q    Type
REMARK                         _______ _______ _______ _____ _____    ______ ____
ROOT
ATOM      1  C   UNL     1       3.056   4.371  19.992  0.00  0.00    +0.000 A 
ATOM      2  C   UNL     1       2.096   4.949  20.834  0.00  0.00    +0.000 A 
ATOM      3  C   UNL     1       1.635   6.250  20.608  0.00  0.00    +0.000 A 
ATOM      4  C   UNL     1       2.152   6.960  19.533  0.00  0.00    +0.000 A 
ATOM      5  C   UNL     1       3.128   6.405  18.705  0.00  0.00    +0.000 A 
ATOM      6  C   UNL     1       3.566   5.108  18.922  0.00  0.00    +0.000 A 
ATOM      7  C   UNL     1       3.499   7.374  17.668  0.00  0.00    +0.000 C 
ATOM      8  C   UNL     1       4.562   7.404  16.845  0.00  0.00    +0.000 C 
ATOM      9  C   UNL     1       2.450   8.468  17.734  0.00  0.00    +0.000 C 
ATOM     10  C   UNL     1       1.822   8.366  19.133  0.00  0.00    +0.000 C 
ENDROOT
BRANCH   8  11
ATOM     11  C   UNL     1       5.641   6.410  16.826  0.00  0.00    +0.000 A 
ATOM     12  C   UNL     1       5.608   5.343  15.926  0.00  0.00    +0.000 A 
ATOM     13  C   UNL     1       6.562   4.349  16.056  0.00  0.00    +0.000 A 
ATOM     14  N   UNL     1       7.542   4.364  16.986  0.00  0.00    +0.000 NA
ATOM     15  C   UNL     1       7.578   5.431  17.814  0.00  0.00    +0.000 A 
ATOM     16  C   UNL     1       6.660   6.467  17.774  0.00  0.00    +0.000 A 
ENDBRANCH   8  11
BRANCH   1  18
ATOM     17  C   UNL     1       2.772   2.502  21.427  0.00  0.00    +0.000 C 
ATOM     18  O   UNL     1       3.425   3.087  20.301  0.00  0.00    +0.000 OA
ENDBRANCH   1  18
TORSDOF 2
ENDMDL
MODEL 4
REMARK VINA RESULT:      -7.0      2.746      5.638
REMARK  Name = 
REMARK  3 active torsions:
REMARK  status: ('A' for Active; 'I' for Inactive)
REMARK    1  A    between atoms: C_1  and  O_2
REMARK    2  A    between atoms: O_2  and  C_3
REMARK    3  A    between atoms: C_10  and  C_11
REMARK                            x       y       z     vdW  Elec       q    Type
REMARK                         _______ _______ _______ _____ _____    ______ ____
ROOT
ATOM      1  C   UNL     1       3.030   6.972  18.120  0.00  0.00    +0.000 A 
ATOM      2  C   UNL     1       4.016   7.685  17.425  0.00  0.00    +0.000 A 
ATOM      3  C   UNL     1       4.991   7.016  16.677  0.00  0.00    +0.000 A 
ATOM      4  C   UNL     1       4.963   5.628  16.640  0.00  0.00    +0.000 A 
ATOM      5  C   UNL     1       4.004   4.908  17.351  0.00  0.00    +0.000 A 
ATOM      6  C   UNL     1       3.029   5.576  18.075  0.00  0.00    +0.000 A 
ATOM      7  C   UNL     1       4.219   3.471  17.145  0.00  0.00    +0.000 C 
ATOM      8  C   UNL     1       3.744   2.413  17.826  0.00  0.00    +0.000 C 
ATOM      9  C   UNL     1       5.206   3.364  15.998  0.00  0.00    +0.000 C 
ATOM     10  C   UNL     1       5.922   4.722  15.931  0.00  0.00    +0.000 C 
ENDROOT
BRANCH   8  11
ATOM     11  C   UNL     1       2.864   2.492  18.998  0.00  0.00    +0.000 A 
ATOM     12  C   UNL     1       1.479   2.564  18.842  0.00  0.00    +0.000 A 
ATOM     13  C   UNL     1       0.706   2.798  19.967  0.00  0.00    +0.000 A 
ATOM     14  N   UNL     1       1.212   2.932  21.212  0.00  0.00    +0.000 NA
ATOM     15  C   UNL     1       2.551   2.811  21.340  0.00  0.00    +0.000 A 
ATOM     16  C   UNL     1       3.410   2.594  20.276  0.00  0.00    +0.000 A 
ENDBRANCH   8  11
BRANCH   1  18
ATOM     17  C   UNL     1       1.759   8.973  18.211  0.00  0.00    +0.000 C 
ATOM     18  O   UNL     1       2.120   7.730  18.810  0.00  0.00    +0.000 OA
ENDBRANCH   1  18
TORSDOF 2
ENDMDL
MODEL 5
REMARK VINA RESULT:      -6.9      2.825      5.614
REMARK  Name = 
REMARK  3 active torsions:
REMARK  status: ('A' for Active; 'I' for Inactive)
REMARK    1  A    between atoms: C_1  and  O_2
REMARK    2  A    between atoms: O_2  and  C_3
REMARK    3  A    between atoms: C_10  and  C_11
REMARK                            x       y       z     vdW  Elec       q    Type
REMARK                         _______ _______ _______ _____ _____    ______ ____
ROOT
ATOM      1  C   UNL     1       3.120   7.120  17.953  0.00  0.00    +0.000 A 
ATOM      2  C   UNL     1       4.108   7.769  17.199  0.00  0.00    +0.000 A 
ATOM      3  C   UNL     1       5.052   7.035  16.473  0.00  0.00    +0.000 A 
ATOM      4  C   UNL     1       4.992   5.648  16.517  0.00  0.00    +0.000 A 
ATOM      5  C   UNL     1       4.030   4.993  17.285  0.00  0.00    +0.000 A 
ATOM      6  C   UNL     1       3.085   5.725  17.987  0.00  0.00    +0.000 A 
ATOM      7  C   UNL     1       4.208   3.542  17.158  0.00  0.00    +0.000 C 
ATOM      8  C   UNL     1       3.723   2.537  17.907  0.00  0.00    +0.000 C 
ATOM      9  C   UNL     1       5.170   3.346  16.001  0.00  0.00    +0.000 C 
ATOM     10  C   UNL     1       5.916   4.680  15.843  0.00  0.00    +0.000 C 
ENDROOT
BRANCH   8  11
ATOM     11  C   UNL     1       2.868   2.703  19.089  0.00  0.00    +0.000 A 
ATOM     12  C   UNL     1       3.422   2.720  20.370  0.00  0.00    +0.000 A 
ATOM     13  C   UNL     1       2.562   2.718  21.454  0.00  0.00    +0.000 A 
ATOM     14  N   UNL     1       1.215   2.729  21.346  0.00  0.00    +0.000 NA
ATOM     15  C   UNL     1       0.707   2.759  20.095  0.00  0.00    +0.000 A 
ATOM     16  C   UNL     1       1.482   2.747  18.948  0.00  0.00    +0.000 A 
ENDBRANCH   8  11
BRANCH   1  18
ATOM     17  C   UNL     1       1.827   9.109  17.913  0.00  0.00    +0.000 C 
ATOM     18  O   UNL     1       2.241   7.939  18.615  0.00  0.00    +0.000 OA
ENDBRANCH   1  18
TORSDOF 2
ENDMDL
MODEL 6
REMARK VINA RESULT:      -6.7      2.932      5.591
REMARK  Name = 
REMARK  3 active torsions:
REMARK  status: ('A' for Active; 'I' for Inactive)
REMARK    1  A    between atoms: C_1  and  O_2
REMARK    2  A    between atoms: O_2  and  C_3
REMARK    3  A    between atoms: C_10  and  C_11
REMARK                            x       y       z     vdW  Elec       q    Type
REMARK                         _______ _______ _______ _____ _____    ______ ____
ROOT
ATOM      1  C   UNL     1       5.809   4.210  14.938  0.00  0.00    +0.000 A 
ATOM      2  C   UNL     1       6.866   5.074  14.619  0.00  0.00    +0.000 A 
ATOM      3  C   UNL     1       7.524   5.801  15.617  0.00  0.00    +0.000 A 
ATOM      4  C   UNL     1       7.106   5.651  16.932  0.00  0.00    +0.000 A 
ATOM      5  C   UNL     1       6.038   4.816  17.258  0.00  0.00    +0.000 A 
ATOM      6  C   UNL     1       5.402   4.083  16.268  0.00  0.00    +0.000 A 
ATOM      7  C   UNL     1       5.806   4.860  18.706  0.00  0.00    +0.000 C 
ATOM      8  C   UNL     1       4.746   4.461  19.431  0.00  0.00    +0.000 C 
ATOM      9  C   UNL     1       7.018   5.557  19.295  0.00  0.00    +0.000 C 
ATOM     10  C   UNL     1       7.649   6.351  18.140  0.00  0.00    +0.000 C 
ENDROOT
BRANCH   8  11
ATOM     11  C   UNL     1       3.521   3.871  18.877  0.00  0.00    +0.000 A 
ATOM     12  C   UNL     1       2.521   4.684  18.341  0.00  0.00    +0.000 A 
ATOM     13  C   UNL     1       1.322   4.093  17.981  0.00  0.00    +0.000 A 
ATOM     14  N   UNL     1       1.073   2.770  18.091  0.00  0.00    +0.000 NA
ATOM     15  C   UNL     1       2.075   2.001  18.569  0.00  0.00    +0.000 A 
ATOM     16  C   UNL     1       3.303   2.498  18.972  0.00  0.00    +0.000 A 
ENDBRANCH   8  11
BRANCH   1  18
ATOM     17  C   UNL     1       6.028   3.481  12.691  0.00  0.00    +0.000 C 
ATOM     18  O   UNL     1       5.246   3.541  13.883  0.00  0.00    +0.000 OA
ENDBRANCH   1  18
TORSDOF 2
ENDMDL
MODEL 7
REMARK VINA RESULT:      -6.7      1.906      3.601
REMARK  Name = 
REMARK  3 active torsions:
REMARK  status: ('A' for Active; 'I' for Inactive)
REMARK    1  A    between atoms: C_1  and  O_2
REMARK    2  A    between atoms: O_2  and  C_3
REMARK    3  A    between atoms: C_10  and  C_11
REMARK                            x       y       z     vdW  Elec       q    Type
REMARK                         _______ _______ _______ _____ _____    ______ ____
ROOT
ATOM      1  C   UNL     1       2.291   6.043  20.019  0.00  0.00    +0.000 A 
ATOM      2  C   UNL     1       1.115   5.407  20.441  0.00  0.00    +0.000 A 
ATOM      3  C   UNL     1       0.897   4.052  20.171  0.00  0.00    +0.000 A 
ATOM      4  C   UNL     1       1.870   3.348  19.474  0.00  0.00    +0.000 A 
ATOM      5  C   UNL     1       3.031   3.977  19.026  0.00  0.00    +0.000 A 
ATOM      6  C   UNL     1       3.251   5.316  19.312  0.00  0.00    +0.000 A 
ATOM      7  C   UNL     1       3.869   3.007  18.312  0.00  0.00    +0.000 C 
ATOM      8  C   UNL     1       4.910   3.199  17.484  0.00  0.00    +0.000 C 
ATOM      9  C   UNL     1       3.273   1.646  18.620  0.00  0.00    +0.000 C 
ATOM     10  C   UNL     1       1.824   1.910  19.059  0.00  0.00    +0.000 C 
ENDROOT
BRANCH   8  11
ATOM     11  C   UNL     1       5.446   4.508  17.094  0.00  0.00    +0.000 A 
ATOM     12  C   UNL     1       6.528   5.064  17.777  0.00  0.00    +0.000 A 
ATOM     13  C   UNL     1       6.892   6.366  17.477  0.00  0.00    +0.000 A 
ATOM     14  N   UNL     1       6.278   7.121  16.539  0.00  0.00    +0.000 NA
ATOM     15  C   UNL     1       5.264   6.541  15.861  0.00  0.00    +0.000 A 
ATOM     16  C   UNL     1       4.816   5.253  16.099  0.00  0.00    +0.000 A 
ENDBRANCH   8  11
BRANCH   1  18
ATOM     17  C   UNL     1       1.280   7.946  21.011  0.00  0.00    +0.000 C 
ATOM     18  O   UNL     1       2.403   7.369  20.347  0.00  0.00    +0.000 OA
ENDBRANCH   1  18
TORSDOF 2
ENDMDL
MODEL 8
REMARK VINA RESULT:      -6.7      2.300      4.775
REMARK  Name = 
REMARK  3 active torsions:
REMARK  status: ('A' for Active; 'I' for Inactive)
REMARK    1  A    between atoms: C_1  and  O_2
REMARK    2  A    between atoms: O_2  and  C_3
REMARK    3  A    between atoms: C_10  and  C_11
REMARK                            x       y       z     vdW  Elec       q    Type
REMARK                         _______ _______ _______ _____ _____    ______ ____
ROOT
ATOM      1  C   UNL     1       4.991   5.248  17.567  0.00  0.00    +0.000 A 
ATOM      2  C   UNL     1       5.164   6.289  16.645  0.00  0.00    +0.000 A 
ATOM      3  C   UNL     1       4.375   7.443  16.711  0.00  0.00    +0.000 A 
ATOM      4  C   UNL     1       3.414   7.534  17.709  0.00  0.00    +0.000 A 
ATOM      5  C   UNL     1       3.215   6.493  18.614  0.00  0.00    +0.000 A 
ATOM      6  C   UNL     1       4.011   5.360  18.556  0.00  0.00    +0.000 A 
ATOM      7  C   UNL     1       2.135   6.850  19.541  0.00  0.00    +0.000 C 
ATOM      8  C   UNL     1       1.416   6.081  20.377  0.00  0.00    +0.000 C 
ATOM      9  C   UNL     1       1.886   8.332  19.329  0.00  0.00    +0.000 C 
ATOM     10  C   UNL     1       2.452   8.659  17.939  0.00  0.00    +0.000 C 
ENDROOT
BRANCH   8  11
ATOM     11  C   UNL     1       1.571   4.630  20.532  0.00  0.00    +0.000 A 
ATOM     12  C   UNL     1       2.379   4.106  21.543  0.00  0.00    +0.000 A 
ATOM     13  C   UNL     1       2.620   2.743  21.546  0.00  0.00    +0.000 A 
ATOM     14  N   UNL     1       2.095   1.884  20.645  0.00  0.00    +0.000 NA
ATOM     15  C   UNL     1       1.280   2.413  19.706  0.00  0.00    +0.000 A 
ATOM     16  C   UNL     1       0.991   3.763  19.608  0.00  0.00    +0.000 A 
ENDBRANCH   8  11
BRANCH   1  18
ATOM     17  C   UNL     1       7.164   4.468  17.022  0.00  0.00    +0.000 C 
ATOM     18  O   UNL     1       5.825   4.171  17.414  0.00  0.00    +0.000 OA
ENDBRANCH   1  18
TORSDOF 2
ENDMDL
MODEL 9
REMARK VINA RESULT:      -6.7      2.660      4.824
REMARK  Name = 
REMARK  3 active torsions:
REMARK  status: ('A' for Active; 'I' for Inactive)
REMARK    1  A    between atoms: C_1  and  O_2
REMARK    2  A    between atoms: O_2  and  C_3
REMARK    3  A    between atoms: C_10  and  C_11
REMARK                            x       y       z     vdW  Elec       q    Type
REMARK                         _______ _______ _______ _____ _____    ______ ____
ROOT
ATOM      1  C   UNL     1       1.706   3.528  19.332  0.00  0.00    +0.000 A 
ATOM      2  C   UNL     1       2.075   2.385  18.610  0.00  0.00    +0.000 A 
ATOM      3  C   UNL     1       3.015   2.462  17.577  0.00  0.00    +0.000 A 
ATOM      4  C   UNL     1       3.573   3.698  17.278  0.00  0.00    +0.000 A 
ATOM      5  C   UNL     1       3.193   4.846  17.972  0.00  0.00    +0.000 A 
ATOM      6  C   UNL     1       2.275   4.761  19.007  0.00  0.00    +0.000 A 
ATOM      7  C   UNL     1       3.925   6.003  17.443  0.00  0.00    +0.000 C 
ATOM      8  C   UNL     1       3.697   7.319  17.590  0.00  0.00    +0.000 C 
ATOM      9  C   UNL     1       5.022   5.428  16.566  0.00  0.00    +0.000 C 
ATOM     10  C   UNL     1       4.567   4.007  16.201  0.00  0.00    +0.000 C 
ENDROOT
BRANCH   8  11
ATOM     11  C   UNL     1       2.587   7.902  18.354  0.00  0.00    +0.000 A 
ATOM     12  C   UNL     1       1.750   8.857  17.774  0.00  0.00    +0.000 A 
ATOM     13  C   UNL     1       0.823   9.491  18.584  0.00  0.00    +0.000 A 
ATOM     14  N   UNL     1       0.659   9.218  19.896  0.00  0.00    +0.000 NA
ATOM     15  C   UNL     1       1.451   8.256  20.420  0.00  0.00    +0.000 A 
ATOM     16  C   UNL     1       2.418   7.578  19.699  0.00  0.00    +0.000 A 
ENDBRANCH   8  11
BRANCH   1  18
ATOM     17  C   UNL     1       1.288   2.776  21.543  0.00  0.00    +0.000 C 
ATOM     18  O   UNL     1       0.786   3.332  20.329  0.00  0.00    +0.000 OA
ENDBRANCH   1  18
TORSDOF 2
ENDMDL
