MODEL 1
REMARK VINA RESULT:      -8.4      0.000      0.000
REMARK  Name = 
REMARK  7 active torsions:
REMARK  status: ('A' for Active; 'I' for Inactive)
REMARK    1  A    between atoms: C_1  and  C_2
REMARK    2  A    between atoms: C_7  and  C_8
REMARK    3  A    between atoms: N_10  and  C_11
REMARK    4  A    between atoms: C_11  and  C_12
REMARK    5  A    between atoms: C_15  and  C_16
REMARK    6  A    between atoms: C_25  and  N_26
REMARK    7  A    between atoms: C_28  and  C_29
REMARK                            x       y       z     vdW  Elec       q    Type
REMARK                         _______ _______ _______ _____ _____    ______ ____
ROOT
ATOM      1  C   UNL     1       0.219   8.674  21.388  0.00  0.00    +0.000 C 
ATOM      2  O   UNL     1      -0.718   7.991  21.807  0.00  0.00    +0.000 OA
ATOM      3  N   UNL     1       1.379   8.098  20.908  0.00  0.00    +0.000 N 
ATOM      4  H   UNL     1       2.096   8.720  20.558  0.00  0.00    +0.000 HD
ENDROOT
BRANCH   1  11
ATOM      5  C   UNL     1      -0.447  16.251  22.008  0.00  0.00    +0.000 C 
ATOM      6  C   UNL     1      -0.136  14.834  21.611  0.00  0.00    +0.000 A 
ATOM      7  N   UNL     1       0.630  14.737  20.499  0.00  0.00    +0.000 NA
ATOM      8  N   UNL     1       0.976  13.573  20.046  0.00  0.00    +0.000 NA
ATOM      9  C   UNL     1       0.564  12.477  20.697  0.00  0.00    +0.000 A 
ATOM     10  S   UNL     1       1.020  10.964  20.107  0.00  0.00    +0.000 S 
ATOM     11  C   UNL     1       0.191  10.141  21.358  0.00  0.00    +0.000 A 
ATOM     12  C   UNL     1      -0.434  11.046  22.215  0.00  0.00    +0.000 A 
ATOM     13  C   UNL     1      -0.225  12.441  21.843  0.00  0.00    +0.000 A 
ATOM     14  C   UNL     1      -0.611  13.722  22.347  0.00  0.00    +0.000 A 
ATOM     15  C   UNL     1      -1.456  13.988  23.564  0.00  0.00    +0.000 C 
BRANCH  12  16
ATOM     16  N   UNL     1      -1.152  10.623  23.279  0.00  0.00    +0.000 N 
ATOM     17  H   UNL     1      -1.159   9.636  23.549  0.00  0.00    +0.000 HD
ATOM     18  H   UNL     1      -1.785  11.189  23.826  0.00  0.00    +0.000 HD
ENDBRANCH  12  16
ENDBRANCH   1  11
BRANCH   3  19
ATOM     19  C   UNL     1       1.610   6.679  20.764  0.00  0.00    +0.000 C 
BRANCH  19  20
ATOM     20  C   UNL     1       2.604   6.391  19.662  0.00  0.00    +0.000 A 
ATOM     21  C   UNL     1       3.398   5.242  19.713  0.00  0.00    +0.000 A 
ATOM     22  C   UNL     1       4.295   4.941  18.679  0.00  0.00    +0.000 A 
ATOM     23  C   UNL     1       4.430   5.762  17.542  0.00  0.00    +0.000 A 
ATOM     24  C   UNL     1       3.631   6.919  17.509  0.00  0.00    +0.000 A 
ATOM     25  C   UNL     1       2.739   7.232  18.551  0.00  0.00    +0.000 A 
BRANCH  23  26
ATOM     26  C   UNL     1       5.363   5.399  16.444  0.00  0.00    +0.000 A 
ATOM     27  C   UNL     1       4.978   4.507  15.426  0.00  0.00    +0.000 A 
ATOM     28  C   UNL     1       5.870   4.133  14.417  0.00  0.00    +0.000 A 
ATOM     29  C   UNL     1       7.139   4.678  14.432  0.00  0.00    +0.000 A 
ATOM     30  N   UNL     1       7.558   5.552  15.366  0.00  0.00    +0.000 NA
ATOM     31  C   UNL     1       6.673   5.885  16.341  0.00  0.00    +0.000 A 
ATOM     32  F   UNL     1       7.135   6.743  17.267  0.00  0.00    +0.000 F 
ENDBRANCH  23  26
ENDBRANCH  19  20
ENDBRANCH   3  19
TORSDOF 5
ENDMDL
MODEL 2
REMARK VINA RESULT:      -8.4      3.465      5.034
REMARK  Name = 
REMARK  7 active torsions:
REMARK  status: ('A' for Active; 'I' for Inactive)
REMARK    1  A    between atoms: C_1  and  C_2
REMARK    2  A    between atoms: C_7  and  C_8
REMARK    3  A    between atoms: N_10  and  C_11
REMARK    4  A    between atoms: C_11  and  C_12
REMARK    5  A    between atoms: C_15  and  C_16
REMARK    6  A    between atoms: C_25  and  N_26
REMARK    7  A    between atoms: C_28  and  C_29
REMARK                            x       y       z     vdW  Elec       q    Type
REMARK                         _______ _______ _______ _____ _____    ______ ____
ROOT
ATOM      1  C   UNL     1      -0.262  12.194  20.704  0.00  0.00    +0.000 C 
ATOM      2  O   UNL     1       0.770  12.775  21.048  0.00  0.00    +0.000 OA
ATOM      3  N   UNL     1      -0.299  11.386  19.584  0.00  0.00    +0.000 N 
ATOM      4  H   UNL     1      -1.173  10.921  19.376  0.00  0.00    +0.000 HD
ENDROOT
BRANCH   1  11
ATOM      5  C   UNL     1      -7.201  13.113  23.742  0.00  0.00    +0.000 C 
ATOM      6  C   UNL     1      -5.757  12.813  23.449  0.00  0.00    +0.000 A 
ATOM      7  N   UNL     1      -5.091  12.273  24.496  0.00  0.00    +0.000 NA
ATOM      8  N   UNL     1      -3.838  11.963  24.382  0.00  0.00    +0.000 NA
ATOM      9  C   UNL     1      -3.221  12.184  23.214  0.00  0.00    +0.000 A 
ATOM     10  S   UNL     1      -1.592  11.775  23.066  0.00  0.00    +0.000 S 
ATOM     11  C   UNL     1      -1.527  12.302  21.439  0.00  0.00    +0.000 A 
ATOM     12  C   UNL     1      -2.766  12.795  21.030  0.00  0.00    +0.000 A 
ATOM     13  C   UNL     1      -3.789  12.732  22.067  0.00  0.00    +0.000 A 
ATOM     14  C   UNL     1      -5.171  13.079  22.188  0.00  0.00    +0.000 A 
ATOM     15  C   UNL     1      -6.039  13.684  21.118  0.00  0.00    +0.000 C 
BRANCH  12  16
ATOM     16  N   UNL     1      -2.952  13.270  19.779  0.00  0.00    +0.000 N 
ATOM     17  H   UNL     1      -3.324  14.210  19.623  0.00  0.00    +0.000 HD
ATOM     18  H   UNL     1      -2.836  12.743  18.925  0.00  0.00    +0.000 HD
ENDBRANCH  12  16
ENDBRANCH   1  11
BRANCH   3  19
ATOM     19  C   UNL     1       0.834  11.062  18.748  0.00  0.00    +0.000 C 
BRANCH  19  20
ATOM     20  C   UNL     1       1.303   9.643  18.979  0.00  0.00    +0.000 A 
ATOM     21  C   UNL     1       1.851   8.903  17.928  0.00  0.00    +0.000 A 
ATOM     22  C   UNL     1       2.326   7.602  18.136  0.00  0.00    +0.000 A 
ATOM     23  C   UNL     1       2.290   6.985  19.402  0.00  0.00    +0.000 A 
ATOM     24  C   UNL     1       1.728   7.738  20.449  0.00  0.00    +0.000 A 
ATOM     25  C   UNL     1       1.238   9.041  20.242  0.00  0.00    +0.000 A 
BRANCH  23  26
ATOM     26  C   UNL     1       2.835   5.616  19.602  0.00  0.00    +0.000 A 
ATOM     27  C   UNL     1       4.148   5.291  19.213  0.00  0.00    +0.000 A 
ATOM     28  C   UNL     1       4.645   3.994  19.362  0.00  0.00    +0.000 A 
ATOM     29  C   UNL     1       3.819   3.038  19.919  0.00  0.00    +0.000 A 
ATOM     30  N   UNL     1       2.563   3.293  20.329  0.00  0.00    +0.000 NA
ATOM     31  C   UNL     1       2.103   4.560  20.159  0.00  0.00    +0.000 A 
ATOM     32  F   UNL     1       0.838   4.770  20.560  0.00  0.00    +0.000 F 
ENDBRANCH  23  26
ENDBRANCH  19  20
ENDBRANCH   3  19
TORSDOF 5
ENDMDL
MODEL 3
REMARK VINA RESULT:      -8.3      3.290      4.812
REMARK  Name = 
REMARK  7 active torsions:
REMARK  status: ('A' for Active; 'I' for Inactive)
REMARK    1  A    between atoms: C_1  and  C_2
REMARK    2  A    between atoms: C_7  and  C_8
REMARK    3  A    between atoms: N_10  and  C_11
REMARK    4  A    between atoms: C_11  and  C_12
REMARK    5  A    between atoms: C_15  and  C_16
REMARK    6  A    between atoms: C_25  and  N_26
REMARK    7  A    between atoms: C_28  and  C_29
REMARK                            x       y       z     vdW  Elec       q    Type
REMARK                         _______ _______ _______ _____ _____    ______ ____
ROOT
ATOM      1  C   UNL     1       0.052  11.913  20.727  0.00  0.00    +0.000 C 
ATOM      2  O   UNL     1       1.124  12.331  21.171  0.00  0.00    +0.000 OA
ATOM      3  N   UNL     1      -0.016  11.203  19.544  0.00  0.00    +0.000 N 
ATOM      4  H   UNL     1      -0.926  10.870  19.254  0.00  0.00    +0.000 HD
ENDROOT
BRANCH   1  11
ATOM      5  C   UNL     1      -6.900  13.461  23.466  0.00  0.00    +0.000 C 
ATOM      6  C   UNL     1      -5.486  13.010  23.227  0.00  0.00    +0.000 A 
ATOM      7  N   UNL     1      -4.949  12.331  24.267  0.00  0.00    +0.000 NA
ATOM      8  N   UNL     1      -3.735  11.882  24.195  0.00  0.00    +0.000 NA
ATOM      9  C   UNL     1      -3.030  12.100  23.077  0.00  0.00    +0.000 A 
ATOM     10  S   UNL     1      -1.453  11.510  22.985  0.00  0.00    +0.000 S 
ATOM     11  C   UNL     1      -1.233  12.125  21.403  0.00  0.00    +0.000 A 
ATOM     12  C   UNL     1      -2.381  12.786  20.966  0.00  0.00    +0.000 A 
ATOM     13  C   UNL     1      -3.463  12.782  21.944  0.00  0.00    +0.000 A 
ATOM     14  C   UNL     1      -4.800  13.282  22.018  0.00  0.00    +0.000 A 
ATOM     15  C   UNL     1      -5.529  14.051  20.950  0.00  0.00    +0.000 C 
BRANCH  12  16
ATOM     16  N   UNL     1      -2.438  13.356  19.743  0.00  0.00    +0.000 N 
ATOM     17  H   UNL     1      -3.276  13.855  19.434  0.00  0.00    +0.000 HD
ATOM     18  H   UNL     1      -1.737  13.274  19.020  0.00  0.00    +0.000 HD
ENDBRANCH  12  16
ENDBRANCH   1  11
BRANCH   3  19
ATOM     19  C   UNL     1       1.118  10.801  18.743  0.00  0.00    +0.000 C 
BRANCH  19  20
ATOM     20  C   UNL     1       1.493   9.359  19.000  0.00  0.00    +0.000 A 
ATOM     21  C   UNL     1       1.310   8.800  20.268  0.00  0.00    +0.000 A 
ATOM     22  C   UNL     1       1.615   7.454  20.510  0.00  0.00    +0.000 A 
ATOM     23  C   UNL     1       2.100   6.602  19.499  0.00  0.00    +0.000 A 
ATOM     24  C   UNL     1       2.286   7.181  18.231  0.00  0.00    +0.000 A 
ATOM     25  C   UNL     1       1.995   8.535  17.986  0.00  0.00    +0.000 A 
BRANCH  23  26
ATOM     26  C   UNL     1       2.380   5.169  19.776  0.00  0.00    +0.000 A 
ATOM     27  C   UNL     1       1.367   4.303  20.230  0.00  0.00    +0.000 A 
ATOM     28  C   UNL     1       1.641   2.966  20.531  0.00  0.00    +0.000 A 
ATOM     29  C   UNL     1       2.931   2.508  20.354  0.00  0.00    +0.000 A 
ATOM     30  N   UNL     1       3.936   3.281  19.903  0.00  0.00    +0.000 NA
ATOM     31  C   UNL     1       3.642   4.579  19.632  0.00  0.00    +0.000 A 
ATOM     32  F   UNL     1       4.676   5.324  19.206  0.00  0.00    +0.000 F 
ENDBRANCH  23  26
ENDBRANCH  19  20
ENDBRANCH   3  19
TORSDOF 5
ENDMDL
MODEL 4
REMARK VINA RESULT:      -8.2      3.166      4.549
REMARK  Name = 
REMARK  7 active torsions:
REMARK  status: ('A' for Active; 'I' for Inactive)
REMARK    1  A    between atoms: C_1  and  C_2
REMARK    2  A    between atoms: C_7  and  C_8
REMARK    3  A    between atoms: N_10  and  C_11
REMARK    4  A    between atoms: C_11  and  C_12
REMARK    5  A    between atoms: C_15  and  C_16
REMARK    6  A    between atoms: C_25  and  N_26
REMARK    7  A    between atoms: C_28  and  C_29
REMARK                            x       y       z     vdW  Elec       q    Type
REMARK                         _______ _______ _______ _____ _____    ______ ____
ROOT
ATOM      1  C   UNL     1       0.313  11.977  20.634  0.00  0.00    +0.000 C 
ATOM      2  O   UNL     1       1.363  12.445  21.079  0.00  0.00    +0.000 OA
ATOM      3  N   UNL     1       0.289  11.213  19.484  0.00  0.00    +0.000 N 
ATOM      4  H   UNL     1      -0.606  10.842  19.192  0.00  0.00    +0.000 HD
ENDROOT
BRANCH   1  11
ATOM      5  C   UNL     1      -6.714  13.504  23.189  0.00  0.00    +0.000 C 
ATOM      6  C   UNL     1      -5.294  13.052  22.985  0.00  0.00    +0.000 A 
ATOM      7  N   UNL     1      -4.791  12.356  24.030  0.00  0.00    +0.000 NA
ATOM      8  N   UNL     1      -3.577  11.903  23.987  0.00  0.00    +0.000 NA
ATOM      9  C   UNL     1      -2.838  12.137  22.894  0.00  0.00    +0.000 A 
ATOM     10  S   UNL     1      -1.261  11.543  22.839  0.00  0.00    +0.000 S 
ATOM     11  C   UNL     1      -0.991  12.183  21.275  0.00  0.00    +0.000 A 
ATOM     12  C   UNL     1      -2.124  12.854  20.815  0.00  0.00    +0.000 A 
ATOM     13  C   UNL     1      -3.235  12.838  21.759  0.00  0.00    +0.000 A 
ATOM     14  C   UNL     1      -4.572  13.342  21.801  0.00  0.00    +0.000 A 
ATOM     15  C   UNL     1      -5.267  14.130  20.724  0.00  0.00    +0.000 C 
BRANCH  12  16
ATOM     16  N   UNL     1      -2.143  13.444  19.599  0.00  0.00    +0.000 N 
ATOM     17  H   UNL     1      -1.805  14.402  19.474  0.00  0.00    +0.000 HD
ATOM     18  H   UNL     1      -2.552  13.055  18.762  0.00  0.00    +0.000 HD
ENDBRANCH  12  16
ENDBRANCH   1  11
BRANCH   3  19
ATOM     19  C   UNL     1       1.450  10.809  18.724  0.00  0.00    +0.000 C 
BRANCH  19  20
ATOM     20  C   UNL     1       1.706   9.324  18.856  0.00  0.00    +0.000 A 
ATOM     21  C   UNL     1       2.157   8.588  17.757  0.00  0.00    +0.000 A 
ATOM     22  C   UNL     1       2.436   7.220  17.874  0.00  0.00    +0.000 A 
ATOM     23  C   UNL     1       2.294   6.528  19.092  0.00  0.00    +0.000 A 
ATOM     24  C   UNL     1       1.831   7.280  20.187  0.00  0.00    +0.000 A 
ATOM     25  C   UNL     1       1.537   8.651  20.072  0.00  0.00    +0.000 A 
BRANCH  23  26
ATOM     26  C   UNL     1       2.633   5.085  19.196  0.00  0.00    +0.000 A 
ATOM     27  C   UNL     1       1.651   4.092  19.021  0.00  0.00    +0.000 A 
ATOM     28  C   UNL     1       1.962   2.737  19.161  0.00  0.00    +0.000 A 
ATOM     29  C   UNL     1       3.266   2.392  19.457  0.00  0.00    +0.000 A 
ATOM     30  N   UNL     1       4.252   3.294  19.615  0.00  0.00    +0.000 NA
ATOM     31  C   UNL     1       3.916   4.604  19.487  0.00  0.00    +0.000 A 
ATOM     32  F   UNL     1       4.923   5.475  19.673  0.00  0.00    +0.000 F 
ENDBRANCH  23  26
ENDBRANCH  19  20
ENDBRANCH   3  19
TORSDOF 5
ENDMDL
MODEL 5
REMARK VINA RESULT:      -8.2      0.898      1.264
REMARK  Name = 
REMARK  7 active torsions:
REMARK  status: ('A' for Active; 'I' for Inactive)
REMARK    1  A    between atoms: C_1  and  C_2
REMARK    2  A    between atoms: C_7  and  C_8
REMARK    3  A    between atoms: N_10  and  C_11
REMARK    4  A    between atoms: C_11  and  C_12
REMARK    5  A    between atoms: C_15  and  C_16
REMARK    6  A    between atoms: C_25  and  N_26
REMARK    7  A    between atoms: C_28  and  C_29
REMARK                            x       y       z     vdW  Elec       q    Type
REMARK                         _______ _______ _______ _____ _____    ______ ____
ROOT
ATOM      1  C   UNL     1       0.064   8.805  21.238  0.00  0.00    +0.000 C 
ATOM      2  O   UNL     1      -0.730   8.152  21.919  0.00  0.00    +0.000 OA
ATOM      3  N   UNL     1       1.232   8.248  20.753  0.00  0.00    +0.000 N 
ATOM      4  H   UNL     1       1.823   8.836  20.180  0.00  0.00    +0.000 HD
ENDROOT
BRANCH   1  11
ATOM      5  C   UNL     1      -1.361  16.238  20.262  0.00  0.00    +0.000 C 
ATOM      6  C   UNL     1      -0.988  14.787  20.130  0.00  0.00    +0.000 A 
ATOM      7  N   UNL     1      -0.525  14.454  18.903  0.00  0.00    +0.000 NA
ATOM      8  N   UNL     1      -0.164  13.235  18.651  0.00  0.00    +0.000 NA
ATOM      9  C   UNL     1      -0.256  12.320  19.624  0.00  0.00    +0.000 A 
ATOM     10  S   UNL     1       0.219  10.735  19.295  0.00  0.00    +0.000 S 
ATOM     11  C   UNL     1      -0.154  10.211  20.881  0.00  0.00    +0.000 A 
ATOM     12  C   UNL     1      -0.647  11.268  21.646  0.00  0.00    +0.000 A 
ATOM     13  C   UNL     1      -0.715  12.531  20.921  0.00  0.00    +0.000 A 
ATOM     14  C   UNL     1      -1.117  13.873  21.205  0.00  0.00    +0.000 A 
ATOM     15  C   UNL     1      -1.649  14.392  22.513  0.00  0.00    +0.000 C 
BRANCH  12  16
ATOM     16  N   UNL     1      -1.010  11.089  22.935  0.00  0.00    +0.000 N 
ATOM     17  H   UNL     1      -0.945  10.168  23.377  0.00  0.00    +0.000 HD
ATOM     18  H   UNL     1      -1.441  11.784  23.529  0.00  0.00    +0.000 HD
ENDBRANCH  12  16
ENDBRANCH   1  11
BRANCH   3  19
ATOM     19  C   UNL     1       1.625   6.866  20.904  0.00  0.00    +0.000 C 
BRANCH  19  20
ATOM     20  C   UNL     1       2.543   6.428  19.785  0.00  0.00    +0.000 A 
ATOM     21  C   UNL     1       2.685   7.218  18.642  0.00  0.00    +0.000 A 
ATOM     22  C   UNL     1       3.562   6.845  17.615  0.00  0.00    +0.000 A 
ATOM     23  C   UNL     1       4.348   5.678  17.688  0.00  0.00    +0.000 A 
ATOM     24  C   UNL     1       4.188   4.888  18.841  0.00  0.00    +0.000 A 
ATOM     25  C   UNL     1       3.298   5.252  19.869  0.00  0.00    +0.000 A 
BRANCH  23  26
ATOM     26  C   UNL     1       5.297   5.326  16.600  0.00  0.00    +0.000 A 
ATOM     27  C   UNL     1       5.024   4.272  15.708  0.00  0.00    +0.000 A 
ATOM     28  C   UNL     1       5.937   3.914  14.712  0.00  0.00    +0.000 A 
ATOM     29  C   UNL     1       7.110   4.635  14.611  0.00  0.00    +0.000 A 
ATOM     30  N   UNL     1       7.417   5.666  15.420  0.00  0.00    +0.000 NA
ATOM     31  C   UNL     1       6.517   5.981  16.387  0.00  0.00    +0.000 A 
ATOM     32  F   UNL     1       6.869   7.001  17.188  0.00  0.00    +0.000 F 
ENDBRANCH  23  26
ENDBRANCH  19  20
ENDBRANCH   3  19
TORSDOF 5
ENDMDL
MODEL 6
REMARK VINA RESULT:      -8.2      3.713      5.150
REMARK  Name = 
REMARK  7 active torsions:
REMARK  status: ('A' for Active; 'I' for Inactive)
REMARK    1  A    between atoms: C_1  and  C_2
REMARK    2  A    between atoms: C_7  and  C_8
REMARK    3  A    between atoms: N_10  and  C_11
REMARK    4  A    between atoms: C_11  and  C_12
REMARK    5  A    between atoms: C_15  and  C_16
REMARK    6  A    between atoms: C_25  and  N_26
REMARK    7  A    between atoms: C_28  and  C_29
REMARK                            x       y       z     vdW  Elec       q    Type
REMARK                         _______ _______ _______ _____ _____    ______ ____
ROOT
ATOM      1  C   UNL     1      -1.536  11.945  19.072  0.00  0.00    +0.000 C 
ATOM      2  O   UNL     1      -1.763  12.100  17.870  0.00  0.00    +0.000 OA
ATOM      3  N   UNL     1      -0.322  11.465  19.525  0.00  0.00    +0.000 N 
ATOM      4  H   UNL     1      -0.198  11.388  20.526  0.00  0.00    +0.000 HD
ENDROOT
BRANCH   1  11
ATOM      5  C   UNL     1      -7.265  13.610  23.830  0.00  0.00    +0.000 C 
ATOM      6  C   UNL     1      -5.953  13.275  23.176  0.00  0.00    +0.000 A 
ATOM      7  N   UNL     1      -4.929  13.138  24.050  0.00  0.00    +0.000 NA
ATOM      8  N   UNL     1      -3.741  12.847  23.622  0.00  0.00    +0.000 NA
ATOM      9  C   UNL     1      -3.550  12.683  22.306  0.00  0.00    +0.000 A 
ATOM     10  S   UNL     1      -2.005  12.299  21.752  0.00  0.00    +0.000 S 
ATOM     11  C   UNL     1      -2.516  12.254  20.120  0.00  0.00    +0.000 A 
ATOM     12  C   UNL     1      -3.877  12.542  20.021  0.00  0.00    +0.000 A 
ATOM     13  C   UNL     1      -4.513  12.798  21.307  0.00  0.00    +0.000 A 
ATOM     14  C   UNL     1      -5.826  13.122  21.773  0.00  0.00    +0.000 A 
ATOM     15  C   UNL     1      -7.057  13.306  20.928  0.00  0.00    +0.000 C 
BRANCH  12  16
ATOM     16  N   UNL     1      -4.503  12.564  18.824  0.00  0.00    +0.000 N 
ATOM     17  H   UNL     1      -5.524  12.603  18.765  0.00  0.00    +0.000 HD
ATOM     18  H   UNL     1      -4.058  12.460  17.923  0.00  0.00    +0.000 HD
ENDBRANCH  12  16
ENDBRANCH   1  11
BRANCH   3  19
ATOM     19  C   UNL     1       0.822  11.168  18.694  0.00  0.00    +0.000 C 
BRANCH  19  20
ATOM     20  C   UNL     1       1.309   9.753  18.911  0.00  0.00    +0.000 A 
ATOM     21  C   UNL     1       1.885   9.038  17.858  0.00  0.00    +0.000 A 
ATOM     22  C   UNL     1       2.377   7.741  18.053  0.00  0.00    +0.000 A 
ATOM     23  C   UNL     1       2.332   7.104  19.309  0.00  0.00    +0.000 A 
ATOM     24  C   UNL     1       1.742   7.833  20.358  0.00  0.00    +0.000 A 
ATOM     25  C   UNL     1       1.234   9.131  20.163  0.00  0.00    +0.000 A 
BRANCH  23  26
ATOM     26  C   UNL     1       2.895   5.742  19.496  0.00  0.00    +0.000 A 
ATOM     27  C   UNL     1       4.225   5.448  19.142  0.00  0.00    +0.000 A 
ATOM     28  C   UNL     1       4.741   4.157  19.279  0.00  0.00    +0.000 A 
ATOM     29  C   UNL     1       3.916   3.174  19.789  0.00  0.00    +0.000 A 
ATOM     30  N   UNL     1       2.643   3.398  20.165  0.00  0.00    +0.000 NA
ATOM     31  C   UNL     1       2.166   4.660  20.007  0.00  0.00    +0.000 A 
ATOM     32  F   UNL     1       0.885   4.840  20.373  0.00  0.00    +0.000 F 
ENDBRANCH  23  26
ENDBRANCH  19  20
ENDBRANCH   3  19
TORSDOF 5
ENDMDL
MODEL 7
REMARK VINA RESULT:      -8.2      3.560      4.964
REMARK  Name = 
REMARK  7 active torsions:
REMARK  status: ('A' for Active; 'I' for Inactive)
REMARK    1  A    between atoms: C_1  and  C_2
REMARK    2  A    between atoms: C_7  and  C_8
REMARK    3  A    between atoms: N_10  and  C_11
REMARK    4  A    between atoms: C_11  and  C_12
REMARK    5  A    between atoms: C_15  and  C_16
REMARK    6  A    between atoms: C_25  and  N_26
REMARK    7  A    between atoms: C_28  and  C_29
REMARK                            x       y       z     vdW  Elec       q    Type
REMARK                         _______ _______ _______ _____ _____    ______ ____
ROOT
ATOM      1  C   UNL     1      -0.997  12.315  19.584  0.00  0.00    +0.000 C 
ATOM      2  O   UNL     1      -0.975  13.033  18.582  0.00  0.00    +0.000 OA
ATOM      3  N   UNL     1      -0.000  11.392  19.836  0.00  0.00    +0.000 N 
ATOM      4  H   UNL     1      -0.070  10.855  20.690  0.00  0.00    +0.000 HD
ENDROOT
BRANCH   1  11
ATOM      5  C   UNL     1      -7.129  12.793  24.101  0.00  0.00    +0.000 C 
ATOM      6  C   UNL     1      -5.758  12.641  23.500  0.00  0.00    +0.000 A 
ATOM      7  N   UNL     1      -4.794  12.369  24.410  0.00  0.00    +0.000 NA
ATOM      8  N   UNL     1      -3.565  12.211  24.030  0.00  0.00    +0.000 NA
ATOM      9  C   UNL     1      -3.273  12.320  22.727  0.00  0.00    +0.000 A 
ATOM     10  S   UNL     1      -1.674  12.110  22.234  0.00  0.00    +0.000 S 
ATOM     11  C   UNL     1      -2.064  12.373  20.589  0.00  0.00    +0.000 A 
ATOM     12  C   UNL     1      -3.427  12.627  20.440  0.00  0.00    +0.000 A 
ATOM     13  C   UNL     1      -4.166  12.599  21.697  0.00  0.00    +0.000 A 
ATOM     14  C   UNL     1      -5.523  12.776  22.110  0.00  0.00    +0.000 A 
ATOM     15  C   UNL     1      -6.698  13.083  21.222  0.00  0.00    +0.000 C 
BRANCH  12  16
ATOM     16  N   UNL     1      -3.966  12.866  19.224  0.00  0.00    +0.000 N 
ATOM     17  H   UNL     1      -3.532  13.530  18.578  0.00  0.00    +0.000 HD
ATOM     18  H   UNL     1      -4.847  12.504  18.888  0.00  0.00    +0.000 HD
ENDBRANCH  12  16
ENDBRANCH   1  11
BRANCH   3  19
ATOM     19  C   UNL     1       1.190  11.206  19.037  0.00  0.00    +0.000 C 
BRANCH  19  20
ATOM     20  C   UNL     1       1.607   9.754  18.998  0.00  0.00    +0.000 A 
ATOM     21  C   UNL     1       1.396   8.931  20.107  0.00  0.00    +0.000 A 
ATOM     22  C   UNL     1       1.742   7.573  20.071  0.00  0.00    +0.000 A 
ATOM     23  C   UNL     1       2.297   6.972  18.924  0.00  0.00    +0.000 A 
ATOM     24  C   UNL     1       2.511   7.814  17.818  0.00  0.00    +0.000 A 
ATOM     25  C   UNL     1       2.178   9.181  17.854  0.00  0.00    +0.000 A 
BRANCH  23  26
ATOM     26  C   UNL     1       2.619   5.521  18.902  0.00  0.00    +0.000 A 
ATOM     27  C   UNL     1       3.663   4.995  19.685  0.00  0.00    +0.000 A 
ATOM     28  C   UNL     1       3.993   3.638  19.631  0.00  0.00    +0.000 A 
ATOM     29  C   UNL     1       3.255   2.818  18.801  0.00  0.00    +0.000 A 
ATOM     30  N   UNL     1       2.232   3.259  18.046  0.00  0.00    +0.000 NA
ATOM     31  C   UNL     1       1.944   4.585  18.108  0.00  0.00    +0.000 A 
ATOM     32  F   UNL     1       0.932   4.990  17.323  0.00  0.00    +0.000 F 
ENDBRANCH  23  26
ENDBRANCH  19  20
ENDBRANCH   3  19
TORSDOF 5
ENDMDL
MODEL 8
REMARK VINA RESULT:      -8.1      4.222      5.371
REMARK  Name = 
REMARK  7 active torsions:
REMARK  status: ('A' for Active; 'I' for Inactive)
REMARK    1  A    between atoms: C_1  and  C_2
REMARK    2  A    between atoms: C_7  and  C_8
REMARK    3  A    between atoms: N_10  and  C_11
REMARK    4  A    between atoms: C_11  and  C_12
REMARK    5  A    between atoms: C_15  and  C_16
REMARK    6  A    between atoms: C_25  and  N_26
REMARK    7  A    between atoms: C_28  and  C_29
REMARK                            x       y       z     vdW  Elec       q    Type
REMARK                         _______ _______ _______ _____ _____    ______ ____
ROOT
ATOM      1  C   UNL     1      -1.075  10.679  18.109  0.00  0.00    +0.000 C 
ATOM      2  O   UNL     1      -1.114   9.828  17.219  0.00  0.00    +0.000 OA
ATOM      3  N   UNL     1       0.119  11.091  18.668  0.00  0.00    +0.000 N 
ATOM      4  H   UNL     1       0.077  11.812  19.376  0.00  0.00    +0.000 HD
ENDROOT
BRANCH   1  11
ATOM      5  C   UNL     1      -7.782  13.638  20.231  0.00  0.00    +0.000 C 
ATOM      6  C   UNL     1      -6.343  13.228  20.078  0.00  0.00    +0.000 A 
ATOM      7  N   UNL     1      -5.528  13.741  21.028  0.00  0.00    +0.000 NA
ATOM      8  N   UNL     1      -4.261  13.467  21.017  0.00  0.00    +0.000 NA
ATOM      9  C   UNL     1      -3.781  12.669  20.055  0.00  0.00    +0.000 A 
ATOM     10  S   UNL     1      -2.133  12.309  20.046  0.00  0.00    +0.000 S 
ATOM     11  C   UNL     1      -2.275  11.328  18.651  0.00  0.00    +0.000 A 
ATOM     12  C   UNL     1      -3.596  11.294  18.204  0.00  0.00    +0.000 A 
ATOM     13  C   UNL     1      -4.509  12.082  19.024  0.00  0.00    +0.000 A 
ATOM     14  C   UNL     1      -5.906  12.382  19.029  0.00  0.00    +0.000 A 
ATOM     15  C   UNL     1      -6.932  11.890  18.044  0.00  0.00    +0.000 C 
BRANCH  12  16
ATOM     16  N   UNL     1      -3.947  10.580  17.112  0.00  0.00    +0.000 N 
ATOM     17  H   UNL     1      -3.361   9.813  16.775  0.00  0.00    +0.000 HD
ATOM     18  H   UNL     1      -4.729  10.779  16.504  0.00  0.00    +0.000 HD
ENDBRANCH  12  16
ENDBRANCH   1  11
BRANCH   3  19
ATOM     19  C   UNL     1       1.432  10.658  18.247  0.00  0.00    +0.000 C 
BRANCH  19  20
ATOM     20  C   UNL     1       1.714   9.240  18.690  0.00  0.00    +0.000 A 
ATOM     21  C   UNL     1       1.432   8.843  19.999  0.00  0.00    +0.000 A 
ATOM     22  C   UNL     1       1.650   7.522  20.413  0.00  0.00    +0.000 A 
ATOM     23  C   UNL     1       2.144   6.535  19.538  0.00  0.00    +0.000 A 
ATOM     24  C   UNL     1       2.431   6.951  18.225  0.00  0.00    +0.000 A 
ATOM     25  C   UNL     1       2.226   8.279  17.809  0.00  0.00    +0.000 A 
BRANCH  23  26
ATOM     26  C   UNL     1       2.331   5.133  19.994  0.00  0.00    +0.000 A 
ATOM     27  C   UNL     1       1.291   4.429  20.630  0.00  0.00    +0.000 A 
ATOM     28  C   UNL     1       1.481   3.126  21.096  0.00  0.00    +0.000 A 
ATOM     29  C   UNL     1       2.714   2.535  20.902  0.00  0.00    +0.000 A 
ATOM     30  N   UNL     1       3.739   3.149  20.282  0.00  0.00    +0.000 NA
ATOM     31  C   UNL     1       3.528   4.420  19.853  0.00  0.00    +0.000 A 
ATOM     32  F   UNL     1       4.582   5.007  19.259  0.00  0.00    +0.000 F 
ENDBRANCH  23  26
ENDBRANCH  19  20
ENDBRANCH   3  19
TORSDOF 5
ENDMDL
MODEL 9
REMARK VINA RESULT:      -8.1      1.097      1.102
REMARK  Name = 
REMARK  7 active torsions:
REMARK  status: ('A' for Active; 'I' for Inactive)
REMARK    1  A    between atoms: C_1  and  C_2
REMARK    2  A    between atoms: C_7  and  C_8
REMARK    3  A    between atoms: N_10  and  C_11
REMARK    4  A    between atoms: C_11  and  C_12
REMARK    5  A    between atoms: C_15  and  C_16
REMARK    6  A    between atoms: C_25  and  N_26
REMARK    7  A    between atoms: C_28  and  C_29
REMARK                            x       y       z     vdW  Elec       q    Type
REMARK                         _______ _______ _______ _____ _____    ______ ____
ROOT
ATOM      1  C   UNL     1       1.075   9.534  21.692  0.00  0.00    +0.000 C 
ATOM      2  O   UNL     1       1.703   9.321  22.732  0.00  0.00    +0.000 OA
ATOM      3  N   UNL     1       0.875   8.544  20.750  0.00  0.00    +0.000 N 
ATOM      4  H   UNL     1       0.330   8.784  19.933  0.00  0.00    +0.000 HD
ENDROOT
BRANCH   1  11
ATOM      5  C   UNL     1      -2.513  16.202  20.742  0.00  0.00    +0.000 C 
ATOM      6  C   UNL     1      -1.643  14.978  20.648  0.00  0.00    +0.000 A 
ATOM      7  N   UNL     1      -0.792  14.996  19.596  0.00  0.00    +0.000 NA
ATOM      8  N   UNL     1       0.019  14.005  19.397  0.00  0.00    +0.000 NA
ATOM      9  C   UNL     1      -0.002  12.971  20.249  0.00  0.00    +0.000 A 
ATOM     10  S   UNL     1       1.056  11.685  19.989  0.00  0.00    +0.000 S 
ATOM     11  C   UNL     1       0.488  10.838  21.363  0.00  0.00    +0.000 A 
ATOM     12  C   UNL     1      -0.520  11.558  22.005  0.00  0.00    +0.000 A 
ATOM     13  C   UNL     1      -0.826  12.830  21.361  0.00  0.00    +0.000 A 
ATOM     14  C   UNL     1      -1.725  13.920  21.586  0.00  0.00    +0.000 A 
ATOM     15  C   UNL     1      -2.723  14.042  22.704  0.00  0.00    +0.000 C 
BRANCH  12  16
ATOM     16  N   UNL     1      -1.121  11.083  23.117  0.00  0.00    +0.000 N 
ATOM     17  H   UNL     1      -0.953  10.126  23.438  0.00  0.00    +0.000 HD
ATOM     18  H   UNL     1      -1.824  11.564  23.660  0.00  0.00    +0.000 HD
ENDBRANCH  12  16
ENDBRANCH   1  11
BRANCH   3  19
ATOM     19  C   UNL     1       1.287   7.165  20.885  0.00  0.00    +0.000 C 
BRANCH  19  20
ATOM     20  C   UNL     1       2.325   6.795  19.850  0.00  0.00    +0.000 A 
ATOM     21  C   UNL     1       3.073   5.624  19.992  0.00  0.00    +0.000 A 
ATOM     22  C   UNL     1       4.010   5.247  19.020  0.00  0.00    +0.000 A 
ATOM     23  C   UNL     1       4.232   6.012  17.858  0.00  0.00    +0.000 A 
ATOM     24  C   UNL     1       3.478   7.192  17.733  0.00  0.00    +0.000 A 
ATOM     25  C   UNL     1       2.546   7.581  18.713  0.00  0.00    +0.000 A 
BRANCH  23  26
ATOM     26  C   UNL     1       5.206   5.569  16.826  0.00  0.00    +0.000 A 
ATOM     27  C   UNL     1       4.938   4.463  15.999  0.00  0.00    +0.000 A 
ATOM     28  C   UNL     1       5.872   4.021  15.058  0.00  0.00    +0.000 A 
ATOM     29  C   UNL     1       7.063   4.711  14.946  0.00  0.00    +0.000 A 
ATOM     30  N   UNL     1       7.367   5.788  15.694  0.00  0.00    +0.000 NA
ATOM     31  C   UNL     1       6.445   6.184  16.609  0.00  0.00    +0.000 A 
ATOM     32  F   UNL     1       6.795   7.249  17.351  0.00  0.00    +0.000 F 
ENDBRANCH  23  26
ENDBRANCH  19  20
ENDBRANCH   3  19
TORSDOF 5
ENDMDL
