MODEL 1
REMARK VINA RESULT:      -7.5      0.000      0.000
REMARK  Name = 
REMARK  11 active torsions:
REMARK  status: ('A' for Active; 'I' for Inactive)
REMARK    1  A    between atoms: C_1  and  O_2
REMARK    2  A    between atoms: O_2  and  C_3
REMARK    3  A    between atoms: C_6  and  N_7
REMARK    4  A    between atoms: C_11  and  C_13
REMARK    5  A    between atoms: C_13  and  C_14
REMARK    6  A    between atoms: C_14  and  C_15
REMARK    7  A    between atoms: C_18  and  S_19
REMARK    8  A    between atoms: S_19  and  N_22
REMARK    9  A    between atoms: N_22  and  C_23
REMARK   10  A    between atoms: C_23  and  C_24
REMARK   11  A    between atoms: C_23  and  C_25
REMARK                            x       y       z     vdW  Elec       q    Type
REMARK                         _______ _______ _______ _____ _____    ______ ____
ROOT
ATOM      1  N   UNL     1       2.115   6.978  19.420  0.00  0.00    +0.000 N 
ATOM      2  C   UNL     1       2.213   6.376  20.761  0.00  0.00    +0.000 C 
ATOM      3  C   UNL     1       1.263   5.175  20.867  0.00  0.00    +0.000 C 
ATOM      4  N   UNL     1       1.506   4.216  19.778  0.00  0.00    +0.000 N 
ATOM      5  C   UNL     1       1.669   2.875  20.082  0.00  0.00    +0.000 C 
ATOM      6  O   UNL     1       1.672   2.469  21.246  0.00  0.00    +0.000 OA
ATOM      7  C   UNL     1       1.453   4.812  18.432  0.00  0.00    +0.000 C 
ATOM      8  C   UNL     1       2.362   6.054  18.305  0.00  0.00    +0.000 C 
ENDROOT
BRANCH   1  12
ATOM      9  C   UNL     1       1.152  11.045  18.825  0.00  0.00    +0.000 A 
ATOM     10  C   UNL     1       1.880  10.344  17.870  0.00  0.00    +0.000 A 
ATOM     11  C   UNL     1       2.192   8.992  18.064  0.00  0.00    +0.000 A 
ATOM     12  C   UNL     1       1.804   8.305  19.222  0.00  0.00    +0.000 A 
ATOM     13  C   UNL     1       1.081   9.041  20.173  0.00  0.00    +0.000 A 
ATOM     14  C   UNL     1       0.758  10.391  19.984  0.00  0.00    +0.000 A 
BRANCH   9  16
ATOM     15  C   UNL     1       0.404  13.141  19.613  0.00  0.00    +0.000 C 
ATOM     16  O   UNL     1       0.919  12.362  18.540  0.00  0.00    +0.000 OA
ENDBRANCH   9  16
ENDBRANCH   1  12
BRANCH   5  17
ATOM     17  C   UNL     1       1.919   1.919  18.931  0.00  0.00    +0.000 C 
BRANCH  17  18
ATOM     18  C   UNL     1       3.404   1.590  18.783  0.00  0.00    +0.000 C 
BRANCH  18  19
ATOM     19  C   UNL     1       4.131   2.700  18.058  0.00  0.00    +0.000 A 
ATOM     20  C   UNL     1       4.995   3.543  18.771  0.00  0.00    +0.000 A 
ATOM     21  C   UNL     1       5.634   4.604  18.130  0.00  0.00    +0.000 A 
ATOM     22  C   UNL     1       5.423   4.819  16.767  0.00  0.00    +0.000 A 
ATOM     23  C   UNL     1       4.560   3.994  16.046  0.00  0.00    +0.000 A 
ATOM     24  C   UNL     1       3.913   2.937  16.691  0.00  0.00    +0.000 A 
BRANCH  22  25
ATOM     25  S   UNL     1       6.212   6.193  15.966  0.00  0.00    +0.000 S 
ATOM     26  O   UNL     1       7.519   5.738  15.540  0.00  0.00    +0.000 OA
ATOM     27  O   UNL     1       5.284   6.801  15.039  0.00  0.00    +0.000 OA
BRANCH  25  28
ATOM     28  N   UNL     1       6.499   7.286  17.217  0.00  0.00    +0.000 NA
ATOM     29  H   UNL     1       5.830   7.115  17.969  0.00  0.00    +0.000 HD
BRANCH  28  30
ATOM     30  C   UNL     1       7.882   7.593  17.635  0.00  0.00    +0.000 C 
ATOM     31  C   UNL     1       8.062   9.073  17.944  0.00  0.00    +0.000 C 
ATOM     32  C   UNL     1       8.190   6.771  18.887  0.00  0.00    +0.000 C 
ENDBRANCH  28  30
ENDBRANCH  25  28
ENDBRANCH  22  25
ENDBRANCH  18  19
ENDBRANCH  17  18
ENDBRANCH   5  17
TORSDOF 8
ENDMDL
MODEL 2
REMARK VINA RESULT:      -7.3      1.483      2.024
REMARK  Name = 
REMARK  11 active torsions:
REMARK  status: ('A' for Active; 'I' for Inactive)
REMARK    1  A    between atoms: C_1  and  O_2
REMARK    2  A    between atoms: O_2  and  C_3
REMARK    3  A    between atoms: C_6  and  N_7
REMARK    4  A    between atoms: C_11  and  C_13
REMARK    5  A    between atoms: C_13  and  C_14
REMARK    6  A    between atoms: C_14  and  C_15
REMARK    7  A    between atoms: C_18  and  S_19
REMARK    8  A    between atoms: S_19  and  N_22
REMARK    9  A    between atoms: N_22  and  C_23
REMARK   10  A    between atoms: C_23  and  C_24
REMARK   11  A    between atoms: C_23  and  C_25
REMARK                            x       y       z     vdW  Elec       q    Type
REMARK                         _______ _______ _______ _____ _____    ______ ____
ROOT
ATOM      1  N   UNL     1       2.079   7.020  19.434  0.00  0.00    +0.000 N 
ATOM      2  C   UNL     1       2.061   6.426  20.781  0.00  0.00    +0.000 C 
ATOM      3  C   UNL     1       1.074   5.250  20.822  0.00  0.00    +0.000 C 
ATOM      4  N   UNL     1       1.373   4.277  19.760  0.00  0.00    +0.000 N 
ATOM      5  C   UNL     1       1.478   2.935  20.083  0.00  0.00    +0.000 C 
ATOM      6  O   UNL     1       1.384   2.537  21.245  0.00  0.00    +0.000 OA
ATOM      7  C   UNL     1       1.436   4.865  18.411  0.00  0.00    +0.000 C 
ATOM      8  C   UNL     1       2.385   6.082  18.346  0.00  0.00    +0.000 C 
ENDROOT
BRANCH   1  12
ATOM      9  C   UNL     1       1.268  11.106  18.746  0.00  0.00    +0.000 A 
ATOM     10  C   UNL     1       2.011  10.368  17.831  0.00  0.00    +0.000 A 
ATOM     11  C   UNL     1       2.272   9.011  18.055  0.00  0.00    +0.000 A 
ATOM     12  C   UNL     1       1.818   8.353  19.206  0.00  0.00    +0.000 A 
ATOM     13  C   UNL     1       1.081   9.125  20.117  0.00  0.00    +0.000 A 
ATOM     14  C   UNL     1       0.809  10.481  19.898  0.00  0.00    +0.000 A 
BRANCH   9  16
ATOM     15  C   UNL     1      -0.219  12.938  18.665  0.00  0.00    +0.000 C 
ATOM     16  O   UNL     1       1.088  12.425  18.435  0.00  0.00    +0.000 OA
ENDBRANCH   9  16
ENDBRANCH   1  12
BRANCH   5  17
ATOM     17  C   UNL     1       1.789   1.964  18.958  0.00  0.00    +0.000 C 
BRANCH  17  18
ATOM     18  C   UNL     1       3.264   1.566  18.949  0.00  0.00    +0.000 C 
BRANCH  18  19
ATOM     19  C   UNL     1       4.105   2.633  18.285  0.00  0.00    +0.000 A 
ATOM     20  C   UNL     1       5.013   3.375  19.052  0.00  0.00    +0.000 A 
ATOM     21  C   UNL     1       5.760   4.398  18.467  0.00  0.00    +0.000 A 
ATOM     22  C   UNL     1       5.612   4.674  17.107  0.00  0.00    +0.000 A 
ATOM     23  C   UNL     1       4.706   3.948  16.333  0.00  0.00    +0.000 A 
ATOM     24  C   UNL     1       3.953   2.930  16.920  0.00  0.00    +0.000 A 
BRANCH  22  25
ATOM     25  S   UNL     1       6.539   6.000  16.377  0.00  0.00    +0.000 S 
ATOM     26  O   UNL     1       5.597   6.820  15.644  0.00  0.00    +0.000 OA
ATOM     27  O   UNL     1       7.422   6.567  17.372  0.00  0.00    +0.000 OA
BRANCH  25  28
ATOM     28  N   UNL     1       7.486   5.242  15.206  0.00  0.00    +0.000 NA
ATOM     29  H   UNL     1       7.816   4.348  15.572  0.00  0.00    +0.000 HD
BRANCH  28  30
ATOM     30  C   UNL     1       7.066   5.249  13.790  0.00  0.00    +0.000 C 
ATOM     31  C   UNL     1       8.237   5.520  12.856  0.00  0.00    +0.000 C 
ATOM     32  C   UNL     1       6.466   3.879  13.469  0.00  0.00    +0.000 C 
ENDBRANCH  28  30
ENDBRANCH  25  28
ENDBRANCH  22  25
ENDBRANCH  18  19
ENDBRANCH  17  18
ENDBRANCH   5  17
TORSDOF 8
ENDMDL
MODEL 3
REMARK VINA RESULT:      -7.2      1.524      2.461
REMARK  Name = 
REMARK  11 active torsions:
REMARK  status: ('A' for Active; 'I' for Inactive)
REMARK    1  A    between atoms: C_1  and  O_2
REMARK    2  A    between atoms: O_2  and  C_3
REMARK    3  A    between atoms: C_6  and  N_7
REMARK    4  A    between atoms: C_11  and  C_13
REMARK    5  A    between atoms: C_13  and  C_14
REMARK    6  A    between atoms: C_14  and  C_15
REMARK    7  A    between atoms: C_18  and  S_19
REMARK    8  A    between atoms: S_19  and  N_22
REMARK    9  A    between atoms: N_22  and  C_23
REMARK   10  A    between atoms: C_23  and  C_24
REMARK   11  A    between atoms: C_23  and  C_25
REMARK                            x       y       z     vdW  Elec       q    Type
REMARK                         _______ _______ _______ _____ _____    ______ ____
ROOT
ATOM      1  N   UNL     1       2.085   6.938  19.394  0.00  0.00    +0.000 N 
ATOM      2  C   UNL     1       2.165   6.344  20.739  0.00  0.00    +0.000 C 
ATOM      3  C   UNL     1       1.168   5.182  20.858  0.00  0.00    +0.000 C 
ATOM      4  N   UNL     1       1.369   4.205  19.777  0.00  0.00    +0.000 N 
ATOM      5  C   UNL     1       1.480   2.862  20.092  0.00  0.00    +0.000 C 
ATOM      6  O   UNL     1       1.473   2.465  21.259  0.00  0.00    +0.000 OA
ATOM      7  C   UNL     1       1.334   4.792  18.426  0.00  0.00    +0.000 C 
ATOM      8  C   UNL     1       2.291   5.996  18.286  0.00  0.00    +0.000 C 
ENDROOT
BRANCH   1  12
ATOM      9  C   UNL     1       1.300  11.036  18.745  0.00  0.00    +0.000 A 
ATOM     10  C   UNL     1       0.847  10.402  19.897  0.00  0.00    +0.000 A 
ATOM     11  C   UNL     1       1.115   9.045  20.116  0.00  0.00    +0.000 A 
ATOM     12  C   UNL     1       1.826   8.275  19.186  0.00  0.00    +0.000 A 
ATOM     13  C   UNL     1       2.261   8.937  18.029  0.00  0.00    +0.000 A 
ATOM     14  C   UNL     1       2.004  10.295  17.804  0.00  0.00    +0.000 A 
BRANCH   9  16
ATOM     15  C   UNL     1       2.018  13.219  18.209  0.00  0.00    +0.000 C 
ATOM     16  O   UNL     1       0.968  12.356  18.627  0.00  0.00    +0.000 OA
ENDBRANCH   9  16
ENDBRANCH   1  12
BRANCH   5  17
ATOM     17  C   UNL     1       1.688   1.887  18.947  0.00  0.00    +0.000 C 
BRANCH  17  18
ATOM     18  C   UNL     1       3.158   1.498  18.797  0.00  0.00    +0.000 C 
BRANCH  18  19
ATOM     19  C   UNL     1       3.964   2.649  18.238  0.00  0.00    +0.000 A 
ATOM     20  C   UNL     1       3.860   2.970  16.877  0.00  0.00    +0.000 A 
ATOM     21  C   UNL     1       4.633   3.994  16.332  0.00  0.00    +0.000 A 
ATOM     22  C   UNL     1       5.507   4.714  17.150  0.00  0.00    +0.000 A 
ATOM     23  C   UNL     1       5.627   4.401  18.504  0.00  0.00    +0.000 A 
ATOM     24  C   UNL     1       4.858   3.369  19.047  0.00  0.00    +0.000 A 
BRANCH  22  25
ATOM     25  S   UNL     1       6.514   5.992  16.442  0.00  0.00    +0.000 S 
ATOM     26  O   UNL     1       5.871   7.253  16.748  0.00  0.00    +0.000 OA
ATOM     27  O   UNL     1       7.899   5.748  16.777  0.00  0.00    +0.000 OA
BRANCH  25  28
ATOM     28  N   UNL     1       6.331   5.784  14.779  0.00  0.00    +0.000 NA
ATOM     29  H   UNL     1       6.283   6.700  14.331  0.00  0.00    +0.000 HD
BRANCH  28  30
ATOM     30  C   UNL     1       7.114   4.753  14.067  0.00  0.00    +0.000 C 
ATOM     31  C   UNL     1       6.214   3.768  13.333  0.00  0.00    +0.000 C 
ATOM     32  C   UNL     1       8.022   5.461  13.061  0.00  0.00    +0.000 C 
ENDBRANCH  28  30
ENDBRANCH  25  28
ENDBRANCH  22  25
ENDBRANCH  18  19
ENDBRANCH  17  18
ENDBRANCH   5  17
TORSDOF 8
ENDMDL
MODEL 4
REMARK VINA RESULT:      -7.1      0.524      1.192
REMARK  Name = 
REMARK  11 active torsions:
REMARK  status: ('A' for Active; 'I' for Inactive)
REMARK    1  A    between atoms: C_1  and  O_2
REMARK    2  A    between atoms: O_2  and  C_3
REMARK    3  A    between atoms: C_6  and  N_7
REMARK    4  A    between atoms: C_11  and  C_13
REMARK    5  A    between atoms: C_13  and  C_14
REMARK    6  A    between atoms: C_14  and  C_15
REMARK    7  A    between atoms: C_18  and  S_19
REMARK    8  A    between atoms: S_19  and  N_22
REMARK    9  A    between atoms: N_22  and  C_23
REMARK   10  A    between atoms: C_23  and  C_24
REMARK   11  A    between atoms: C_23  and  C_25
REMARK                            x       y       z     vdW  Elec       q    Type
REMARK                         _______ _______ _______ _____ _____    ______ ____
ROOT
ATOM      1  N   UNL     1       2.123   6.911  19.394  0.00  0.00    +0.000 N 
ATOM      2  C   UNL     1       2.245   6.309  20.733  0.00  0.00    +0.000 C 
ATOM      3  C   UNL     1       1.286   5.116  20.860  0.00  0.00    +0.000 C 
ATOM      4  N   UNL     1       1.497   4.154  19.768  0.00  0.00    +0.000 N 
ATOM      5  C   UNL     1       1.654   2.812  20.070  0.00  0.00    +0.000 C 
ATOM      6  O   UNL     1       1.679   2.407  21.234  0.00  0.00    +0.000 OA
ATOM      7  C   UNL     1       1.421   4.750  18.423  0.00  0.00    +0.000 C 
ATOM      8  C   UNL     1       2.338   5.983  18.275  0.00  0.00    +0.000 C 
ENDROOT
BRANCH   1  12
ATOM      9  C   UNL     1       1.183  10.985  18.814  0.00  0.00    +0.000 A 
ATOM     10  C   UNL     1       1.910  10.284  17.859  0.00  0.00    +0.000 A 
ATOM     11  C   UNL     1       2.215   8.930  18.047  0.00  0.00    +0.000 A 
ATOM     12  C   UNL     1       1.820   8.240  19.201  0.00  0.00    +0.000 A 
ATOM     13  C   UNL     1       1.098   8.976  20.153  0.00  0.00    +0.000 A 
ATOM     14  C   UNL     1       0.782  10.327  19.970  0.00  0.00    +0.000 A 
BRANCH   9  16
ATOM     15  C   UNL     1      -0.408  12.700  18.498  0.00  0.00    +0.000 C 
ATOM     16  O   UNL     1       0.958  12.304  18.535  0.00  0.00    +0.000 OA
ENDBRANCH   9  16
ENDBRANCH   1  12
BRANCH   5  17
ATOM     17  C   UNL     1       1.871   1.853  18.915  0.00  0.00    +0.000 C 
BRANCH  17  18
ATOM     18  C   UNL     1       3.353   1.533  18.718  0.00  0.00    +0.000 C 
BRANCH  18  19
ATOM     19  C   UNL     1       4.052   2.655  17.985  0.00  0.00    +0.000 A 
ATOM     20  C   UNL     1       3.799   2.854  16.621  0.00  0.00    +0.000 A 
ATOM     21  C   UNL     1       4.473   3.851  15.915  0.00  0.00    +0.000 A 
ATOM     22  C   UNL     1       5.395   4.665  16.576  0.00  0.00    +0.000 A 
ATOM     23  C   UNL     1       5.663   4.473  17.932  0.00  0.00    +0.000 A 
ATOM     24  C   UNL     1       4.994   3.469  18.635  0.00  0.00    +0.000 A 
BRANCH  22  25
ATOM     25  S   UNL     1       6.276   5.908  15.664  0.00  0.00    +0.000 S 
ATOM     26  O   UNL     1       6.830   5.258  14.495  0.00  0.00    +0.000 OA
ATOM     27  O   UNL     1       5.452   7.091  15.555  0.00  0.00    +0.000 OA
BRANCH  25  28
ATOM     28  N   UNL     1       7.596   6.276  16.646  0.00  0.00    +0.000 NA
ATOM     29  H   UNL     1       8.385   6.546  16.055  0.00  0.00    +0.000 HD
BRANCH  28  30
ATOM     30  C   UNL     1       7.410   7.066  17.880  0.00  0.00    +0.000 C 
ATOM     31  C   UNL     1       8.107   6.424  19.071  0.00  0.00    +0.000 C 
ATOM     32  C   UNL     1       7.991   8.460  17.641  0.00  0.00    +0.000 C 
ENDBRANCH  28  30
ENDBRANCH  25  28
ENDBRANCH  22  25
ENDBRANCH  18  19
ENDBRANCH  17  18
ENDBRANCH   5  17
TORSDOF 8
ENDMDL
MODEL 5
REMARK VINA RESULT:      -6.5      5.918      8.773
REMARK  Name = 
REMARK  11 active torsions:
REMARK  status: ('A' for Active; 'I' for Inactive)
REMARK    1  A    between atoms: C_1  and  O_2
REMARK    2  A    between atoms: O_2  and  C_3
REMARK    3  A    between atoms: C_6  and  N_7
REMARK    4  A    between atoms: C_11  and  C_13
REMARK    5  A    between atoms: C_13  and  C_14
REMARK    6  A    between atoms: C_14  and  C_15
REMARK    7  A    between atoms: C_18  and  S_19
REMARK    8  A    between atoms: S_19  and  N_22
REMARK    9  A    between atoms: N_22  and  C_23
REMARK   10  A    between atoms: C_23  and  C_24
REMARK   11  A    between atoms: C_23  and  C_25
REMARK                            x       y       z     vdW  Elec       q    Type
REMARK                         _______ _______ _______ _____ _____    ______ ____
ROOT
ATOM      1  N   UNL     1       8.411  13.319  22.170  0.00  0.00    +0.000 N 
ATOM      2  C   UNL     1       8.567  13.850  20.805  0.00  0.00    +0.000 C 
ATOM      3  C   UNL     1       9.608  13.022  20.037  0.00  0.00    +0.000 C 
ATOM      4  N   UNL     1       9.270  11.591  20.070  0.00  0.00    +0.000 N 
ATOM      5  C   UNL     1       9.254  10.872  18.888  0.00  0.00    +0.000 C 
ATOM      6  O   UNL     1       9.462  11.410  17.798  0.00  0.00    +0.000 OA
ATOM      7  C   UNL     1       9.068  11.055  21.428  0.00  0.00    +0.000 C 
ATOM      8  C   UNL     1       8.062  11.894  22.246  0.00  0.00    +0.000 C 
ENDROOT
BRANCH   1  12
ATOM      9  C   UNL     1       8.969  15.703  25.609  0.00  0.00    +0.000 A 
ATOM     10  C   UNL     1       8.152  14.579  25.653  0.00  0.00    +0.000 A 
ATOM     11  C   UNL     1       7.974  13.783  24.514  0.00  0.00    +0.000 A 
ATOM     12  C   UNL     1       8.589  14.094  23.295  0.00  0.00    +0.000 A 
ATOM     13  C   UNL     1       9.398  15.240  23.277  0.00  0.00    +0.000 A 
ATOM     14  C   UNL     1       9.589  16.037  24.412  0.00  0.00    +0.000 A 
BRANCH   9  16
ATOM     15  C   UNL     1       9.729  17.666  26.679  0.00  0.00    +0.000 C 
ATOM     16  O   UNL     1       9.057  16.415  26.773  0.00  0.00    +0.000 OA
ENDBRANCH   9  16
ENDBRANCH   1  12
BRANCH   5  17
ATOM     17  C   UNL     1       8.899   9.399  18.965  0.00  0.00    +0.000 C 
BRANCH  17  18
ATOM     18  C   UNL     1       8.411   8.865  17.620  0.00  0.00    +0.000 C 
BRANCH  18  19
ATOM     19  C   UNL     1       7.554   7.633  17.809  0.00  0.00    +0.000 A 
ATOM     20  C   UNL     1       6.341   7.520  17.117  0.00  0.00    +0.000 A 
ATOM     21  C   UNL     1       5.513   6.416  17.318  0.00  0.00    +0.000 A 
ATOM     22  C   UNL     1       5.904   5.409  18.204  0.00  0.00    +0.000 A 
ATOM     23  C   UNL     1       7.105   5.511  18.905  0.00  0.00    +0.000 A 
ATOM     24  C   UNL     1       7.929   6.622  18.710  0.00  0.00    +0.000 A 
BRANCH  22  25
ATOM     25  S   UNL     1       4.829   4.024  18.481  0.00  0.00    +0.000 S 
ATOM     26  O   UNL     1       4.714   3.320  17.221  0.00  0.00    +0.000 OA
ATOM     27  O   UNL     1       5.230   3.345  19.693  0.00  0.00    +0.000 OA
BRANCH  25  28
ATOM     28  N   UNL     1       3.319   4.724  18.748  0.00  0.00    +0.000 NA
ATOM     29  H   UNL     1       2.591   4.051  18.503  0.00  0.00    +0.000 HD
BRANCH  28  30
ATOM     30  C   UNL     1       3.076   5.531  19.961  0.00  0.00    +0.000 C 
ATOM     31  C   UNL     1       2.386   6.848  19.633  0.00  0.00    +0.000 C 
ATOM     32  C   UNL     1       2.190   4.713  20.902  0.00  0.00    +0.000 C 
ENDBRANCH  28  30
ENDBRANCH  25  28
ENDBRANCH  22  25
ENDBRANCH  18  19
ENDBRANCH  17  18
ENDBRANCH   5  17
TORSDOF 8
ENDMDL
MODEL 6
REMARK VINA RESULT:      -6.5      1.604      2.359
REMARK  Name = 
REMARK  11 active torsions:
REMARK  status: ('A' for Active; 'I' for Inactive)
REMARK    1  A    between atoms: C_1  and  O_2
REMARK    2  A    between atoms: O_2  and  C_3
REMARK    3  A    between atoms: C_6  and  N_7
REMARK    4  A    between atoms: C_11  and  C_13
REMARK    5  A    between atoms: C_13  and  C_14
REMARK    6  A    between atoms: C_14  and  C_15
REMARK    7  A    between atoms: C_18  and  S_19
REMARK    8  A    between atoms: S_19  and  N_22
REMARK    9  A    between atoms: N_22  and  C_23
REMARK   10  A    between atoms: C_23  and  C_24
REMARK   11  A    between atoms: C_23  and  C_25
REMARK                            x       y       z     vdW  Elec       q    Type
REMARK                         _______ _______ _______ _____ _____    ______ ____
ROOT
ATOM      1  N   UNL     1       1.989   7.210  19.782  0.00  0.00    +0.000 N 
ATOM      2  C   UNL     1       1.629   6.635  21.090  0.00  0.00    +0.000 C 
ATOM      3  C   UNL     1       0.726   5.409  20.893  0.00  0.00    +0.000 C 
ATOM      4  N   UNL     1       1.350   4.438  19.982  0.00  0.00    +0.000 N 
ATOM      5  C   UNL     1       1.426   3.108  20.360  0.00  0.00    +0.000 C 
ATOM      6  O   UNL     1       1.034   2.724  21.464  0.00  0.00    +0.000 OA
ATOM      7  C   UNL     1       1.755   5.008  18.685  0.00  0.00    +0.000 C 
ATOM      8  C   UNL     1       2.626   6.273  18.847  0.00  0.00    +0.000 C 
ENDROOT
BRANCH   1  12
ATOM      9  C   UNL     1       1.211  11.238  18.784  0.00  0.00    +0.000 A 
ATOM     10  C   UNL     1       1.845  10.394  17.878  0.00  0.00    +0.000 A 
ATOM     11  C   UNL     1       2.095   9.055  18.206  0.00  0.00    +0.000 A 
ATOM     12  C   UNL     1       1.738   8.523  19.453  0.00  0.00    +0.000 A 
ATOM     13  C   UNL     1       1.111   9.400  20.350  0.00  0.00    +0.000 A 
ATOM     14  C   UNL     1       0.850  10.738  20.028  0.00  0.00    +0.000 A 
BRANCH   9  16
ATOM     15  C   UNL     1       1.444  13.533  19.284  0.00  0.00    +0.000 C 
ATOM     16  O   UNL     1       1.033  12.526  18.366  0.00  0.00    +0.000 OA
ENDBRANCH   9  16
ENDBRANCH   1  12
BRANCH   5  17
ATOM     17  C   UNL     1       2.079   2.139  19.393  0.00  0.00    +0.000 C 
BRANCH  17  18
ATOM     18  C   UNL     1       3.590   2.059  19.608  0.00  0.00    +0.000 C 
BRANCH  18  19
ATOM     19  C   UNL     1       4.313   3.036  18.709  0.00  0.00    +0.000 A 
ATOM     20  C   UNL     1       4.043   3.042  17.334  0.00  0.00    +0.000 A 
ATOM     21  C   UNL     1       4.737   3.899  16.481  0.00  0.00    +0.000 A 
ATOM     22  C   UNL     1       5.698   4.768  17.003  0.00  0.00    +0.000 A 
ATOM     23  C   UNL     1       5.984   4.768  18.368  0.00  0.00    +0.000 A 
ATOM     24  C   UNL     1       5.294   3.903  19.220  0.00  0.00    +0.000 A 
BRANCH  22  25
ATOM     25  S   UNL     1       6.602   5.831  15.906  0.00  0.00    +0.000 S 
ATOM     26  O   UNL     1       5.628   6.642  15.207  0.00  0.00    +0.000 OA
ATOM     27  O   UNL     1       7.707   6.427  16.624  0.00  0.00    +0.000 OA
BRANCH  25  28
ATOM     28  N   UNL     1       7.233   4.782  14.747  0.00  0.00    +0.000 NA
ATOM     29  H   UNL     1       7.049   3.819  15.033  0.00  0.00    +0.000 HD
BRANCH  28  30
ATOM     30  C   UNL     1       7.068   5.076  13.308  0.00  0.00    +0.000 C 
ATOM     31  C   UNL     1       8.332   5.675  12.707  0.00  0.00    +0.000 C 
ATOM     32  C   UNL     1       6.736   3.765  12.595  0.00  0.00    +0.000 C 
ENDBRANCH  28  30
ENDBRANCH  25  28
ENDBRANCH  22  25
ENDBRANCH  18  19
ENDBRANCH  17  18
ENDBRANCH   5  17
TORSDOF 8
ENDMDL
MODEL 7
REMARK VINA RESULT:      -6.5      5.339     10.800
REMARK  Name = 
REMARK  11 active torsions:
REMARK  status: ('A' for Active; 'I' for Inactive)
REMARK    1  A    between atoms: C_1  and  O_2
REMARK    2  A    between atoms: O_2  and  C_3
REMARK    3  A    between atoms: C_6  and  N_7
REMARK    4  A    between atoms: C_11  and  C_13
REMARK    5  A    between atoms: C_13  and  C_14
REMARK    6  A    between atoms: C_14  and  C_15
REMARK    7  A    between atoms: C_18  and  S_19
REMARK    8  A    between atoms: S_19  and  N_22
REMARK    9  A    between atoms: N_22  and  C_23
REMARK   10  A    between atoms: C_23  and  C_24
REMARK   11  A    between atoms: C_23  and  C_25
REMARK                            x       y       z     vdW  Elec       q    Type
REMARK                         _______ _______ _______ _____ _____    ______ ____
ROOT
ATOM      1  N   UNL     1       2.719   6.816  18.177  0.00  0.00    +0.000 N 
ATOM      2  C   UNL     1       2.173   6.280  19.436  0.00  0.00    +0.000 C 
ATOM      3  C   UNL     1       2.091   7.395  20.488  0.00  0.00    +0.000 C 
ATOM      4  N   UNL     1       1.340   8.549  19.973  0.00  0.00    +0.000 N 
ATOM      5  C   UNL     1       0.318   9.087  20.737  0.00  0.00    +0.000 C 
ATOM      6  O   UNL     1      -0.018   8.591  21.814  0.00  0.00    +0.000 OA
ATOM      7  C   UNL     1       1.848   9.070  18.692  0.00  0.00    +0.000 C 
ATOM      8  C   UNL     1       1.988   7.964  17.623  0.00  0.00    +0.000 C 
ENDROOT
BRANCH   1  12
ATOM      9  C   UNL     1       6.149   5.218  16.306  0.00  0.00    +0.000 A 
ATOM     10  C   UNL     1       5.065   4.403  16.611  0.00  0.00    +0.000 A 
ATOM     11  C   UNL     1       3.923   4.935  17.223  0.00  0.00    +0.000 A 
ATOM     12  C   UNL     1       3.836   6.290  17.568  0.00  0.00    +0.000 A 
ATOM     13  C   UNL     1       4.949   7.086  17.259  0.00  0.00    +0.000 A 
ATOM     14  C   UNL     1       6.091   6.565  16.639  0.00  0.00    +0.000 A 
BRANCH   9  16
ATOM     15  C   UNL     1       7.257   4.641  14.303  0.00  0.00    +0.000 C 
ATOM     16  O   UNL     1       7.215   4.591  15.724  0.00  0.00    +0.000 OA
ENDBRANCH   9  16
ENDBRANCH   1  12
BRANCH   5  17
ATOM     17  C   UNL     1      -0.433  10.277  20.168  0.00  0.00    +0.000 C 
BRANCH  17  18
ATOM     18  C   UNL     1      -0.275  11.517  21.047  0.00  0.00    +0.000 C 
BRANCH  18  19
ATOM     19  C   UNL     1      -1.607  11.940  21.624  0.00  0.00    +0.000 A 
ATOM     20  C   UNL     1      -2.615  12.406  20.769  0.00  0.00    +0.000 A 
ATOM     21  C   UNL     1      -3.831  12.849  21.287  0.00  0.00    +0.000 A 
ATOM     22  C   UNL     1      -4.051  12.816  22.666  0.00  0.00    +0.000 A 
ATOM     23  C   UNL     1      -3.054  12.363  23.530  0.00  0.00    +0.000 A 
ATOM     24  C   UNL     1      -1.833  11.927  23.010  0.00  0.00    +0.000 A 
BRANCH  22  25
ATOM     25  S   UNL     1      -5.588  13.416  23.321  0.00  0.00    +0.000 S 
ATOM     26  O   UNL     1      -6.307  14.023  22.220  0.00  0.00    +0.000 OA
ATOM     27  O   UNL     1      -6.189  12.389  24.142  0.00  0.00    +0.000 OA
BRANCH  25  28
ATOM     28  N   UNL     1      -5.135  14.692  24.324  0.00  0.00    +0.000 NA
ATOM     29  H   UNL     1      -4.410  14.370  24.967  0.00  0.00    +0.000 HD
BRANCH  28  30
ATOM     30  C   UNL     1      -4.953  16.049  23.768  0.00  0.00    +0.000 C 
ATOM     31  C   UNL     1      -5.248  17.127  24.802  0.00  0.00    +0.000 C 
ATOM     32  C   UNL     1      -3.503  16.176  23.299  0.00  0.00    +0.000 C 
ENDBRANCH  28  30
ENDBRANCH  25  28
ENDBRANCH  22  25
ENDBRANCH  18  19
ENDBRANCH  17  18
ENDBRANCH   5  17
TORSDOF 8
ENDMDL
MODEL 8
REMARK VINA RESULT:      -6.4      5.302     11.171
REMARK  Name = 
REMARK  11 active torsions:
REMARK  status: ('A' for Active; 'I' for Inactive)
REMARK    1  A    between atoms: C_1  and  O_2
REMARK    2  A    between atoms: O_2  and  C_3
REMARK    3  A    between atoms: C_6  and  N_7
REMARK    4  A    between atoms: C_11  and  C_13
REMARK    5  A    between atoms: C_13  and  C_14
REMARK    6  A    between atoms: C_14  and  C_15
REMARK    7  A    between atoms: C_18  and  S_19
REMARK    8  A    between atoms: S_19  and  N_22
REMARK    9  A    between atoms: N_22  and  C_23
REMARK   10  A    between atoms: C_23  and  C_24
REMARK   11  A    between atoms: C_23  and  C_25
REMARK                            x       y       z     vdW  Elec       q    Type
REMARK                         _______ _______ _______ _____ _____    ______ ____
ROOT
ATOM      1  N   UNL     1       2.373   7.387  19.179  0.00  0.00    +0.000 N 
ATOM      2  C   UNL     1       2.703   8.409  18.170  0.00  0.00    +0.000 C 
ATOM      3  C   UNL     1       1.494   9.328  17.941  0.00  0.00    +0.000 C 
ATOM      4  N   UNL     1       1.019   9.896  19.211  0.00  0.00    +0.000 N 
ATOM      5  C   UNL     1       0.808  11.261  19.304  0.00  0.00    +0.000 C 
ATOM      6  O   UNL     1       1.062  12.023  18.369  0.00  0.00    +0.000 OA
ATOM      7  C   UNL     1       0.725   8.889  20.245  0.00  0.00    +0.000 C 
ATOM      8  C   UNL     1       1.904   7.916  20.467  0.00  0.00    +0.000 C 
ENDROOT
BRANCH   1  12
ATOM      9  C   UNL     1       2.727   3.247  18.436  0.00  0.00    +0.000 A 
ATOM     10  C   UNL     1       1.888   4.036  17.656  0.00  0.00    +0.000 A 
ATOM     11  C   UNL     1       1.778   5.412  17.897  0.00  0.00    +0.000 A 
ATOM     12  C   UNL     1       2.484   6.037  18.934  0.00  0.00    +0.000 A 
ATOM     13  C   UNL     1       3.313   5.214  19.710  0.00  0.00    +0.000 A 
ATOM     14  C   UNL     1       3.436   3.839  19.472  0.00  0.00    +0.000 A 
BRANCH   9  16
ATOM     15  C   UNL     1       3.816   1.167  18.683  0.00  0.00    +0.000 C 
ATOM     16  O   UNL     1       2.744   1.917  18.123  0.00  0.00    +0.000 OA
ENDBRANCH   9  16
ENDBRANCH   1  12
BRANCH   5  17
ATOM     17  C   UNL     1       0.319  11.808  20.633  0.00  0.00    +0.000 C 
BRANCH  17  18
ATOM     18  C   UNL     1      -0.472  13.103  20.453  0.00  0.00    +0.000 C 
BRANCH  18  19
ATOM     19  C   UNL     1      -1.748  13.071  21.262  0.00  0.00    +0.000 A 
ATOM     20  C   UNL     1      -1.680  13.048  22.662  0.00  0.00    +0.000 A 
ATOM     21  C   UNL     1      -2.845  12.966  23.425  0.00  0.00    +0.000 A 
ATOM     22  C   UNL     1      -4.088  12.921  22.789  0.00  0.00    +0.000 A 
ATOM     23  C   UNL     1      -4.171  12.934  21.397  0.00  0.00    +0.000 A 
ATOM     24  C   UNL     1      -3.003  13.008  20.634  0.00  0.00    +0.000 A 
BRANCH  22  25
ATOM     25  S   UNL     1      -5.564  12.780  23.765  0.00  0.00    +0.000 S 
ATOM     26  O   UNL     1      -6.633  12.409  22.861  0.00  0.00    +0.000 OA
ATOM     27  O   UNL     1      -5.277  12.011  24.955  0.00  0.00    +0.000 OA
BRANCH  25  28
ATOM     28  N   UNL     1      -5.898  14.366  24.232  0.00  0.00    +0.000 NA
ATOM     29  H   UNL     1      -5.946  14.409  25.252  0.00  0.00    +0.000 HD
BRANCH  28  30
ATOM     30  C   UNL     1      -5.221  15.497  23.565  0.00  0.00    +0.000 C 
ATOM     31  C   UNL     1      -6.175  16.275  22.669  0.00  0.00    +0.000 C 
ATOM     32  C   UNL     1      -4.671  16.424  24.649  0.00  0.00    +0.000 C 
ENDBRANCH  28  30
ENDBRANCH  25  28
ENDBRANCH  22  25
ENDBRANCH  18  19
ENDBRANCH  17  18
ENDBRANCH   5  17
TORSDOF 8
ENDMDL
MODEL 9
REMARK VINA RESULT:      -6.4      5.253     10.700
REMARK  Name = 
REMARK  11 active torsions:
REMARK  status: ('A' for Active; 'I' for Inactive)
REMARK    1  A    between atoms: C_1  and  O_2
REMARK    2  A    between atoms: O_2  and  C_3
REMARK    3  A    between atoms: C_6  and  N_7
REMARK    4  A    between atoms: C_11  and  C_13
REMARK    5  A    between atoms: C_13  and  C_14
REMARK    6  A    between atoms: C_14  and  C_15
REMARK    7  A    between atoms: C_18  and  S_19
REMARK    8  A    between atoms: S_19  and  N_22
REMARK    9  A    between atoms: N_22  and  C_23
REMARK   10  A    between atoms: C_23  and  C_24
REMARK   11  A    between atoms: C_23  and  C_25
REMARK                            x       y       z     vdW  Elec       q    Type
REMARK                         _______ _______ _______ _____ _____    ______ ____
ROOT
ATOM      1  N   UNL     1       2.754   6.896  18.519  0.00  0.00    +0.000 N 
ATOM      2  C   UNL     1       2.119   6.379  19.743  0.00  0.00    +0.000 C 
ATOM      3  C   UNL     1       1.973   7.508  20.774  0.00  0.00    +0.000 C 
ATOM      4  N   UNL     1       1.268   8.661  20.194  0.00  0.00    +0.000 N 
ATOM      5  C   UNL     1       0.201   9.215  20.879  0.00  0.00    +0.000 C 
ATOM      6  O   UNL     1      -0.212   8.735  21.936  0.00  0.00    +0.000 OA
ATOM      7  C   UNL     1       1.867   9.163  18.945  0.00  0.00    +0.000 C 
ATOM      8  C   UNL     1       2.073   8.043  17.902  0.00  0.00    +0.000 C 
ENDROOT
BRANCH   1  12
ATOM      9  C   UNL     1       6.292   5.233  16.925  0.00  0.00    +0.000 A 
ATOM     10  C   UNL     1       5.508   6.091  16.162  0.00  0.00    +0.000 A 
ATOM     11  C   UNL     1       4.339   6.650  16.694  0.00  0.00    +0.000 A 
ATOM     12  C   UNL     1       3.907   6.355  17.994  0.00  0.00    +0.000 A 
ATOM     13  C   UNL     1       4.712   5.478  18.736  0.00  0.00    +0.000 A 
ATOM     14  C   UNL     1       5.886   4.920  18.215  0.00  0.00    +0.000 A 
BRANCH   9  16
ATOM     15  C   UNL     1       7.412   4.852  14.882  0.00  0.00    +0.000 C 
ATOM     16  O   UNL     1       7.400   4.734  16.300  0.00  0.00    +0.000 OA
ENDBRANCH   9  16
ENDBRANCH   1  12
BRANCH   5  17
ATOM     17  C   UNL     1      -0.500  10.403  20.246  0.00  0.00    +0.000 C 
BRANCH  17  18
ATOM     18  C   UNL     1      -0.169  11.706  20.972  0.00  0.00    +0.000 C 
BRANCH  18  19
ATOM     19  C   UNL     1      -1.410  12.306  21.594  0.00  0.00    +0.000 A 
ATOM     20  C   UNL     1      -2.035  13.398  20.977  0.00  0.00    +0.000 A 
ATOM     21  C   UNL     1      -3.150  13.997  21.562  0.00  0.00    +0.000 A 
ATOM     22  C   UNL     1      -3.656  13.495  22.763  0.00  0.00    +0.000 A 
ATOM     23  C   UNL     1      -3.040  12.414  23.393  0.00  0.00    +0.000 A 
ATOM     24  C   UNL     1      -1.918  11.820  22.810  0.00  0.00    +0.000 A 
BRANCH  22  25
ATOM     25  S   UNL     1      -5.054  14.285  23.520  0.00  0.00    +0.000 S 
ATOM     26  O   UNL     1      -5.486  15.332  22.618  0.00  0.00    +0.000 OA
ATOM     27  O   UNL     1      -5.970  13.274  24.000  0.00  0.00    +0.000 OA
BRANCH  25  28
ATOM     28  N   UNL     1      -4.401  15.079  24.856  0.00  0.00    +0.000 NA
ATOM     29  H   UNL     1      -4.410  14.446  25.657  0.00  0.00    +0.000 HD
BRANCH  28  30
ATOM     30  C   UNL     1      -3.197  15.922  24.707  0.00  0.00    +0.000 C 
ATOM     31  C   UNL     1      -3.486  17.381  25.030  0.00  0.00    +0.000 C 
ATOM     32  C   UNL     1      -2.128  15.391  25.662  0.00  0.00    +0.000 C 
ENDBRANCH  28  30
ENDBRANCH  25  28
ENDBRANCH  22  25
ENDBRANCH  18  19
ENDBRANCH  17  18
ENDBRANCH   5  17
TORSDOF 8
ENDMDL
