MODEL 1
REMARK VINA RESULT:      -8.3      0.000      0.000
REMARK  Name = 
REMARK  6 active torsions:
REMARK  status: ('A' for Active; 'I' for Inactive)
REMARK    1  A    between atoms: C_2  and  O_3
REMARK    2  A    between atoms: C_2  and  C_4
REMARK    3  A    between atoms: C_4  and  C_5
REMARK    4  A    between atoms: C_8  and  N_9
REMARK    5  A    between atoms: N_9  and  C_10
REMARK    6  A    between atoms: C_12  and  C_13
REMARK                            x       y       z     vdW  Elec       q    Type
REMARK                         _______ _______ _______ _____ _____    ______ ____
ROOT
ATOM      1  C   UNL     1       4.150   5.838  18.963  0.00  0.00    +0.000 A 
ATOM      2  N   UNL     1       3.493   6.981  19.206  0.00  0.00    +0.000 NA
ATOM      3  C   UNL     1       2.269   6.913  19.742  0.00  0.00    +0.000 A 
ATOM      4  N   UNL     1       1.634   5.759  19.993  0.00  0.00    +0.000 NA
ATOM      5  C   UNL     1       2.292   4.609  19.731  0.00  0.00    +0.000 A 
ATOM      6  C   UNL     1       3.600   4.591  19.252  0.00  0.00    +0.000 A 
ATOM      7  C   UNL     1       4.383   3.351  18.926  0.00  0.00    +0.000 C 
ATOM      8  S   UNL     1       3.744   1.928  19.762  0.00  0.00    +0.000 S 
ATOM      9  O   UNL     1       3.965   2.080  21.186  0.00  0.00    +0.000 OA
ATOM     10  O   UNL     1       4.217   0.751  19.059  0.00  0.00    +0.000 OA
ATOM     11  C   UNL     1       2.015   2.097  19.431  0.00  0.00    +0.000 C 
ATOM     12  C   UNL     1       1.502   3.368  20.068  0.00  0.00    +0.000 C 
ENDROOT
BRANCH   3  13
ATOM     13  C   UNL     1       1.625   8.186  20.122  0.00  0.00    +0.000 A 
ATOM     14  C   UNL     1       1.209   8.419  21.450  0.00  0.00    +0.000 A 
ATOM     15  C   UNL     1       0.552   9.596  21.819  0.00  0.00    +0.000 A 
ATOM     16  C   UNL     1       0.298  10.577  20.866  0.00  0.00    +0.000 A 
ATOM     17  C   UNL     1       0.709  10.383  19.550  0.00  0.00    +0.000 A 
ATOM     18  C   UNL     1       1.367   9.203  19.183  0.00  0.00    +0.000 A 
ENDBRANCH   3  13
BRANCH   1  19
ATOM     19  N   UNL     1       5.455   5.918  18.411  0.00  0.00    +0.000 N 
ATOM     20  H   UNL     1       5.874   6.803  18.682  0.00  0.00    +0.000 HD
BRANCH  19  24
ATOM     21  C   UNL     1       6.476   4.769  14.455  0.00  0.00    +0.000 A 
ATOM     22  C   UNL     1       7.226   4.320  15.548  0.00  0.00    +0.000 A 
ATOM     23  C   UNL     1       6.886   4.707  16.850  0.00  0.00    +0.000 A 
ATOM     24  C   UNL     1       5.806   5.567  17.086  0.00  0.00    +0.000 A 
ATOM     25  C   UNL     1       5.042   5.984  15.989  0.00  0.00    +0.000 A 
ATOM     26  C   UNL     1       5.371   5.596  14.688  0.00  0.00    +0.000 A 
BRANCH  21  27
ATOM     27  C   UNL     1       6.827   4.348  13.048  0.00  0.00    +0.000 C 
BRANCH  27  29
ATOM     28  O   UNL     1       4.730   3.515  12.230  0.00  0.00    +0.000 OA
ATOM     29  C   UNL     1       5.928   3.317  12.396  0.00  0.00    +0.000 C 
BRANCH  29  30
ATOM     30  O   UNL     1       6.505   2.167  11.993  0.00  0.00    +0.000 OA
ATOM     31  H   UNL     1       7.398   2.004  12.353  0.00  0.00    +0.000 HD
ENDBRANCH  29  30
ENDBRANCH  27  29
ENDBRANCH  21  27
ENDBRANCH  19  24
ENDBRANCH   1  19
TORSDOF 6
ENDMDL
MODEL 2
REMARK VINA RESULT:      -8.2      0.153      1.273
REMARK  Name = 
REMARK  6 active torsions:
REMARK  status: ('A' for Active; 'I' for Inactive)
REMARK    1  A    between atoms: C_2  and  O_3
REMARK    2  A    between atoms: C_2  and  C_4
REMARK    3  A    between atoms: C_4  and  C_5
REMARK    4  A    between atoms: C_8  and  N_9
REMARK    5  A    between atoms: N_9  and  C_10
REMARK    6  A    between atoms: C_12  and  C_13
REMARK                            x       y       z     vdW  Elec       q    Type
REMARK                         _______ _______ _______ _____ _____    ______ ____
ROOT
ATOM      1  C   UNL     1       4.050   5.869  18.912  0.00  0.00    +0.000 A 
ATOM      2  N   UNL     1       3.418   7.015  19.201  0.00  0.00    +0.000 NA
ATOM      3  C   UNL     1       2.198   6.952  19.749  0.00  0.00    +0.000 A 
ATOM      4  N   UNL     1       1.544   5.803  19.967  0.00  0.00    +0.000 NA
ATOM      5  C   UNL     1       2.176   4.650  19.659  0.00  0.00    +0.000 A 
ATOM      6  C   UNL     1       3.479   4.623  19.164  0.00  0.00    +0.000 A 
ATOM      7  C   UNL     1       4.234   3.380  18.787  0.00  0.00    +0.000 C 
ATOM      8  S   UNL     1       3.576   1.942  19.581  0.00  0.00    +0.000 S 
ATOM      9  O   UNL     1       3.816   2.041  21.006  0.00  0.00    +0.000 OA
ATOM     10  O   UNL     1       4.019   0.781  18.832  0.00  0.00    +0.000 OA
ATOM     11  C   UNL     1       1.847   2.156  19.276  0.00  0.00    +0.000 C 
ATOM     12  C   UNL     1       1.366   3.413  19.962  0.00  0.00    +0.000 C 
ENDROOT
BRANCH   3  13
ATOM     13  C   UNL     1       1.584   8.223  20.180  0.00  0.00    +0.000 A 
ATOM     14  C   UNL     1       1.334   9.258  19.254  0.00  0.00    +0.000 A 
ATOM     15  C   UNL     1       0.802  10.488  19.651  0.00  0.00    +0.000 A 
ATOM     16  C   UNL     1       0.499  10.712  20.990  0.00  0.00    +0.000 A 
ATOM     17  C   UNL     1       0.721   9.706  21.926  0.00  0.00    +0.000 A 
ATOM     18  C   UNL     1       1.255   8.476  21.525  0.00  0.00    +0.000 A 
ENDBRANCH   3  13
BRANCH   1  19
ATOM     19  N   UNL     1       5.350   5.943  18.348  0.00  0.00    +0.000 N 
ATOM     20  H   UNL     1       5.748   6.855  18.554  0.00  0.00    +0.000 HD
BRANCH  19  24
ATOM     21  C   UNL     1       6.447   4.739  14.429  0.00  0.00    +0.000 A 
ATOM     22  C   UNL     1       5.344   5.575  14.639  0.00  0.00    +0.000 A 
ATOM     23  C   UNL     1       4.984   5.964  15.935  0.00  0.00    +0.000 A 
ATOM     24  C   UNL     1       5.704   5.510  17.048  0.00  0.00    +0.000 A 
ATOM     25  C   UNL     1       6.827   4.703  16.824  0.00  0.00    +0.000 A 
ATOM     26  C   UNL     1       7.195   4.316  15.533  0.00  0.00    +0.000 A 
BRANCH  21  27
ATOM     27  C   UNL     1       6.850   4.324  13.033  0.00  0.00    +0.000 C 
BRANCH  27  29
ATOM     28  O   UNL     1       4.781   3.525  12.115  0.00  0.00    +0.000 OA
ATOM     29  C   UNL     1       5.966   3.307  12.340  0.00  0.00    +0.000 C 
BRANCH  29  30
ATOM     30  O   UNL     1       6.543   2.146  11.967  0.00  0.00    +0.000 OA
ATOM     31  H   UNL     1       6.206   1.767  11.132  0.00  0.00    +0.000 HD
ENDBRANCH  29  30
ENDBRANCH  27  29
ENDBRANCH  21  27
ENDBRANCH  19  24
ENDBRANCH   1  19
TORSDOF 6
ENDMDL
MODEL 3
REMARK VINA RESULT:      -8.2      0.957      1.416
REMARK  Name = 
REMARK  6 active torsions:
REMARK  status: ('A' for Active; 'I' for Inactive)
REMARK    1  A    between atoms: C_2  and  O_3
REMARK    2  A    between atoms: C_2  and  C_4
REMARK    3  A    between atoms: C_4  and  C_5
REMARK    4  A    between atoms: C_8  and  N_9
REMARK    5  A    between atoms: N_9  and  C_10
REMARK    6  A    between atoms: C_12  and  C_13
REMARK                            x       y       z     vdW  Elec       q    Type
REMARK                         _______ _______ _______ _____ _____    ______ ____
ROOT
ATOM      1  C   UNL     1       4.202   5.763  18.049  0.00  0.00    +0.000 A 
ATOM      2  N   UNL     1       3.628   6.970  18.166  0.00  0.00    +0.000 NA
ATOM      3  C   UNL     1       2.432   7.054  18.759  0.00  0.00    +0.000 A 
ATOM      4  N   UNL     1       1.742   5.987  19.189  0.00  0.00    +0.000 NA
ATOM      5  C   UNL     1       2.316   4.772  19.055  0.00  0.00    +0.000 A 
ATOM      6  C   UNL     1       3.593   4.604  18.526  0.00  0.00    +0.000 A 
ATOM      7  C   UNL     1       4.283   3.283  18.334  0.00  0.00    +0.000 C 
ATOM      8  S   UNL     1       3.603   2.027  19.380  0.00  0.00    +0.000 S 
ATOM      9  O   UNL     1       3.907   2.348  20.759  0.00  0.00    +0.000 OA
ATOM     10  O   UNL     1       3.968   0.739  18.820  0.00  0.00    +0.000 OA
ATOM     11  C   UNL     1       1.873   2.266  19.105  0.00  0.00    +0.000 C 
ATOM     12  C   UNL     1       1.471   3.640  19.589  0.00  0.00    +0.000 C 
ENDROOT
BRANCH   3  13
ATOM     13  C   UNL     1       1.887   8.405  18.994  0.00  0.00    +0.000 A 
ATOM     14  C   UNL     1       2.012   9.417  18.019  0.00  0.00    +0.000 A 
ATOM     15  C   UNL     1       1.549  10.716  18.243  0.00  0.00    +0.000 A 
ATOM     16  C   UNL     1       0.941  11.037  19.452  0.00  0.00    +0.000 A 
ATOM     17  C   UNL     1       0.791  10.058  20.430  0.00  0.00    +0.000 A 
ATOM     18  C   UNL     1       1.255   8.757  20.203  0.00  0.00    +0.000 A 
ENDBRANCH   3  13
BRANCH   1  19
ATOM     19  N   UNL     1       5.478   5.684  17.435  0.00  0.00    +0.000 N 
ATOM     20  H   UNL     1       5.977   6.555  17.595  0.00  0.00    +0.000 HD
BRANCH  19  24
ATOM     21  C   UNL     1       6.292   4.087  13.587  0.00  0.00    +0.000 A 
ATOM     22  C   UNL     1       7.309   4.673  14.350  0.00  0.00    +0.000 A 
ATOM     23  C   UNL     1       7.032   5.202  15.616  0.00  0.00    +0.000 A 
ATOM     24  C   UNL     1       5.733   5.178  16.138  0.00  0.00    +0.000 A 
ATOM     25  C   UNL     1       4.729   4.559  15.381  0.00  0.00    +0.000 A 
ATOM     26  C   UNL     1       5.000   4.023  14.120  0.00  0.00    +0.000 A 
BRANCH  21  27
ATOM     27  C   UNL     1       6.583   3.503  12.225  0.00  0.00    +0.000 C 
BRANCH  27  29
ATOM     28  O   UNL     1       4.454   2.897  11.297  0.00  0.00    +0.000 OA
ATOM     29  C   UNL     1       5.565   2.532  11.664  0.00  0.00    +0.000 C 
BRANCH  29  30
ATOM     30  O   UNL     1       5.936   1.238  11.574  0.00  0.00    +0.000 OA
ATOM     31  H   UNL     1       5.275   0.646  11.165  0.00  0.00    +0.000 HD
ENDBRANCH  29  30
ENDBRANCH  27  29
ENDBRANCH  21  27
ENDBRANCH  19  24
ENDBRANCH   1  19
TORSDOF 6
ENDMDL
MODEL 4
REMARK VINA RESULT:      -8.1      3.291      7.276
REMARK  Name = 
REMARK  6 active torsions:
REMARK  status: ('A' for Active; 'I' for Inactive)
REMARK    1  A    between atoms: C_2  and  O_3
REMARK    2  A    between atoms: C_2  and  C_4
REMARK    3  A    between atoms: C_4  and  C_5
REMARK    4  A    between atoms: C_8  and  N_9
REMARK    5  A    between atoms: N_9  and  C_10
REMARK    6  A    between atoms: C_12  and  C_13
REMARK                            x       y       z     vdW  Elec       q    Type
REMARK                         _______ _______ _______ _____ _____    ______ ____
ROOT
ATOM      1  C   UNL     1       3.959   5.498  18.306  0.00  0.00    +0.000 A 
ATOM      2  N   UNL     1       4.725   5.516  17.206  0.00  0.00    +0.000 NA
ATOM      3  C   UNL     1       4.837   4.392  16.487  0.00  0.00    +0.000 A 
ATOM      4  N   UNL     1       4.275   3.228  16.842  0.00  0.00    +0.000 NA
ATOM      5  C   UNL     1       3.518   3.209  17.960  0.00  0.00    +0.000 A 
ATOM      6  C   UNL     1       3.280   4.353  18.719  0.00  0.00    +0.000 A 
ATOM      7  C   UNL     1       2.463   4.400  19.978  0.00  0.00    +0.000 C 
ATOM      8  S   UNL     1       1.340   3.036  20.087  0.00  0.00    +0.000 S 
ATOM      9  O   UNL     1       0.337   3.169  19.051  0.00  0.00    +0.000 OA
ATOM     10  O   UNL     1       0.956   2.888  21.478  0.00  0.00    +0.000 OA
ATOM     11  C   UNL     1       2.411   1.690  19.676  0.00  0.00    +0.000 C 
ATOM     12  C   UNL     1       2.912   1.860  18.260  0.00  0.00    +0.000 C 
ENDROOT
BRANCH   3  13
ATOM     13  C   UNL     1       5.575   4.476  15.211  0.00  0.00    +0.000 A 
ATOM     14  C   UNL     1       5.127   3.782  14.068  0.00  0.00    +0.000 A 
ATOM     15  C   UNL     1       5.840   3.807  12.866  0.00  0.00    +0.000 A 
ATOM     16  C   UNL     1       7.021   4.535  12.775  0.00  0.00    +0.000 A 
ATOM     17  C   UNL     1       7.482   5.242  13.882  0.00  0.00    +0.000 A 
ATOM     18  C   UNL     1       6.767   5.215  15.085  0.00  0.00    +0.000 A 
ENDBRANCH   3  13
BRANCH   1  19
ATOM     19  N   UNL     1       3.830   6.698  19.053  0.00  0.00    +0.000 N 
ATOM     20  H   UNL     1       4.092   6.516  20.017  0.00  0.00    +0.000 HD
BRANCH  19  24
ATOM     21  C   UNL     1       0.612   9.460  18.882  0.00  0.00    +0.000 A 
ATOM     22  C   UNL     1       0.904   8.772  20.066  0.00  0.00    +0.000 A 
ATOM     23  C   UNL     1       1.964   7.858  20.114  0.00  0.00    +0.000 A 
ATOM     24  C   UNL     1       2.739   7.596  18.977  0.00  0.00    +0.000 A 
ATOM     25  C   UNL     1       2.460   8.315  17.807  0.00  0.00    +0.000 A 
ATOM     26  C   UNL     1       1.408   9.233  17.755  0.00  0.00    +0.000 A 
BRANCH  21  27
ATOM     27  C   UNL     1      -0.522  10.456  18.825  0.00  0.00    +0.000 C 
BRANCH  27  29
ATOM     28  O   UNL     1      -1.814   9.508  17.037  0.00  0.00    +0.000 OA
ATOM     29  C   UNL     1      -1.320  10.512  17.538  0.00  0.00    +0.000 C 
BRANCH  29  30
ATOM     30  O   UNL     1      -1.476  11.723  16.966  0.00  0.00    +0.000 OA
ATOM     31  H   UNL     1      -0.870  11.911  16.223  0.00  0.00    +0.000 HD
ENDBRANCH  29  30
ENDBRANCH  27  29
ENDBRANCH  21  27
ENDBRANCH  19  24
ENDBRANCH   1  19
TORSDOF 6
ENDMDL
MODEL 5
REMARK VINA RESULT:      -8.0      1.002      1.373
REMARK  Name = 
REMARK  6 active torsions:
REMARK  status: ('A' for Active; 'I' for Inactive)
REMARK    1  A    between atoms: C_2  and  O_3
REMARK    2  A    between atoms: C_2  and  C_4
REMARK    3  A    between atoms: C_4  and  C_5
REMARK    4  A    between atoms: C_8  and  N_9
REMARK    5  A    between atoms: N_9  and  C_10
REMARK    6  A    between atoms: C_12  and  C_13
REMARK                            x       y       z     vdW  Elec       q    Type
REMARK                         _______ _______ _______ _____ _____    ______ ____
ROOT
ATOM      1  C   UNL     1       4.348   5.620  18.025  0.00  0.00    +0.000 A 
ATOM      2  N   UNL     1       3.782   6.833  18.115  0.00  0.00    +0.000 NA
ATOM      3  C   UNL     1       2.564   6.931  18.660  0.00  0.00    +0.000 A 
ATOM      4  N   UNL     1       1.847   5.873  19.065  0.00  0.00    +0.000 NA
ATOM      5  C   UNL     1       2.412   4.652  18.958  0.00  0.00    +0.000 A 
ATOM      6  C   UNL     1       3.708   4.469  18.481  0.00  0.00    +0.000 A 
ATOM      7  C   UNL     1       4.391   3.140  18.321  0.00  0.00    +0.000 C 
ATOM      8  S   UNL     1       3.657   1.894  19.342  0.00  0.00    +0.000 S 
ATOM      9  O   UNL     1       3.909   2.217  20.732  0.00  0.00    +0.000 OA
ATOM     10  O   UNL     1       4.030   0.602  18.801  0.00  0.00    +0.000 OA
ATOM     11  C   UNL     1       1.942   2.151  18.997  0.00  0.00    +0.000 C 
ATOM     12  C   UNL     1       1.536   3.531  19.461  0.00  0.00    +0.000 C 
ENDROOT
BRANCH   3  13
ATOM     13  C   UNL     1       2.024   8.289  18.869  0.00  0.00    +0.000 A 
ATOM     14  C   UNL     1       1.360   8.629  20.066  0.00  0.00    +0.000 A 
ATOM     15  C   UNL     1       0.797   9.893  20.263  0.00  0.00    +0.000 A 
ATOM     16  C   UNL     1       0.889  10.855  19.263  0.00  0.00    +0.000 A 
ATOM     17  C   UNL     1       1.550  10.556  18.076  0.00  0.00    +0.000 A 
ATOM     18  C   UNL     1       2.113   9.289  17.882  0.00  0.00    +0.000 A 
ENDBRANCH   3  13
BRANCH   1  19
ATOM     19  N   UNL     1       5.647   5.526  17.463  0.00  0.00    +0.000 N 
ATOM     20  H   UNL     1       6.168   6.367  17.692  0.00  0.00    +0.000 HD
BRANCH  19  24
ATOM     21  C   UNL     1       6.481   4.273  13.494  0.00  0.00    +0.000 A 
ATOM     22  C   UNL     1       5.182   4.197  14.012  0.00  0.00    +0.000 A 
ATOM     23  C   UNL     1       4.915   4.608  15.324  0.00  0.00    +0.000 A 
ATOM     24  C   UNL     1       5.941   5.081  16.152  0.00  0.00    +0.000 A 
ATOM     25  C   UNL     1       7.230   5.185  15.613  0.00  0.00    +0.000 A 
ATOM     26  C   UNL     1       7.502   4.783  14.303  0.00  0.00    +0.000 A 
BRANCH  21  27
ATOM     27  C   UNL     1       6.776   3.844  12.077  0.00  0.00    +0.000 C 
BRANCH  27  29
ATOM     28  O   UNL     1       5.066   2.280  11.450  0.00  0.00    +0.000 OA
ATOM     29  C   UNL     1       6.258   2.485  11.650  0.00  0.00    +0.000 C 
BRANCH  29  30
ATOM     30  O   UNL     1       7.169   1.505  11.487  0.00  0.00    +0.000 OA
ATOM     31  H   UNL     1       7.326   0.950  12.276  0.00  0.00    +0.000 HD
ENDBRANCH  29  30
ENDBRANCH  27  29
ENDBRANCH  21  27
ENDBRANCH  19  24
ENDBRANCH   1  19
TORSDOF 6
ENDMDL
MODEL 6
REMARK VINA RESULT:      -7.9      3.405      7.445
REMARK  Name = 
REMARK  6 active torsions:
REMARK  status: ('A' for Active; 'I' for Inactive)
REMARK    1  A    between atoms: C_2  and  O_3
REMARK    2  A    between atoms: C_2  and  C_4
REMARK    3  A    between atoms: C_4  and  C_5
REMARK    4  A    between atoms: C_8  and  N_9
REMARK    5  A    between atoms: N_9  and  C_10
REMARK    6  A    between atoms: C_12  and  C_13
REMARK                            x       y       z     vdW  Elec       q    Type
REMARK                         _______ _______ _______ _____ _____    ______ ____
ROOT
ATOM      1  C   UNL     1       4.068   5.366  18.239  0.00  0.00    +0.000 A 
ATOM      2  N   UNL     1       4.839   5.372  17.142  0.00  0.00    +0.000 NA
ATOM      3  C   UNL     1       4.949   4.244  16.431  0.00  0.00    +0.000 A 
ATOM      4  N   UNL     1       4.381   3.084  16.792  0.00  0.00    +0.000 NA
ATOM      5  C   UNL     1       3.619   3.076  17.907  0.00  0.00    +0.000 A 
ATOM      6  C   UNL     1       3.383   4.226  18.657  0.00  0.00    +0.000 A 
ATOM      7  C   UNL     1       2.561   4.285  19.913  0.00  0.00    +0.000 C 
ATOM      8  S   UNL     1       1.432   2.927  20.026  0.00  0.00    +0.000 S 
ATOM      9  O   UNL     1       0.433   3.058  18.985  0.00  0.00    +0.000 OA
ATOM     10  O   UNL     1       1.041   2.790  21.416  0.00  0.00    +0.000 OA
ATOM     11  C   UNL     1       2.498   1.574  19.629  0.00  0.00    +0.000 C 
ATOM     12  C   UNL     1       3.006   1.732  18.214  0.00  0.00    +0.000 C 
ENDROOT
BRANCH   3  13
ATOM     13  C   UNL     1       5.693   4.316  15.158  0.00  0.00    +0.000 A 
ATOM     14  C   UNL     1       6.868   5.087  15.049  0.00  0.00    +0.000 A 
ATOM     15  C   UNL     1       7.558   5.210  13.839  0.00  0.00    +0.000 A 
ATOM     16  C   UNL     1       7.089   4.557  12.704  0.00  0.00    +0.000 A 
ATOM     17  C   UNL     1       5.939   3.776  12.783  0.00  0.00    +0.000 A 
ATOM     18  C   UNL     1       5.250   3.656  13.996  0.00  0.00    +0.000 A 
ENDBRANCH   3  13
BRANCH   1  19
ATOM     19  N   UNL     1       3.942   6.571  18.977  0.00  0.00    +0.000 N 
ATOM     20  H   UNL     1       4.181   6.390  19.948  0.00  0.00    +0.000 HD
BRANCH  19  24
ATOM     21  C   UNL     1       0.768   9.378  18.729  0.00  0.00    +0.000 A 
ATOM     22  C   UNL     1       1.020   8.684  19.918  0.00  0.00    +0.000 A 
ATOM     23  C   UNL     1       2.065   7.755  19.991  0.00  0.00    +0.000 A 
ATOM     24  C   UNL     1       2.866   7.485  18.875  0.00  0.00    +0.000 A 
ATOM     25  C   UNL     1       2.628   8.210  17.700  0.00  0.00    +0.000 A 
ATOM     26  C   UNL     1       1.590   9.142  17.622  0.00  0.00    +0.000 A 
BRANCH  21  27
ATOM     27  C   UNL     1      -0.350  10.390  18.643  0.00  0.00    +0.000 C 
BRANCH  27  29
ATOM     28  O   UNL     1       0.431  12.237  19.961  0.00  0.00    +0.000 OA
ATOM     29  C   UNL     1       0.019  11.840  18.877  0.00  0.00    +0.000 C 
BRANCH  29  30
ATOM     30  O   UNL     1      -0.114  12.683  17.833  0.00  0.00    +0.000 OA
ATOM     31  H   UNL     1       0.482  12.506  17.080  0.00  0.00    +0.000 HD
ENDBRANCH  29  30
ENDBRANCH  27  29
ENDBRANCH  21  27
ENDBRANCH  19  24
ENDBRANCH   1  19
TORSDOF 6
ENDMDL
MODEL 7
REMARK VINA RESULT:      -7.8      3.401      7.419
REMARK  Name = 
REMARK  6 active torsions:
REMARK  status: ('A' for Active; 'I' for Inactive)
REMARK    1  A    between atoms: C_2  and  O_3
REMARK    2  A    between atoms: C_2  and  C_4
REMARK    3  A    between atoms: C_4  and  C_5
REMARK    4  A    between atoms: C_8  and  N_9
REMARK    5  A    between atoms: N_9  and  C_10
REMARK    6  A    between atoms: C_12  and  C_13
REMARK                            x       y       z     vdW  Elec       q    Type
REMARK                         _______ _______ _______ _____ _____    ______ ____
ROOT
ATOM      1  C   UNL     1       3.987   5.386  18.378  0.00  0.00    +0.000 A 
ATOM      2  N   UNL     1       4.756   5.427  17.280  0.00  0.00    +0.000 NA
ATOM      3  C   UNL     1       4.897   4.310  16.557  0.00  0.00    +0.000 A 
ATOM      4  N   UNL     1       4.361   3.131  16.905  0.00  0.00    +0.000 NA
ATOM      5  C   UNL     1       3.602   3.089  18.021  0.00  0.00    +0.000 A 
ATOM      6  C   UNL     1       3.335   4.224  18.784  0.00  0.00    +0.000 A 
ATOM      7  C   UNL     1       2.513   4.245  20.042  0.00  0.00    +0.000 C 
ATOM      8  S   UNL     1       1.423   2.855  20.141  0.00  0.00    +0.000 S 
ATOM      9  O   UNL     1       0.419   2.969  19.103  0.00  0.00    +0.000 OA
ATOM     10  O   UNL     1       1.038   2.692  21.530  0.00  0.00    +0.000 OA
ATOM     11  C   UNL     1       2.527   1.537  19.727  0.00  0.00    +0.000 C 
ATOM     12  C   UNL     1       3.027   1.725  18.313  0.00  0.00    +0.000 C 
ENDROOT
BRANCH   3  13
ATOM     13  C   UNL     1       5.636   4.417  15.284  0.00  0.00    +0.000 A 
ATOM     14  C   UNL     1       5.194   3.736  14.130  0.00  0.00    +0.000 A 
ATOM     15  C   UNL     1       5.908   3.783  12.929  0.00  0.00    +0.000 A 
ATOM     16  C   UNL     1       7.085   4.520  12.851  0.00  0.00    +0.000 A 
ATOM     17  C   UNL     1       7.540   5.215  13.968  0.00  0.00    +0.000 A 
ATOM     18  C   UNL     1       6.823   5.165  15.170  0.00  0.00    +0.000 A 
ENDBRANCH   3  13
BRANCH   1  19
ATOM     19  N   UNL     1       3.829   6.579  19.130  0.00  0.00    +0.000 N 
ATOM     20  H   UNL     1       3.988   6.374  20.112  0.00  0.00    +0.000 HD
BRANCH  19  24
ATOM     21  C   UNL     1       0.747   9.464  18.687  0.00  0.00    +0.000 A 
ATOM     22  C   UNL     1       0.971   8.838  19.919  0.00  0.00    +0.000 A 
ATOM     23  C   UNL     1       1.986   7.883  20.057  0.00  0.00    +0.000 A 
ATOM     24  C   UNL     1       2.783   7.519  18.964  0.00  0.00    +0.000 A 
ATOM     25  C   UNL     1       2.573   8.176  17.745  0.00  0.00    +0.000 A 
ATOM     26  C   UNL     1       1.567   9.133  17.603  0.00  0.00    +0.000 A 
BRANCH  21  27
ATOM     27  C   UNL     1      -0.337  10.503  18.532  0.00  0.00    +0.000 C 
BRANCH  27  29
ATOM     28  O   UNL     1      -0.782  12.848  18.795  0.00  0.00    +0.000 OA
ATOM     29  C   UNL     1       0.040  11.938  18.838  0.00  0.00    +0.000 C 
BRANCH  29  30
ATOM     30  O   UNL     1       1.324  12.177  19.172  0.00  0.00    +0.000 OA
ATOM     31  H   UNL     1       1.813  11.403  19.513  0.00  0.00    +0.000 HD
ENDBRANCH  29  30
ENDBRANCH  27  29
ENDBRANCH  21  27
ENDBRANCH  19  24
ENDBRANCH   1  19
TORSDOF 6
ENDMDL
MODEL 8
REMARK VINA RESULT:      -7.8      1.134      1.247
REMARK  Name = 
REMARK  6 active torsions:
REMARK  status: ('A' for Active; 'I' for Inactive)
REMARK    1  A    between atoms: C_2  and  O_3
REMARK    2  A    between atoms: C_2  and  C_4
REMARK    3  A    between atoms: C_4  and  C_5
REMARK    4  A    between atoms: C_8  and  N_9
REMARK    5  A    between atoms: N_9  and  C_10
REMARK    6  A    between atoms: C_12  and  C_13
REMARK                            x       y       z     vdW  Elec       q    Type
REMARK                         _______ _______ _______ _____ _____    ______ ____
ROOT
ATOM      1  C   UNL     1       4.008   5.909  19.241  0.00  0.00    +0.000 A 
ATOM      2  N   UNL     1       3.351   7.051  19.487  0.00  0.00    +0.000 NA
ATOM      3  C   UNL     1       2.107   6.981  19.976  0.00  0.00    +0.000 A 
ATOM      4  N   UNL     1       1.454   5.827  20.175  0.00  0.00    +0.000 NA
ATOM      5  C   UNL     1       2.113   4.678  19.910  0.00  0.00    +0.000 A 
ATOM      6  C   UNL     1       3.437   4.660  19.479  0.00  0.00    +0.000 A 
ATOM      7  C   UNL     1       4.223   3.421  19.152  0.00  0.00    +0.000 C 
ATOM      8  S   UNL     1       3.542   1.984  19.929  0.00  0.00    +0.000 S 
ATOM      9  O   UNL     1       3.711   2.101  21.363  0.00  0.00    +0.000 OA
ATOM     10  O   UNL     1       4.032   0.821  19.216  0.00  0.00    +0.000 OA
ATOM     11  C   UNL     1       1.828   2.176  19.539  0.00  0.00    +0.000 C 
ATOM     12  C   UNL     1       1.302   3.436  20.188  0.00  0.00    +0.000 C 
ENDROOT
BRANCH   3  13
ATOM     13  C   UNL     1       1.459   8.250  20.363  0.00  0.00    +0.000 A 
ATOM     14  C   UNL     1       1.064   8.484  21.697  0.00  0.00    +0.000 A 
ATOM     15  C   UNL     1       0.404   9.657  22.073  0.00  0.00    +0.000 A 
ATOM     16  C   UNL     1       0.125  10.632  21.121  0.00  0.00    +0.000 A 
ATOM     17  C   UNL     1       0.515  10.437  19.799  0.00  0.00    +0.000 A 
ATOM     18  C   UNL     1       1.176   9.261  19.425  0.00  0.00    +0.000 A 
ENDBRANCH   3  13
BRANCH   1  19
ATOM     19  N   UNL     1       5.332   5.991  18.739  0.00  0.00    +0.000 N 
ATOM     20  H   UNL     1       5.734   6.884  19.013  0.00  0.00    +0.000 HD
BRANCH  19  24
ATOM     21  C   UNL     1       6.520   4.791  14.846  0.00  0.00    +0.000 A 
ATOM     22  C   UNL     1       7.256   4.402  15.972  0.00  0.00    +0.000 A 
ATOM     23  C   UNL     1       6.861   4.806  17.253  0.00  0.00    +0.000 A 
ATOM     24  C   UNL     1       5.738   5.623  17.435  0.00  0.00    +0.000 A 
ATOM     25  C   UNL     1       4.989   5.978  16.305  0.00  0.00    +0.000 A 
ATOM     26  C   UNL     1       5.375   5.573  15.025  0.00  0.00    +0.000 A 
BRANCH  21  27
ATOM     27  C   UNL     1       6.932   4.350  13.461  0.00  0.00    +0.000 C 
BRANCH  27  29
ATOM     28  O   UNL     1       8.729   5.919  13.194  0.00  0.00    +0.000 OA
ATOM     29  C   UNL     1       7.808   5.301  12.671  0.00  0.00    +0.000 C 
BRANCH  29  30
ATOM     30  O   UNL     1       7.539   5.435  11.357  0.00  0.00    +0.000 OA
ATOM     31  H   UNL     1       8.085   6.095  10.888  0.00  0.00    +0.000 HD
ENDBRANCH  29  30
ENDBRANCH  27  29
ENDBRANCH  21  27
ENDBRANCH  19  24
ENDBRANCH   1  19
TORSDOF 6
ENDMDL
MODEL 9
REMARK VINA RESULT:      -7.8      1.108      1.489
REMARK  Name = 
REMARK  6 active torsions:
REMARK  status: ('A' for Active; 'I' for Inactive)
REMARK    1  A    between atoms: C_2  and  O_3
REMARK    2  A    between atoms: C_2  and  C_4
REMARK    3  A    between atoms: C_4  and  C_5
REMARK    4  A    between atoms: C_8  and  N_9
REMARK    5  A    between atoms: N_9  and  C_10
REMARK    6  A    between atoms: C_12  and  C_13
REMARK                            x       y       z     vdW  Elec       q    Type
REMARK                         _______ _______ _______ _____ _____    ______ ____
ROOT
ATOM      1  C   UNL     1       3.987   5.942  19.216  0.00  0.00    +0.000 A 
ATOM      2  N   UNL     1       3.323   7.077  19.476  0.00  0.00    +0.000 NA
ATOM      3  C   UNL     1       2.088   6.993  19.984  0.00  0.00    +0.000 A 
ATOM      4  N   UNL     1       1.450   5.832  20.190  0.00  0.00    +0.000 NA
ATOM      5  C   UNL     1       2.115   4.691  19.912  0.00  0.00    +0.000 A 
ATOM      6  C   UNL     1       3.433   4.687  19.460  0.00  0.00    +0.000 A 
ATOM      7  C   UNL     1       4.226   3.457  19.117  0.00  0.00    +0.000 C 
ATOM      8  S   UNL     1       3.572   2.011  19.901  0.00  0.00    +0.000 S 
ATOM      9  O   UNL     1       3.763   2.125  21.332  0.00  0.00    +0.000 OA
ATOM     10  O   UNL     1       4.062   0.855  19.176  0.00  0.00    +0.000 OA
ATOM     11  C   UNL     1       1.850   2.187  19.538  0.00  0.00    +0.000 C 
ATOM     12  C   UNL     1       1.321   3.440  20.198  0.00  0.00    +0.000 C 
ENDROOT
BRANCH   3  13
ATOM     13  C   UNL     1       1.434   8.255  20.385  0.00  0.00    +0.000 A 
ATOM     14  C   UNL     1       1.187   9.274  19.442  0.00  0.00    +0.000 A 
ATOM     15  C   UNL     1       0.616  10.496  19.812  0.00  0.00    +0.000 A 
ATOM     16  C   UNL     1       0.272  10.727  21.139  0.00  0.00    +0.000 A 
ATOM     17  C   UNL     1       0.490   9.735  22.091  0.00  0.00    +0.000 A 
ATOM     18  C   UNL     1       1.062   8.513  21.718  0.00  0.00    +0.000 A 
ENDBRANCH   3  13
BRANCH   1  19
ATOM     19  N   UNL     1       5.303   6.039  18.694  0.00  0.00    +0.000 N 
ATOM     20  H   UNL     1       5.684   6.952  18.927  0.00  0.00    +0.000 HD
BRANCH  19  24
ATOM     21  C   UNL     1       6.467   4.720  14.832  0.00  0.00    +0.000 A 
ATOM     22  C   UNL     1       7.181   4.326  15.969  0.00  0.00    +0.000 A 
ATOM     23  C   UNL     1       6.795   4.769  17.240  0.00  0.00    +0.000 A 
ATOM     24  C   UNL     1       5.702   5.631  17.399  0.00  0.00    +0.000 A 
ATOM     25  C   UNL     1       4.974   5.992  16.258  0.00  0.00    +0.000 A 
ATOM     26  C   UNL     1       5.351   5.548  14.989  0.00  0.00    +0.000 A 
BRANCH  21  27
ATOM     27  C   UNL     1       6.870   4.238  13.458  0.00  0.00    +0.000 C 
BRANCH  27  29
ATOM     28  O   UNL     1       7.538   5.302  11.413  0.00  0.00    +0.000 OA
ATOM     29  C   UNL     1       7.710   5.180  12.620  0.00  0.00    +0.000 C 
BRANCH  29  30
ATOM     30  O   UNL     1       8.656   5.895  13.263  0.00  0.00    +0.000 OA
ATOM     31  H   UNL     1       8.444   6.839  13.394  0.00  0.00    +0.000 HD
ENDBRANCH  29  30
ENDBRANCH  27  29
ENDBRANCH  21  27
ENDBRANCH  19  24
ENDBRANCH   1  19
TORSDOF 6
ENDMDL
