MODEL 1
REMARK VINA RESULT:      -8.7      0.000      0.000
REMARK  Name = 
REMARK  8 active torsions:
REMARK  status: ('A' for Active; 'I' for Inactive)
REMARK    1  A    between atoms: C_1  and  C_2
REMARK    2  A    between atoms: C_3  and  C_4
REMARK    3  A    between atoms: N_6  and  C_7
REMARK    4  A    between atoms: C_11  and  C_12
REMARK    5  A    between atoms: C_18  and  C_19
REMARK    6  A    between atoms: C_23  and  C_25
REMARK    7  A    between atoms: C_25  and  O_26
REMARK    8  A    between atoms: O_26  and  C_27
REMARK                            x       y       z     vdW  Elec       q    Type
REMARK                         _______ _______ _______ _____ _____    ______ ____
ROOT
ATOM      1  C   UNL     1       2.268   7.283  18.640  0.00  0.00    +0.000 C 
ATOM      2  N   UNL     1       2.018   7.575  19.877  0.00  0.00    +0.000 NA
ATOM      3  O   UNL     1       1.748   8.963  19.947  0.00  0.00    +0.000 OA
ATOM      4  C   UNL     1       1.540   9.450  18.613  0.00  0.00    +0.000 C 
ATOM      5  C   UNL     1       2.222   8.446  17.711  0.00  0.00    +0.000 C 
ATOM      6  C   UNL     1       2.120  10.842  18.503  0.00  0.00    +0.000 C 
ATOM      7  C   UNL     1       0.999  11.788  18.987  0.00  0.00    +0.000 C 
ATOM      8  N   UNL     1      -0.235  11.092  18.561  0.00  0.00    +0.000 N 
ATOM      9  C   UNL     1      -1.576  11.408  18.748  0.00  0.00    +0.000 C 
ATOM     10  O   UNL     1      -2.452  10.619  18.372  0.00  0.00    +0.000 OA
ATOM     11  C   UNL     1       0.048   9.661  18.344  0.00  0.00    +0.000 C 
ENDROOT
BRANCH   1  16
ATOM     12  C   UNL     1       4.127   4.447  16.939  0.00  0.00    +0.000 A 
ATOM     13  C   UNL     1       3.288   3.372  17.258  0.00  0.00    +0.000 A 
ATOM     14  C   UNL     1       2.120   3.559  17.989  0.00  0.00    +0.000 A 
ATOM     15  C   UNL     1       1.781   4.831  18.436  0.00  0.00    +0.000 A 
ATOM     16  C   UNL     1       2.620   5.923  18.164  0.00  0.00    +0.000 A 
ATOM     17  C   UNL     1       3.800   5.720  17.423  0.00  0.00    +0.000 A 
BRANCH  12  20
ATOM     18  C   UNL     1       5.746   5.207  15.230  0.00  0.00    +0.000 C 
ATOM     19  O   UNL     1       5.261   6.313  15.037  0.00  0.00    +0.000 OA
ATOM     20  N   UNL     1       5.296   4.287  16.156  0.00  0.00    +0.000 N 
ATOM     21  H   UNL     1       5.876   3.485  16.361  0.00  0.00    +0.000 HD
BRANCH  18  24
ATOM     22  C   UNL     1       5.583   3.598  12.665  0.00  0.00    +0.000 C 
ATOM     23  C   UNL     1       6.853   4.038  13.333  0.00  0.00    +0.000 C 
ATOM     24  C   UNL     1       6.945   4.760  14.467  0.00  0.00    +0.000 C 
ENDBRANCH  18  24
ENDBRANCH  12  20
ENDBRANCH   1  16
BRANCH   7  25
ATOM     25  C   UNL     1       1.432  13.164  18.433  0.00  0.00    +0.000 C 
ATOM     26  N   UNL     1       2.367  13.213  17.465  0.00  0.00    +0.000 N 
ATOM     27  O   UNL     1       0.864  14.211  18.742  0.00  0.00    +0.000 OA
ATOM     28  H   UNL     1       2.598  14.120  17.082  0.00  0.00    +0.000 HD
ATOM     29  H   UNL     1       2.967  12.436  17.222  0.00  0.00    +0.000 HD
ENDBRANCH   7  25
BRANCH   9  30
ATOM     30  C   UNL     1      -2.004  12.719  19.425  0.00  0.00    +0.000 C 
BRANCH  30  31
ATOM     31  O   UNL     1      -3.234  12.561  20.137  0.00  0.00    +0.000 OA
BRANCH  31  32
ATOM     32  C   UNL     1      -3.308  13.188  21.358  0.00  0.00    +0.000 A 
ATOM     33  C   UNL     1      -3.081  14.572  21.350  0.00  0.00    +0.000 A 
ATOM     34  C   UNL     1      -3.060  15.299  22.543  0.00  0.00    +0.000 A 
ATOM     35  C   UNL     1      -3.317  14.650  23.747  0.00  0.00    +0.000 A 
ATOM     36 CL   UNL     1      -3.292  15.537  25.221  0.00  0.00    +0.000 Cl
ATOM     37  C   UNL     1      -3.600  13.286  23.761  0.00  0.00    +0.000 A 
ATOM     38  C   UNL     1      -3.593  12.553  22.567  0.00  0.00    +0.000 A 
ENDBRANCH  31  32
ENDBRANCH  30  31
ENDBRANCH   9  30
TORSDOF 7
ENDMDL
MODEL 2
REMARK VINA RESULT:      -8.7      2.471      4.129
REMARK  Name = 
REMARK  8 active torsions:
REMARK  status: ('A' for Active; 'I' for Inactive)
REMARK    1  A    between atoms: C_1  and  C_2
REMARK    2  A    between atoms: C_3  and  C_4
REMARK    3  A    between atoms: N_6  and  C_7
REMARK    4  A    between atoms: C_11  and  C_12
REMARK    5  A    between atoms: C_18  and  C_19
REMARK    6  A    between atoms: C_23  and  C_25
REMARK    7  A    between atoms: C_25  and  O_26
REMARK    8  A    between atoms: O_26  and  C_27
REMARK                            x       y       z     vdW  Elec       q    Type
REMARK                         _______ _______ _______ _____ _____    ______ ____
ROOT
ATOM      1  C   UNL     1       2.244   8.826  17.898  0.00  0.00    +0.000 C 
ATOM      2  N   UNL     1       2.696  10.040  17.897  0.00  0.00    +0.000 NA
ATOM      3  O   UNL     1       1.613  10.905  18.186  0.00  0.00    +0.000 OA
ATOM      4  C   UNL     1       0.521  10.112  18.676  0.00  0.00    +0.000 C 
ATOM      5  C   UNL     1       0.784   8.713  18.167  0.00  0.00    +0.000 C 
ATOM      6  C   UNL     1      -0.778  10.697  18.171  0.00  0.00    +0.000 C 
ATOM      7  C   UNL     1      -1.155  11.790  19.196  0.00  0.00    +0.000 C 
ATOM      8  N   UNL     1      -0.634  11.250  20.471  0.00  0.00    +0.000 N 
ATOM      9  C   UNL     1      -0.616  11.787  21.753  0.00  0.00    +0.000 C 
ATOM     10  O   UNL     1      -0.040  11.181  22.664  0.00  0.00    +0.000 OA
ATOM     11  C   UNL     1       0.404  10.240  20.197  0.00  0.00    +0.000 C 
ENDROOT
BRANCH   1  16
ATOM     12  C   UNL     1       3.504   5.248  17.902  0.00  0.00    +0.000 A 
ATOM     13  C   UNL     1       4.638   5.382  17.090  0.00  0.00    +0.000 A 
ATOM     14  C   UNL     1       5.012   6.616  16.569  0.00  0.00    +0.000 A 
ATOM     15  C   UNL     1       4.239   7.740  16.834  0.00  0.00    +0.000 A 
ATOM     16  C   UNL     1       3.076   7.632  17.613  0.00  0.00    +0.000 A 
ATOM     17  C   UNL     1       2.708   6.378  18.134  0.00  0.00    +0.000 A 
BRANCH  12  20
ATOM     18  C   UNL     1       1.925   3.376  18.254  0.00  0.00    +0.000 C 
ATOM     19  O   UNL     1       1.074   3.738  17.456  0.00  0.00    +0.000 OA
ATOM     20  N   UNL     1       3.131   4.012  18.481  0.00  0.00    +0.000 N 
ATOM     21  H   UNL     1       3.835   3.530  19.024  0.00  0.00    +0.000 HD
BRANCH  18  24
ATOM     22  C   UNL     1       1.388   3.393  21.238  0.00  0.00    +0.000 C 
ATOM     23  C   UNL     1       1.505   2.163  20.386  0.00  0.00    +0.000 C 
ATOM     24  C   UNL     1       1.735   2.137  19.058  0.00  0.00    +0.000 C 
ENDBRANCH  18  24
ENDBRANCH  12  20
ENDBRANCH   1  16
BRANCH   7  25
ATOM     25  C   UNL     1      -2.658  12.027  18.924  0.00  0.00    +0.000 C 
ATOM     26  N   UNL     1      -3.117  11.922  17.662  0.00  0.00    +0.000 N 
ATOM     27  O   UNL     1      -3.479  12.176  19.828  0.00  0.00    +0.000 OA
ATOM     28  H   UNL     1      -4.112  12.030  17.515  0.00  0.00    +0.000 HD
ATOM     29  H   UNL     1      -2.522  11.914  16.845  0.00  0.00    +0.000 HD
ENDBRANCH   7  25
BRANCH   9  30
ATOM     30  C   UNL     1      -1.289  13.131  22.070  0.00  0.00    +0.000 C 
BRANCH  30  31
ATOM     31  O   UNL     1      -1.793  13.160  23.408  0.00  0.00    +0.000 OA
BRANCH  31  32
ATOM     32  C   UNL     1      -3.150  13.333  23.537  0.00  0.00    +0.000 A 
ATOM     33  C   UNL     1      -3.813  12.397  24.344  0.00  0.00    +0.000 A 
ATOM     34  C   UNL     1      -5.202  12.433  24.487  0.00  0.00    +0.000 A 
ATOM     35  C   UNL     1      -5.930  13.441  23.862  0.00  0.00    +0.000 A 
ATOM     36 CL   UNL     1      -7.641  13.494  24.032  0.00  0.00    +0.000 Cl
ATOM     37  C   UNL     1      -5.276  14.411  23.105  0.00  0.00    +0.000 A 
ATOM     38  C   UNL     1      -3.887  14.356  22.939  0.00  0.00    +0.000 A 
ENDBRANCH  31  32
ENDBRANCH  30  31
ENDBRANCH   9  30
TORSDOF 7
ENDMDL
MODEL 3
REMARK VINA RESULT:      -8.6      1.497      1.624
REMARK  Name = 
REMARK  8 active torsions:
REMARK  status: ('A' for Active; 'I' for Inactive)
REMARK    1  A    between atoms: C_1  and  C_2
REMARK    2  A    between atoms: C_3  and  C_4
REMARK    3  A    between atoms: N_6  and  C_7
REMARK    4  A    between atoms: C_11  and  C_12
REMARK    5  A    between atoms: C_18  and  C_19
REMARK    6  A    between atoms: C_23  and  C_25
REMARK    7  A    between atoms: C_25  and  O_26
REMARK    8  A    between atoms: O_26  and  C_27
REMARK                            x       y       z     vdW  Elec       q    Type
REMARK                         _______ _______ _______ _____ _____    ______ ____
ROOT
ATOM      1  C   UNL     1       2.365   7.723  18.714  0.00  0.00    +0.000 C 
ATOM      2  N   UNL     1       1.901   7.874  19.915  0.00  0.00    +0.000 NA
ATOM      3  O   UNL     1       1.338   9.170  19.999  0.00  0.00    +0.000 OA
ATOM      4  C   UNL     1       1.206   9.693  18.670  0.00  0.00    +0.000 C 
ATOM      5  C   UNL     1       2.195   8.911  17.834  0.00  0.00    +0.000 C 
ATOM      6  C   UNL     1       1.489  11.178  18.695  0.00  0.00    +0.000 C 
ATOM      7  C   UNL     1       0.140  11.841  19.053  0.00  0.00    +0.000 C 
ATOM      8  N   UNL     1      -0.854  10.938  18.432  0.00  0.00    +0.000 N 
ATOM      9  C   UNL     1      -2.243  10.962  18.441  0.00  0.00    +0.000 C 
ATOM     10  O   UNL     1      -2.877  10.038  17.916  0.00  0.00    +0.000 OA
ATOM     11  C   UNL     1      -0.249   9.613  18.202  0.00  0.00    +0.000 C 
ENDROOT
BRANCH   1  16
ATOM     12  C   UNL     1       4.562   5.409  16.662  0.00  0.00    +0.000 A 
ATOM     13  C   UNL     1       4.350   4.200  17.337  0.00  0.00    +0.000 A 
ATOM     14  C   UNL     1       3.486   4.121  18.424  0.00  0.00    +0.000 A 
ATOM     15  C   UNL     1       2.834   5.264  18.872  0.00  0.00    +0.000 A 
ATOM     16  C   UNL     1       3.054   6.497  18.241  0.00  0.00    +0.000 A 
ATOM     17  C   UNL     1       3.931   6.564  17.141  0.00  0.00    +0.000 A 
BRANCH  12  20
ATOM     18  C   UNL     1       6.664   4.955  15.441  0.00  0.00    +0.000 C 
ATOM     19  O   UNL     1       7.184   4.240  16.285  0.00  0.00    +0.000 OA
ATOM     20  N   UNL     1       5.399   5.502  15.524  0.00  0.00    +0.000 N 
ATOM     21  H   UNL     1       4.999   5.922  14.696  0.00  0.00    +0.000 HD
BRANCH  18  24
ATOM     22  C   UNL     1       6.154   3.505  12.827  0.00  0.00    +0.000 C 
ATOM     23  C   UNL     1       7.145   4.615  13.023  0.00  0.00    +0.000 C 
ATOM     24  C   UNL     1       7.379   5.277  14.174  0.00  0.00    +0.000 C 
ENDBRANCH  18  24
ENDBRANCH  12  20
ENDBRANCH   1  16
BRANCH   7  25
ATOM     25  C   UNL     1       0.342  13.310  18.620  0.00  0.00    +0.000 C 
ATOM     26  N   UNL     1      -0.672  14.183  18.780  0.00  0.00    +0.000 N 
ATOM     27  O   UNL     1       1.432  13.751  18.258  0.00  0.00    +0.000 OA
ATOM     28  H   UNL     1      -0.501  15.149  18.538  0.00  0.00    +0.000 HD
ATOM     29  H   UNL     1      -1.628  13.908  18.961  0.00  0.00    +0.000 HD
ENDBRANCH   7  25
BRANCH   9  30
ATOM     30  C   UNL     1      -3.022  12.110  19.101  0.00  0.00    +0.000 C 
BRANCH  30  31
ATOM     31  O   UNL     1      -2.574  12.343  20.439  0.00  0.00    +0.000 OA
BRANCH  31  32
ATOM     32  C   UNL     1      -3.559  12.550  21.376  0.00  0.00    +0.000 A 
ATOM     33  C   UNL     1      -4.854  12.740  20.871  0.00  0.00    +0.000 A 
ATOM     34  C   UNL     1      -5.919  13.031  21.728  0.00  0.00    +0.000 A 
ATOM     35  C   UNL     1      -5.701  13.082  23.101  0.00  0.00    +0.000 A 
ATOM     36 CL   UNL     1      -7.005  13.440  24.163  0.00  0.00    +0.000 Cl
ATOM     37  C   UNL     1      -4.430  12.837  23.618  0.00  0.00    +0.000 A 
ATOM     38  C   UNL     1      -3.358  12.574  22.756  0.00  0.00    +0.000 A 
ENDBRANCH  31  32
ENDBRANCH  30  31
ENDBRANCH   9  30
TORSDOF 7
ENDMDL
MODEL 4
REMARK VINA RESULT:      -8.5      1.603      1.898
REMARK  Name = 
REMARK  8 active torsions:
REMARK  status: ('A' for Active; 'I' for Inactive)
REMARK    1  A    between atoms: C_1  and  C_2
REMARK    2  A    between atoms: C_3  and  C_4
REMARK    3  A    between atoms: N_6  and  C_7
REMARK    4  A    between atoms: C_11  and  C_12
REMARK    5  A    between atoms: C_18  and  C_19
REMARK    6  A    between atoms: C_23  and  C_25
REMARK    7  A    between atoms: C_25  and  O_26
REMARK    8  A    between atoms: O_26  and  C_27
REMARK                            x       y       z     vdW  Elec       q    Type
REMARK                         _______ _______ _______ _____ _____    ______ ____
ROOT
ATOM      1  C   UNL     1       2.548   6.661  18.805  0.00  0.00    +0.000 C 
ATOM      2  N   UNL     1       2.046   6.938  19.968  0.00  0.00    +0.000 NA
ATOM      3  O   UNL     1       1.719   8.316  19.979  0.00  0.00    +0.000 OA
ATOM      4  C   UNL     1       1.764   8.802  18.630  0.00  0.00    +0.000 C 
ATOM      5  C   UNL     1       2.646   7.826  17.883  0.00  0.00    +0.000 C 
ATOM      6  C   UNL     1       2.306  10.213  18.634  0.00  0.00    +0.000 C 
ATOM      7  C   UNL     1       1.079  11.118  18.883  0.00  0.00    +0.000 C 
ATOM      8  N   UNL     1      -0.021  10.381  18.222  0.00  0.00    +0.000 N 
ATOM      9  C   UNL     1      -1.382  10.651  18.137  0.00  0.00    +0.000 C 
ATOM     10  O   UNL     1      -2.138   9.834  17.597  0.00  0.00    +0.000 OA
ATOM     11  C   UNL     1       0.350   8.963  18.068  0.00  0.00    +0.000 C 
ENDROOT
BRANCH   1  16
ATOM     12  C   UNL     1       4.518   3.927  17.064  0.00  0.00    +0.000 A 
ATOM     13  C   UNL     1       3.952   2.793  17.660  0.00  0.00    +0.000 A 
ATOM     14  C   UNL     1       2.925   2.903  18.592  0.00  0.00    +0.000 A 
ATOM     15  C   UNL     1       2.461   4.160  18.963  0.00  0.00    +0.000 A 
ATOM     16  C   UNL     1       3.034   5.316  18.413  0.00  0.00    +0.000 A 
ATOM     17  C   UNL     1       4.072   5.191  17.470  0.00  0.00    +0.000 A 
BRANCH  12  20
ATOM     18  C   UNL     1       5.742   4.778  15.091  0.00  0.00    +0.000 C 
ATOM     19  O   UNL     1       5.161   5.849  14.996  0.00  0.00    +0.000 OA
ATOM     20  N   UNL     1       5.531   3.837  16.079  0.00  0.00    +0.000 N 
ATOM     21  H   UNL     1       6.189   3.075  16.170  0.00  0.00    +0.000 HD
BRANCH  18  24
ATOM     22  C   UNL     1       5.170   3.447  12.427  0.00  0.00    +0.000 C 
ATOM     23  C   UNL     1       6.534   3.804  12.942  0.00  0.00    +0.000 C 
ATOM     24  C   UNL     1       6.807   4.403  14.118  0.00  0.00    +0.000 C 
ENDBRANCH  18  24
ENDBRANCH  12  20
ENDBRANCH   1  16
BRANCH   7  25
ATOM     25  C   UNL     1       1.565  12.510  18.424  0.00  0.00    +0.000 C 
ATOM     26  N   UNL     1       2.366  12.599  17.344  0.00  0.00    +0.000 N 
ATOM     27  O   UNL     1       1.146  13.556  18.920  0.00  0.00    +0.000 OA
ATOM     28  H   UNL     1       2.630  13.524  17.031  0.00  0.00    +0.000 HD
ATOM     29  H   UNL     1       2.851  11.811  16.937  0.00  0.00    +0.000 HD
ENDBRANCH   7  25
BRANCH   9  30
ATOM     30  C   UNL     1      -1.982  11.943  18.712  0.00  0.00    +0.000 C 
BRANCH  30  31
ATOM     31  O   UNL     1      -3.327  12.138  18.266  0.00  0.00    +0.000 OA
BRANCH  31  32
ATOM     32  C   UNL     1      -4.283  12.212  19.251  0.00  0.00    +0.000 A 
ATOM     33  C   UNL     1      -3.929  12.942  20.395  0.00  0.00    +0.000 A 
ATOM     34  C   UNL     1      -4.796  13.022  21.488  0.00  0.00    +0.000 A 
ATOM     35  C   UNL     1      -6.045  12.412  21.419  0.00  0.00    +0.000 A 
ATOM     36 CL   UNL     1      -7.118  12.504  22.761  0.00  0.00    +0.000 Cl
ATOM     37  C   UNL     1      -6.430  11.733  20.266  0.00  0.00    +0.000 A 
ATOM     38  C   UNL     1      -5.549  11.629  19.182  0.00  0.00    +0.000 A 
ENDBRANCH  31  32
ENDBRANCH  30  31
ENDBRANCH   9  30
TORSDOF 7
ENDMDL
MODEL 5
REMARK VINA RESULT:      -8.4      4.309     10.945
REMARK  Name = 
REMARK  8 active torsions:
REMARK  status: ('A' for Active; 'I' for Inactive)
REMARK    1  A    between atoms: C_1  and  C_2
REMARK    2  A    between atoms: C_3  and  C_4
REMARK    3  A    between atoms: N_6  and  C_7
REMARK    4  A    between atoms: C_11  and  C_12
REMARK    5  A    between atoms: C_18  and  C_19
REMARK    6  A    between atoms: C_23  and  C_25
REMARK    7  A    between atoms: C_25  and  O_26
REMARK    8  A    between atoms: O_26  and  C_27
REMARK                            x       y       z     vdW  Elec       q    Type
REMARK                         _______ _______ _______ _____ _____    ______ ____
ROOT
ATOM      1  C   UNL     1       1.268   8.913  19.361  0.00  0.00    +0.000 C 
ATOM      2  N   UNL     1       2.007   8.539  20.357  0.00  0.00    +0.000 NA
ATOM      3  O   UNL     1       2.630   7.319  19.998  0.00  0.00    +0.000 OA
ATOM      4  C   UNL     1       2.467   7.127  18.586  0.00  0.00    +0.000 C 
ATOM      5  C   UNL     1       1.277   7.978  18.202  0.00  0.00    +0.000 C 
ATOM      6  C   UNL     1       2.261   5.655  18.310  0.00  0.00    +0.000 C 
ATOM      7  C   UNL     1       3.683   5.063  18.192  0.00  0.00    +0.000 C 
ATOM      8  N   UNL     1       4.464   6.176  17.607  0.00  0.00    +0.000 N 
ATOM      9  C   UNL     1       5.816   6.286  17.307  0.00  0.00    +0.000 C 
ATOM     10  O   UNL     1       6.269   7.362  16.897  0.00  0.00    +0.000 OA
ATOM     11  C   UNL     1       3.766   7.453  17.845  0.00  0.00    +0.000 C 
ENDROOT
BRANCH   1  16
ATOM     12  C   UNL     1      -1.314  11.497  18.338  0.00  0.00    +0.000 A 
ATOM     13  C   UNL     1      -1.131  12.448  19.350  0.00  0.00    +0.000 A 
ATOM     14  C   UNL     1      -0.166  12.275  20.338  0.00  0.00    +0.000 A 
ATOM     15  C   UNL     1       0.620  11.129  20.341  0.00  0.00    +0.000 A 
ATOM     16  C   UNL     1       0.435  10.141  19.363  0.00  0.00    +0.000 A 
ATOM     17  C   UNL     1      -0.544  10.327  18.369  0.00  0.00    +0.000 A 
BRANCH  12  20
ATOM     18  C   UNL     1      -3.460  11.003  17.212  0.00  0.00    +0.000 C 
ATOM     19  O   UNL     1      -3.914  10.253  18.064  0.00  0.00    +0.000 OA
ATOM     20  N   UNL     1      -2.256  11.675  17.297  0.00  0.00    +0.000 N 
ATOM     21  H   UNL     1      -2.064  12.407  16.626  0.00  0.00    +0.000 HD
BRANCH  18  24
ATOM     22  C   UNL     1      -2.808   9.765  14.521  0.00  0.00    +0.000 C 
ATOM     23  C   UNL     1      -3.919  10.741  14.780  0.00  0.00    +0.000 C 
ATOM     24  C   UNL     1      -4.228  11.295  15.969  0.00  0.00    +0.000 C 
ENDBRANCH  18  24
ENDBRANCH  12  20
ENDBRANCH   1  16
BRANCH   7  25
ATOM     25  C   UNL     1       3.448   3.718  17.468  0.00  0.00    +0.000 C 
ATOM     26  N   UNL     1       4.152   2.637  17.856  0.00  0.00    +0.000 N 
ATOM     27  O   UNL     1       2.550   3.557  16.643  0.00  0.00    +0.000 OA
ATOM     28  H   UNL     1       3.945   1.756  17.403  0.00  0.00    +0.000 HD
ATOM     29  H   UNL     1       4.979   2.682  18.436  0.00  0.00    +0.000 HD
ENDBRANCH   7  25
BRANCH   9  30
ATOM     30  C   UNL     1       6.776   5.100  17.481  0.00  0.00    +0.000 C 
BRANCH  30  31
ATOM     31  O   UNL     1       7.609   4.929  16.330  0.00  0.00    +0.000 OA
BRANCH  31  32
ATOM     32  C   UNL     1       6.982   4.473  15.195  0.00  0.00    +0.000 A 
ATOM     33  C   UNL     1       7.523   4.913  13.978  0.00  0.00    +0.000 A 
ATOM     34  C   UNL     1       6.921   4.571  12.764  0.00  0.00    +0.000 A 
ATOM     35  C   UNL     1       5.803   3.743  12.761  0.00  0.00    +0.000 A 
ATOM     36 CL   UNL     1       5.056   3.317  11.271  0.00  0.00    +0.000 Cl
ATOM     37  C   UNL     1       5.292   3.253  13.961  0.00  0.00    +0.000 A 
ATOM     38  C   UNL     1       5.879   3.619  15.179  0.00  0.00    +0.000 A 
ENDBRANCH  31  32
ENDBRANCH  30  31
ENDBRANCH   9  30
TORSDOF 7
ENDMDL
MODEL 6
REMARK VINA RESULT:      -8.3      2.231      2.523
REMARK  Name = 
REMARK  8 active torsions:
REMARK  status: ('A' for Active; 'I' for Inactive)
REMARK    1  A    between atoms: C_1  and  C_2
REMARK    2  A    between atoms: C_3  and  C_4
REMARK    3  A    between atoms: N_6  and  C_7
REMARK    4  A    between atoms: C_11  and  C_12
REMARK    5  A    between atoms: C_18  and  C_19
REMARK    6  A    between atoms: C_23  and  C_25
REMARK    7  A    between atoms: C_25  and  O_26
REMARK    8  A    between atoms: O_26  and  C_27
REMARK                            x       y       z     vdW  Elec       q    Type
REMARK                         _______ _______ _______ _____ _____    ______ ____
ROOT
ATOM      1  C   UNL     1       1.493   7.842  20.156  0.00  0.00    +0.000 C 
ATOM      2  N   UNL     1       0.767   8.131  21.190  0.00  0.00    +0.000 NA
ATOM      3  O   UNL     1       0.211   9.416  20.980  0.00  0.00    +0.000 OA
ATOM      4  C   UNL     1       0.394   9.768  19.601  0.00  0.00    +0.000 C 
ATOM      5  C   UNL     1       1.541   8.909  19.119  0.00  0.00    +0.000 C 
ATOM      6  C   UNL     1       0.677  11.250  19.505  0.00  0.00    +0.000 C 
ATOM      7  C   UNL     1      -0.711  11.926  19.459  0.00  0.00    +0.000 C 
ATOM      8  N   UNL     1      -1.544  10.934  18.744  0.00  0.00    +0.000 N 
ATOM      9  C   UNL     1      -2.898  10.932  18.430  0.00  0.00    +0.000 C 
ATOM     10  O   UNL     1      -3.403   9.938  17.893  0.00  0.00    +0.000 OA
ATOM     11  C   UNL     1      -0.915   9.603  18.825  0.00  0.00    +0.000 C 
ENDROOT
BRANCH   1  16
ATOM     12  C   UNL     1       4.128   5.357  19.027  0.00  0.00    +0.000 A 
ATOM     13  C   UNL     1       3.708   4.215  19.722  0.00  0.00    +0.000 A 
ATOM     14  C   UNL     1       2.572   4.234  20.524  0.00  0.00    +0.000 A 
ATOM     15  C   UNL     1       1.845   5.411  20.664  0.00  0.00    +0.000 A 
ATOM     16  C   UNL     1       2.261   6.581  20.011  0.00  0.00    +0.000 A 
ATOM     17  C   UNL     1       3.412   6.549  19.202  0.00  0.00    +0.000 A 
BRANCH  12  20
ATOM     18  C   UNL     1       5.405   4.497  17.092  0.00  0.00    +0.000 C 
ATOM     19  O   UNL     1       4.557   3.719  16.678  0.00  0.00    +0.000 OA
ATOM     20  N   UNL     1       5.253   5.348  18.169  0.00  0.00    +0.000 N 
ATOM     21  H   UNL     1       5.942   6.075  18.311  0.00  0.00    +0.000 HD
BRANCH  18  24
ATOM     22  C   UNL     1       5.746   4.262  14.088  0.00  0.00    +0.000 C 
ATOM     23  C   UNL     1       6.855   4.504  15.069  0.00  0.00    +0.000 C 
ATOM     24  C   UNL     1       6.722   4.620  16.406  0.00  0.00    +0.000 C 
ENDBRANCH  18  24
ENDBRANCH  12  20
ENDBRANCH   1  16
BRANCH   7  25
ATOM     25  C   UNL     1      -0.402  13.334  18.903  0.00  0.00    +0.000 C 
ATOM     26  N   UNL     1      -0.505  13.550  17.577  0.00  0.00    +0.000 N 
ATOM     27  O   UNL     1      -0.195  14.304  19.632  0.00  0.00    +0.000 OA
ATOM     28  H   UNL     1      -0.348  14.491  17.243  0.00  0.00    +0.000 HD
ATOM     29  H   UNL     1      -0.558  12.811  16.889  0.00  0.00    +0.000 HD
ENDBRANCH   7  25
BRANCH   9  30
ATOM     30  C   UNL     1      -3.797  12.136  18.745  0.00  0.00    +0.000 C 
BRANCH  30  31
ATOM     31  O   UNL     1      -5.168  11.748  18.868  0.00  0.00    +0.000 OA
BRANCH  31  32
ATOM     32  C   UNL     1      -5.778  12.060  20.060  0.00  0.00    +0.000 A 
ATOM     33  C   UNL     1      -4.960  12.664  21.026  0.00  0.00    +0.000 A 
ATOM     34  C   UNL     1      -5.456  12.958  22.299  0.00  0.00    +0.000 A 
ATOM     35  C   UNL     1      -6.791  12.694  22.593  0.00  0.00    +0.000 A 
ATOM     36 CL   UNL     1      -7.410  13.052  24.158  0.00  0.00    +0.000 Cl
ATOM     37  C   UNL     1      -7.627  12.147  21.622  0.00  0.00    +0.000 A 
ATOM     38  C   UNL     1      -7.121  11.827  20.356  0.00  0.00    +0.000 A 
ENDBRANCH  31  32
ENDBRANCH  30  31
ENDBRANCH   9  30
TORSDOF 7
ENDMDL
MODEL 7
REMARK VINA RESULT:      -8.2      2.170      2.767
REMARK  Name = 
REMARK  8 active torsions:
REMARK  status: ('A' for Active; 'I' for Inactive)
REMARK    1  A    between atoms: C_1  and  C_2
REMARK    2  A    between atoms: C_3  and  C_4
REMARK    3  A    between atoms: N_6  and  C_7
REMARK    4  A    between atoms: C_11  and  C_12
REMARK    5  A    between atoms: C_18  and  C_19
REMARK    6  A    between atoms: C_23  and  C_25
REMARK    7  A    between atoms: C_25  and  O_26
REMARK    8  A    between atoms: O_26  and  C_27
REMARK                            x       y       z     vdW  Elec       q    Type
REMARK                         _______ _______ _______ _____ _____    ______ ____
ROOT
ATOM      1  C   UNL     1       2.601   8.311  17.844  0.00  0.00    +0.000 C 
ATOM      2  N   UNL     1       2.926   9.551  17.657  0.00  0.00    +0.000 NA
ATOM      3  O   UNL     1       1.754  10.332  17.808  0.00  0.00    +0.000 OA
ATOM      4  C   UNL     1       0.742   9.514  18.412  0.00  0.00    +0.000 C 
ATOM      5  C   UNL     1       1.156   8.088  18.125  0.00  0.00    +0.000 C 
ATOM      6  C   UNL     1      -0.601   9.876  17.820  0.00  0.00    +0.000 C 
ATOM      7  C   UNL     1      -1.108  11.068  18.663  0.00  0.00    +0.000 C 
ATOM      8  N   UNL     1      -0.557  10.787  20.007  0.00  0.00    +0.000 N 
ATOM      9  C   UNL     1      -0.617  11.513  21.191  0.00  0.00    +0.000 C 
ATOM     10  O   UNL     1       0.002  11.117  22.186  0.00  0.00    +0.000 OA
ATOM     11  C   UNL     1       0.585   9.861  19.895  0.00  0.00    +0.000 C 
ENDROOT
BRANCH   1  16
ATOM     12  C   UNL     1       5.191   5.911  16.456  0.00  0.00    +0.000 A 
ATOM     13  C   UNL     1       5.352   5.056  17.553  0.00  0.00    +0.000 A 
ATOM     14  C   UNL     1       4.614   5.229  18.719  0.00  0.00    +0.000 A 
ATOM     15  C   UNL     1       3.714   6.284  18.816  0.00  0.00    +0.000 A 
ATOM     16  C   UNL     1       3.557   7.181  17.748  0.00  0.00    +0.000 A 
ATOM     17  C   UNL     1       4.310   6.994  16.573  0.00  0.00    +0.000 A 
BRANCH  12  20
ATOM     18  C   UNL     1       6.315   4.499  14.765  0.00  0.00    +0.000 C 
ATOM     19  O   UNL     1       6.049   3.415  15.265  0.00  0.00    +0.000 OA
ATOM     20  N   UNL     1       5.896   5.725  15.243  0.00  0.00    +0.000 N 
ATOM     21  H   UNL     1       6.017   6.539  14.655  0.00  0.00    +0.000 HD
BRANCH  18  24
ATOM     22  C   UNL     1       5.442   3.270  12.134  0.00  0.00    +0.000 C 
ATOM     23  C   UNL     1       6.722   4.021  12.357  0.00  0.00    +0.000 C 
ATOM     24  C   UNL     1       7.123   4.581  13.516  0.00  0.00    +0.000 C 
ENDBRANCH  18  24
ENDBRANCH  12  20
ENDBRANCH   1  16
BRANCH   7  25
ATOM     25  C   UNL     1      -2.621  11.102  18.355  0.00  0.00    +0.000 C 
ATOM     26  N   UNL     1      -3.186  10.045  17.740  0.00  0.00    +0.000 N 
ATOM     27  O   UNL     1      -3.361  11.995  18.767  0.00  0.00    +0.000 OA
ATOM     28  H   UNL     1      -4.187  10.068  17.595  0.00  0.00    +0.000 HD
ATOM     29  H   UNL     1      -2.661   9.322  17.268  0.00  0.00    +0.000 HD
ENDBRANCH   7  25
BRANCH   9  30
ATOM     30  C   UNL     1      -1.430  12.811  21.296  0.00  0.00    +0.000 C 
BRANCH  30  31
ATOM     31  O   UNL     1      -1.749  13.120  22.656  0.00  0.00    +0.000 OA
BRANCH  31  32
ATOM     32  C   UNL     1      -3.071  12.987  23.009  0.00  0.00    +0.000 A 
ATOM     33  C   UNL     1      -4.006  13.322  22.019  0.00  0.00    +0.000 A 
ATOM     34  C   UNL     1      -5.376  13.294  22.292  0.00  0.00    +0.000 A 
ATOM     35  C   UNL     1      -5.818  12.880  23.544  0.00  0.00    +0.000 A 
ATOM     36 CL   UNL     1      -7.503  12.843  23.889  0.00  0.00    +0.000 Cl
ATOM     37  C   UNL     1      -4.900  12.490  24.517  0.00  0.00    +0.000 A 
ATOM     38  C   UNL     1      -3.526  12.545  24.252  0.00  0.00    +0.000 A 
ENDBRANCH  31  32
ENDBRANCH  30  31
ENDBRANCH   9  30
TORSDOF 7
ENDMDL
MODEL 8
REMARK VINA RESULT:      -8.2      3.371      5.188
REMARK  Name = 
REMARK  8 active torsions:
REMARK  status: ('A' for Active; 'I' for Inactive)
REMARK    1  A    between atoms: C_1  and  C_2
REMARK    2  A    between atoms: C_3  and  C_4
REMARK    3  A    between atoms: N_6  and  C_7
REMARK    4  A    between atoms: C_11  and  C_12
REMARK    5  A    between atoms: C_18  and  C_19
REMARK    6  A    between atoms: C_23  and  C_25
REMARK    7  A    between atoms: C_25  and  O_26
REMARK    8  A    between atoms: O_26  and  C_27
REMARK                            x       y       z     vdW  Elec       q    Type
REMARK                         _______ _______ _______ _____ _____    ______ ____
ROOT
ATOM      1  C   UNL     1       1.678   8.182  19.367  0.00  0.00    +0.000 C 
ATOM      2  N   UNL     1       1.969   8.897  18.326  0.00  0.00    +0.000 NA
ATOM      3  O   UNL     1       1.205  10.086  18.392  0.00  0.00    +0.000 OA
ATOM      4  C   UNL     1       0.653  10.196  19.712  0.00  0.00    +0.000 C 
ATOM      5  C   UNL     1       0.657   8.788  20.265  0.00  0.00    +0.000 C 
ATOM      6  C   UNL     1      -0.731  10.797  19.619  0.00  0.00    +0.000 C 
ATOM      7  C   UNL     1      -0.510  12.326  19.621  0.00  0.00    +0.000 C 
ATOM      8  N   UNL     1       0.687  12.492  20.474  0.00  0.00    +0.000 N 
ATOM      9  C   UNL     1       1.413  13.624  20.822  0.00  0.00    +0.000 C 
ATOM     10  O   UNL     1       2.449  13.509  21.490  0.00  0.00    +0.000 OA
ATOM     11  C   UNL     1       1.434  11.222  20.538  0.00  0.00    +0.000 C 
ENDROOT
BRANCH   1  16
ATOM     12  C   UNL     1       3.926   5.134  19.145  0.00  0.00    +0.000 A 
ATOM     13  C   UNL     1       3.365   4.337  20.152  0.00  0.00    +0.000 A 
ATOM     14  C   UNL     1       2.257   4.762  20.877  0.00  0.00    +0.000 A 
ATOM     15  C   UNL     1       1.701   6.010  20.621  0.00  0.00    +0.000 A 
ATOM     16  C   UNL     1       2.262   6.847  19.645  0.00  0.00    +0.000 A 
ATOM     17  C   UNL     1       3.384   6.406  18.918  0.00  0.00    +0.000 A 
BRANCH  12  20
ATOM     18  C   UNL     1       6.347   4.948  18.674  0.00  0.00    +0.000 C 
ATOM     19  O   UNL     1       6.747   5.473  19.703  0.00  0.00    +0.000 OA
ATOM     20  N   UNL     1       5.023   4.702  18.363  0.00  0.00    +0.000 N 
ATOM     21  H   UNL     1       4.816   4.101  17.577  0.00  0.00    +0.000 HD
BRANCH  18  24
ATOM     22  C   UNL     1       6.069   5.588  15.723  0.00  0.00    +0.000 C 
ATOM     23  C   UNL     1       7.164   4.760  16.332  0.00  0.00    +0.000 C 
ATOM     24  C   UNL     1       7.308   4.473  17.640  0.00  0.00    +0.000 C 
ENDBRANCH  18  24
ENDBRANCH  12  20
ENDBRANCH   1  16
BRANCH   7  25
ATOM     25  C   UNL     1      -1.902  12.885  19.992  0.00  0.00    +0.000 C 
ATOM     26  N   UNL     1      -2.956  12.581  19.211  0.00  0.00    +0.000 N 
ATOM     27  O   UNL     1      -2.116  13.486  21.044  0.00  0.00    +0.000 OA
ATOM     28  H   UNL     1      -3.866  12.915  19.501  0.00  0.00    +0.000 HD
ATOM     29  H   UNL     1      -2.875  12.195  18.280  0.00  0.00    +0.000 HD
ENDBRANCH   7  25
BRANCH   9  30
ATOM     30  C   UNL     1       0.968  15.028  20.387  0.00  0.00    +0.000 C 
BRANCH  30  31
ATOM     31  O   UNL     1       1.409  15.328  19.060  0.00  0.00    +0.000 OA
BRANCH  31  32
ATOM     32  C   UNL     1       2.759  15.534  18.905  0.00  0.00    +0.000 A 
ATOM     33  C   UNL     1       3.301  16.609  19.625  0.00  0.00    +0.000 A 
ATOM     34  C   UNL     1       4.648  16.954  19.487  0.00  0.00    +0.000 A 
ATOM     35  C   UNL     1       5.472  16.190  18.665  0.00  0.00    +0.000 A 
ATOM     36 CL   UNL     1       7.131  16.608  18.489  0.00  0.00    +0.000 Cl
ATOM     37  C   UNL     1       4.957  15.085  17.991  0.00  0.00    +0.000 A 
ATOM     38  C   UNL     1       3.601  14.757  18.108  0.00  0.00    +0.000 A 
ENDBRANCH  31  32
ENDBRANCH  30  31
ENDBRANCH   9  30
TORSDOF 7
ENDMDL
MODEL 9
REMARK VINA RESULT:      -8.2      2.565      3.790
REMARK  Name = 
REMARK  8 active torsions:
REMARK  status: ('A' for Active; 'I' for Inactive)
REMARK    1  A    between atoms: C_1  and  C_2
REMARK    2  A    between atoms: C_3  and  C_4
REMARK    3  A    between atoms: N_6  and  C_7
REMARK    4  A    between atoms: C_11  and  C_12
REMARK    5  A    between atoms: C_18  and  C_19
REMARK    6  A    between atoms: C_23  and  C_25
REMARK    7  A    between atoms: C_25  and  O_26
REMARK    8  A    between atoms: O_26  and  C_27
REMARK                            x       y       z     vdW  Elec       q    Type
REMARK                         _______ _______ _______ _____ _____    ______ ____
ROOT
ATOM      1  C   UNL     1       1.386   9.100  19.392  0.00  0.00    +0.000 C 
ATOM      2  N   UNL     1       0.735   8.962  20.504  0.00  0.00    +0.000 NA
ATOM      3  O   UNL     1       0.000  10.152  20.724  0.00  0.00    +0.000 OA
ATOM      4  C   UNL     1      -0.001  10.914  19.508  0.00  0.00    +0.000 C 
ATOM      5  C   UNL     1       1.193  10.417  18.724  0.00  0.00    +0.000 C 
ATOM      6  C   UNL     1       0.078  12.385  19.849  0.00  0.00    +0.000 C 
ATOM      7  C   UNL     1      -1.383  12.825  20.087  0.00  0.00    +0.000 C 
ATOM      8  N   UNL     1      -2.149  11.969  19.153  0.00  0.00    +0.000 N 
ATOM      9  C   UNL     1      -3.515  11.852  18.931  0.00  0.00    +0.000 C 
ATOM     10  O   UNL     1      -3.939  10.993  18.148  0.00  0.00    +0.000 OA
ATOM     11  C   UNL     1      -1.349  10.784  18.794  0.00  0.00    +0.000 C 
ENDROOT
BRANCH   1  16
ATOM     12  C   UNL     1       3.400   5.906  19.033  0.00  0.00    +0.000 A 
ATOM     13  C   UNL     1       3.997   6.126  17.785  0.00  0.00    +0.000 A 
ATOM     14  C   UNL     1       3.778   7.303  17.076  0.00  0.00    +0.000 A 
ATOM     15  C   UNL     1       2.933   8.276  17.599  0.00  0.00    +0.000 A 
ATOM     16  C   UNL     1       2.291   8.069  18.829  0.00  0.00    +0.000 A 
ATOM     17  C   UNL     1       2.521   6.874  19.536  0.00  0.00    +0.000 A 
BRANCH  12  20
ATOM     18  C   UNL     1       3.174   3.481  19.465  0.00  0.00    +0.000 C 
ATOM     19  O   UNL     1       2.576   3.195  18.437  0.00  0.00    +0.000 OA
ATOM     20  N   UNL     1       3.646   4.737  19.792  0.00  0.00    +0.000 N 
ATOM     21  H   UNL     1       4.283   4.825  20.573  0.00  0.00    +0.000 HD
BRANCH  18  24
ATOM     22  C   UNL     1       1.303   2.745  21.735  0.00  0.00    +0.000 C 
ATOM     23  C   UNL     1       2.648   2.126  21.485  0.00  0.00    +0.000 C 
ATOM     24  C   UNL     1       3.488   2.434  20.477  0.00  0.00    +0.000 C 
ENDBRANCH  18  24
ENDBRANCH  12  20
ENDBRANCH   1  16
BRANCH   7  25
ATOM     25  C   UNL     1      -1.314  14.364  19.966  0.00  0.00    +0.000 C 
ATOM     26  N   UNL     1      -0.762  14.908  18.865  0.00  0.00    +0.000 N 
ATOM     27  O   UNL     1      -1.863  15.117  20.770  0.00  0.00    +0.000 OA
ATOM     28  H   UNL     1      -0.774  15.916  18.784  0.00  0.00    +0.000 HD
ATOM     29  H   UNL     1      -0.192  14.393  18.208  0.00  0.00    +0.000 HD
ENDBRANCH   7  25
BRANCH   9  30
ATOM     30  C   UNL     1      -4.526  12.761  19.645  0.00  0.00    +0.000 C 
BRANCH  30  31
ATOM     31  O   UNL     1      -4.782  12.311  20.979  0.00  0.00    +0.000 OA
BRANCH  31  32
ATOM     32  C   UNL     1      -4.445  13.186  21.984  0.00  0.00    +0.000 A 
ATOM     33  C   UNL     1      -3.520  12.711  22.925  0.00  0.00    +0.000 A 
ATOM     34  C   UNL     1      -3.161  13.488  24.029  0.00  0.00    +0.000 A 
ATOM     35  C   UNL     1      -3.689  14.768  24.169  0.00  0.00    +0.000 A 
ATOM     36 CL   UNL     1      -3.253  15.731  25.526  0.00  0.00    +0.000 Cl
ATOM     37  C   UNL     1      -4.565  15.272  23.210  0.00  0.00    +0.000 A 
ATOM     38  C   UNL     1      -4.946  14.482  22.119  0.00  0.00    +0.000 A 
ENDBRANCH  31  32
ENDBRANCH  30  31
ENDBRANCH   9  30
TORSDOF 7
ENDMDL
