MODEL 1
REMARK VINA RESULT:      -7.2      0.000      0.000
REMARK  Name = 
REMARK  7 active torsions:
REMARK  status: ('A' for Active; 'I' for Inactive)
REMARK    1  A    between atoms: C_1  and  O_2
REMARK    2  A    between atoms: O_2  and  C_3
REMARK    3  A    between atoms: C_6  and  C_7
REMARK    4  A    between atoms: C_9  and  N_10
REMARK    5  A    between atoms: C_11  and  C_12
REMARK    6  A    between atoms: N_16  and  C_17
REMARK    7  A    between atoms: C_17  and  C_18
REMARK                            x       y       z     vdW  Elec       q    Type
REMARK                         _______ _______ _______ _____ _____    ______ ____
ROOT
ATOM      1  N   UNL     1      10.149  14.274  17.935  0.00  0.00    +0.000 N 
ATOM      2  C   UNL     1       9.424  15.419  17.853  0.00  0.00    +0.000 A 
ATOM      3  N   UNL     1       9.884  16.273  16.974  0.00  0.00    +0.000 NA
ATOM      4  N   UNL     1      11.005  15.671  16.473  0.00  0.00    +0.000 N 
ATOM      5  C   UNL     1      11.215  14.435  17.077  0.00  0.00    +0.000 A 
ATOM      6  O   UNL     1      12.150  13.685  16.844  0.00  0.00    +0.000 OA
ATOM      7  H   UNL     1      11.571  16.071  15.737  0.00  0.00    +0.000 HD
ENDROOT
BRANCH   1  14
ATOM      8  C   UNL     1      10.452  13.026  20.025  0.00  0.00    +0.000 A 
ATOM      9  C   UNL     1      10.323  11.819  20.716  0.00  0.00    +0.000 A 
ATOM     10  C   UNL     1       9.695  10.723  20.117  0.00  0.00    +0.000 A 
ATOM     11  C   UNL     1       9.149  10.828  18.835  0.00  0.00    +0.000 A 
ATOM     12  C   UNL     1       8.504   9.645  18.172  0.00  0.00    +0.000 C 
ATOM     13  C   UNL     1       9.246  12.046  18.153  0.00  0.00    +0.000 A 
ATOM     14  C   UNL     1       9.930  13.132  18.722  0.00  0.00    +0.000 A 
BRANCH   8  16
ATOM     15  C   UNL     1      10.301  14.808  21.593  0.00  0.00    +0.000 C 
ATOM     16  O   UNL     1      11.023  14.155  20.553  0.00  0.00    +0.000 OA
ENDBRANCH   8  16
ENDBRANCH   1  14
BRANCH   2  17
ATOM     17  C   UNL     1       8.191  15.718  18.686  0.00  0.00    +0.000 C 
ATOM     18  C   UNL     1       8.035  17.174  19.130  0.00  0.00    +0.000 C 
ATOM     19  C   UNL     1       6.554  17.348  19.299  0.00  0.00    +0.000 C 
ATOM     20  O   UNL     1       6.021  18.274  19.886  0.00  0.00    +0.000 OA
ATOM     21  N   UNL     1       5.933  16.320  18.616  0.00  0.00    +0.000 N 
ATOM     22  C   UNL     1       6.885  15.481  17.922  0.00  0.00    +0.000 C 
BRANCH  21  23
ATOM     23  C   UNL     1       4.518  16.336  18.314  0.00  0.00    +0.000 C 
BRANCH  23  24
ATOM     24  C   UNL     1       3.740  15.280  19.057  0.00  0.00    +0.000 A 
ATOM     25  C   UNL     1       3.166  14.199  18.368  0.00  0.00    +0.000 A 
ATOM     26  C   UNL     1       2.512  13.179  19.062  0.00  0.00    +0.000 A 
ATOM     27  C   UNL     1       2.413  13.236  20.451  0.00  0.00    +0.000 A 
ATOM     28  C   UNL     1       2.950  14.319  21.143  0.00  0.00    +0.000 A 
ATOM     29  C   UNL     1       3.604  15.340  20.450  0.00  0.00    +0.000 A 
ENDBRANCH  23  24
ENDBRANCH  21  23
ENDBRANCH   2  17
TORSDOF 5
ENDMDL
MODEL 2
REMARK VINA RESULT:      -7.1      8.418     10.011
REMARK  Name = 
REMARK  7 active torsions:
REMARK  status: ('A' for Active; 'I' for Inactive)
REMARK    1  A    between atoms: C_1  and  O_2
REMARK    2  A    between atoms: O_2  and  C_3
REMARK    3  A    between atoms: C_6  and  C_7
REMARK    4  A    between atoms: C_9  and  N_10
REMARK    5  A    between atoms: C_11  and  C_12
REMARK    6  A    between atoms: N_16  and  C_17
REMARK    7  A    between atoms: C_17  and  C_18
REMARK                            x       y       z     vdW  Elec       q    Type
REMARK                         _______ _______ _______ _____ _____    ______ ____
ROOT
ATOM      1  N   UNL     1       4.109   3.987  18.938  0.00  0.00    +0.000 N 
ATOM      2  C   UNL     1       3.310   4.874  19.585  0.00  0.00    +0.000 A 
ATOM      3  N   UNL     1       2.506   4.321  20.457  0.00  0.00    +0.000 NA
ATOM      4  N   UNL     1       2.763   2.982  20.352  0.00  0.00    +0.000 N 
ATOM      5  C   UNL     1       3.737   2.739  19.388  0.00  0.00    +0.000 A 
ATOM      6  O   UNL     1       4.151   1.636  19.065  0.00  0.00    +0.000 OA
ATOM      7  H   UNL     1       2.320   2.283  20.932  0.00  0.00    +0.000 HD
ENDROOT
BRANCH   1  14
ATOM      8  C   UNL     1       6.342   4.806  18.335  0.00  0.00    +0.000 A 
ATOM      9  C   UNL     1       7.253   5.139  17.329  0.00  0.00    +0.000 A 
ATOM     10  C   UNL     1       6.942   4.905  15.986  0.00  0.00    +0.000 A 
ATOM     11  C   UNL     1       5.736   4.295  15.630  0.00  0.00    +0.000 A 
ATOM     12  C   UNL     1       5.381   4.072  14.188  0.00  0.00    +0.000 C 
ATOM     13  C   UNL     1       4.836   3.929  16.637  0.00  0.00    +0.000 A 
ATOM     14  C   UNL     1       5.112   4.218  17.983  0.00  0.00    +0.000 A 
BRANCH   8  16
ATOM     15  C   UNL     1       7.834   5.553  20.030  0.00  0.00    +0.000 C 
ATOM     16  O   UNL     1       6.584   4.972  19.675  0.00  0.00    +0.000 OA
ENDBRANCH   8  16
ENDBRANCH   1  14
BRANCH   2  17
ATOM     17  C   UNL     1       3.318   6.372  19.344  0.00  0.00    +0.000 C 
ATOM     18  C   UNL     1       3.294   6.802  17.875  0.00  0.00    +0.000 C 
ATOM     19  C   UNL     1       2.649   8.157  17.900  0.00  0.00    +0.000 C 
ATOM     20  O   UNL     1       2.670   8.958  16.982  0.00  0.00    +0.000 OA
ATOM     21  N   UNL     1       1.988   8.281  19.107  0.00  0.00    +0.000 N 
ATOM     22  C   UNL     1       2.071   7.070  19.895  0.00  0.00    +0.000 C 
BRANCH  21  23
ATOM     23  C   UNL     1       1.017   9.325  19.353  0.00  0.00    +0.000 C 
BRANCH  23  24
ATOM     24  C   UNL     1       0.619   9.436  20.803  0.00  0.00    +0.000 A 
ATOM     25  C   UNL     1       1.465   8.951  21.814  0.00  0.00    +0.000 A 
ATOM     26  C   UNL     1       1.136   9.122  23.160  0.00  0.00    +0.000 A 
ATOM     27  C   UNL     1      -0.048   9.767  23.510  0.00  0.00    +0.000 A 
ATOM     28  C   UNL     1      -0.911  10.225  22.516  0.00  0.00    +0.000 A 
ATOM     29  C   UNL     1      -0.583  10.054  21.169  0.00  0.00    +0.000 A 
ENDBRANCH  23  24
ENDBRANCH  21  23
ENDBRANCH   2  17
TORSDOF 5
ENDMDL
MODEL 3
REMARK VINA RESULT:      -7.1      6.357      9.883
REMARK  Name = 
REMARK  7 active torsions:
REMARK  status: ('A' for Active; 'I' for Inactive)
REMARK    1  A    between atoms: C_1  and  O_2
REMARK    2  A    between atoms: O_2  and  C_3
REMARK    3  A    between atoms: C_6  and  C_7
REMARK    4  A    between atoms: C_9  and  N_10
REMARK    5  A    between atoms: C_11  and  C_12
REMARK    6  A    between atoms: N_16  and  C_17
REMARK    7  A    between atoms: C_17  and  C_18
REMARK                            x       y       z     vdW  Elec       q    Type
REMARK                         _______ _______ _______ _____ _____    ______ ____
ROOT
ATOM      1  N   UNL     1       0.579  11.639  18.681  0.00  0.00    +0.000 N 
ATOM      2  C   UNL     1       0.554  10.294  18.495  0.00  0.00    +0.000 A 
ATOM      3  N   UNL     1      -0.536   9.862  17.915  0.00  0.00    +0.000 NA
ATOM      4  N   UNL     1      -1.296  10.987  17.743  0.00  0.00    +0.000 N 
ATOM      5  C   UNL     1      -0.640  12.108  18.241  0.00  0.00    +0.000 A 
ATOM      6  O   UNL     1      -1.087  13.245  18.244  0.00  0.00    +0.000 OA
ATOM      7  H   UNL     1      -2.195  10.986  17.281  0.00  0.00    +0.000 HD
ENDROOT
BRANCH   1  14
ATOM      8  C   UNL     1       1.654  12.724  20.602  0.00  0.00    +0.000 A 
ATOM      9  C   UNL     1       2.596  13.641  21.072  0.00  0.00    +0.000 A 
ATOM     10  C   UNL     1       3.459  14.290  20.183  0.00  0.00    +0.000 A 
ATOM     11  C   UNL     1       3.422  14.002  18.817  0.00  0.00    +0.000 A 
ATOM     12  C   UNL     1       4.321  14.720  17.852  0.00  0.00    +0.000 C 
ATOM     13  C   UNL     1       2.503  13.058  18.346  0.00  0.00    +0.000 A 
ATOM     14  C   UNL     1       1.591  12.448  19.222  0.00  0.00    +0.000 A 
BRANCH   8  16
ATOM     15  C   UNL     1      -0.281  12.751  21.984  0.00  0.00    +0.000 C 
ATOM     16  O   UNL     1       0.797  12.021  21.409  0.00  0.00    +0.000 OA
ENDBRANCH   8  16
ENDBRANCH   1  14
BRANCH   2  17
ATOM     17  C   UNL     1       1.666   9.349  18.909  0.00  0.00    +0.000 C 
ATOM     18  C   UNL     1       1.302   8.345  20.006  0.00  0.00    +0.000 C 
ATOM     19  C   UNL     1       2.221   7.184  19.760  0.00  0.00    +0.000 C 
ATOM     20  O   UNL     1       2.441   6.286  20.554  0.00  0.00    +0.000 OA
ATOM     21  N   UNL     1       2.698   7.297  18.468  0.00  0.00    +0.000 N 
ATOM     22  C   UNL     1       2.114   8.423  17.774  0.00  0.00    +0.000 C 
BRANCH  21  23
ATOM     23  C   UNL     1       3.368   6.207  17.793  0.00  0.00    +0.000 C 
BRANCH  23  24
ATOM     24  C   UNL     1       4.860   6.201  18.009  0.00  0.00    +0.000 A 
ATOM     25  C   UNL     1       5.428   5.441  19.045  0.00  0.00    +0.000 A 
ATOM     26  C   UNL     1       6.814   5.373  19.199  0.00  0.00    +0.000 A 
ATOM     27  C   UNL     1       7.646   6.073  18.329  0.00  0.00    +0.000 A 
ATOM     28  C   UNL     1       7.094   6.856  17.318  0.00  0.00    +0.000 A 
ATOM     29  C   UNL     1       5.708   6.926  17.162  0.00  0.00    +0.000 A 
ENDBRANCH  23  24
ENDBRANCH  21  23
ENDBRANCH   2  17
TORSDOF 5
ENDMDL
MODEL 4
REMARK VINA RESULT:      -6.9      8.163     10.230
REMARK  Name = 
REMARK  7 active torsions:
REMARK  status: ('A' for Active; 'I' for Inactive)
REMARK    1  A    between atoms: C_1  and  O_2
REMARK    2  A    between atoms: O_2  and  C_3
REMARK    3  A    between atoms: C_6  and  C_7
REMARK    4  A    between atoms: C_9  and  N_10
REMARK    5  A    between atoms: C_11  and  C_12
REMARK    6  A    between atoms: N_16  and  C_17
REMARK    7  A    between atoms: C_17  and  C_18
REMARK                            x       y       z     vdW  Elec       q    Type
REMARK                         _______ _______ _______ _____ _____    ______ ____
ROOT
ATOM      1  N   UNL     1       3.193   4.765  19.685  0.00  0.00    +0.000 N 
ATOM      2  C   UNL     1       2.389   5.764  20.130  0.00  0.00    +0.000 A 
ATOM      3  N   UNL     1       1.444   5.360  20.940  0.00  0.00    +0.000 NA
ATOM      4  N   UNL     1       1.610   4.003  21.002  0.00  0.00    +0.000 N 
ATOM      5  C   UNL     1       2.674   3.598  20.203  0.00  0.00    +0.000 A 
ATOM      6  O   UNL     1       3.040   2.443  20.047  0.00  0.00    +0.000 OA
ATOM      7  H   UNL     1       1.047   3.400  21.585  0.00  0.00    +0.000 HD
ENDROOT
BRANCH   1  14
ATOM      8  C   UNL     1       4.283   4.362  17.524  0.00  0.00    +0.000 A 
ATOM      9  C   UNL     1       5.464   4.323  16.779  0.00  0.00    +0.000 A 
ATOM     10  C   UNL     1       6.675   4.728  17.349  0.00  0.00    +0.000 A 
ATOM     11  C   UNL     1       6.718   5.220  18.657  0.00  0.00    +0.000 A 
ATOM     12  C   UNL     1       8.019   5.624  19.286  0.00  0.00    +0.000 C 
ATOM     13  C   UNL     1       5.530   5.293  19.394  0.00  0.00    +0.000 A 
ATOM     14  C   UNL     1       4.321   4.829  18.852  0.00  0.00    +0.000 A 
BRANCH   8  16
ATOM     15  C   UNL     1       2.820   2.627  16.812  0.00  0.00    +0.000 C 
ATOM     16  O   UNL     1       3.052   4.015  17.029  0.00  0.00    +0.000 OA
ENDBRANCH   8  16
ENDBRANCH   1  14
BRANCH   2  17
ATOM     17  C   UNL     1       2.540   7.224  19.746  0.00  0.00    +0.000 C 
ATOM     18  C   UNL     1       2.279   7.547  18.272  0.00  0.00    +0.000 C 
ATOM     19  C   UNL     1       1.830   8.979  18.285  0.00  0.00    +0.000 C 
ATOM     20  O   UNL     1       1.770   9.701  17.305  0.00  0.00    +0.000 OA
ATOM     21  N   UNL     1       1.444   9.283  19.576  0.00  0.00    +0.000 N 
ATOM     22  C   UNL     1       1.528   8.133  20.449  0.00  0.00    +0.000 C 
BRANCH  21  23
ATOM     23  C   UNL     1       0.683  10.471  19.896  0.00  0.00    +0.000 C 
BRANCH  23  24
ATOM     24  C   UNL     1      -0.517  10.666  19.004  0.00  0.00    +0.000 A 
ATOM     25  C   UNL     1      -0.752  11.904  18.385  0.00  0.00    +0.000 A 
ATOM     26  C   UNL     1      -1.818  12.065  17.498  0.00  0.00    +0.000 A 
ATOM     27  C   UNL     1      -2.668  10.994  17.230  0.00  0.00    +0.000 A 
ATOM     28  C   UNL     1      -2.464   9.769  17.863  0.00  0.00    +0.000 A 
ATOM     29  C   UNL     1      -1.398   9.607  18.751  0.00  0.00    +0.000 A 
ENDBRANCH  23  24
ENDBRANCH  21  23
ENDBRANCH   2  17
TORSDOF 5
ENDMDL
MODEL 5
REMARK VINA RESULT:      -6.9      8.682     11.589
REMARK  Name = 
REMARK  7 active torsions:
REMARK  status: ('A' for Active; 'I' for Inactive)
REMARK    1  A    between atoms: C_1  and  O_2
REMARK    2  A    between atoms: O_2  and  C_3
REMARK    3  A    between atoms: C_6  and  C_7
REMARK    4  A    between atoms: C_9  and  N_10
REMARK    5  A    between atoms: C_11  and  C_12
REMARK    6  A    between atoms: N_16  and  C_17
REMARK    7  A    between atoms: C_17  and  C_18
REMARK                            x       y       z     vdW  Elec       q    Type
REMARK                         _______ _______ _______ _____ _____    ______ ____
ROOT
ATOM      1  N   UNL     1      -0.580  10.797  21.855  0.00  0.00    +0.000 N 
ATOM      2  C   UNL     1      -0.547  10.399  20.557  0.00  0.00    +0.000 A 
ATOM      3  N   UNL     1       0.054   9.252  20.373  0.00  0.00    +0.000 NA
ATOM      4  N   UNL     1       0.479   8.889  21.621  0.00  0.00    +0.000 N 
ATOM      5  C   UNL     1       0.126   9.850  22.563  0.00  0.00    +0.000 A 
ATOM      6  O   UNL     1       0.393   9.803  23.754  0.00  0.00    +0.000 OA
ATOM      7  H   UNL     1       0.952   8.017  21.817  0.00  0.00    +0.000 HD
ENDROOT
BRANCH   1  14
ATOM      8  C   UNL     1      -0.505  13.174  22.460  0.00  0.00    +0.000 A 
ATOM      9  C   UNL     1      -1.078  14.240  23.157  0.00  0.00    +0.000 A 
ATOM     10  C   UNL     1      -2.294  14.076  23.828  0.00  0.00    +0.000 A 
ATOM     11  C   UNL     1      -2.978  12.859  23.777  0.00  0.00    +0.000 A 
ATOM     12  C   UNL     1      -4.266  12.665  24.523  0.00  0.00    +0.000 C 
ATOM     13  C   UNL     1      -2.423  11.798  23.050  0.00  0.00    +0.000 A 
ATOM     14  C   UNL     1      -1.173  11.935  22.426  0.00  0.00    +0.000 A 
BRANCH   8  16
ATOM     15  C   UNL     1       0.697  14.210  20.688  0.00  0.00    +0.000 C 
ATOM     16  O   UNL     1       0.665  13.262  21.750  0.00  0.00    +0.000 OA
ENDBRANCH   8  16
ENDBRANCH   1  14
BRANCH   2  17
ATOM     17  C   UNL     1      -1.140  11.185  19.402  0.00  0.00    +0.000 C 
ATOM     18  C   UNL     1      -1.119  10.475  18.046  0.00  0.00    +0.000 C 
ATOM     19  C   UNL     1      -2.275  11.077  17.301  0.00  0.00    +0.000 C 
ATOM     20  O   UNL     1      -2.456  10.983  16.099  0.00  0.00    +0.000 OA
ATOM     21  N   UNL     1      -3.101  11.680  18.229  0.00  0.00    +0.000 N 
ATOM     22  C   UNL     1      -2.633  11.474  19.582  0.00  0.00    +0.000 C 
BRANCH  21  23
ATOM     23  C   UNL     1      -4.449  12.098  17.909  0.00  0.00    +0.000 C 
BRANCH  23  24
ATOM     24  C   UNL     1      -5.485  11.533  18.848  0.00  0.00    +0.000 A 
ATOM     25  C   UNL     1      -5.938  12.283  19.945  0.00  0.00    +0.000 A 
ATOM     26  C   UNL     1      -6.953  11.794  20.770  0.00  0.00    +0.000 A 
ATOM     27  C   UNL     1      -7.515  10.545  20.515  0.00  0.00    +0.000 A 
ATOM     28  C   UNL     1      -7.051   9.778  19.449  0.00  0.00    +0.000 A 
ATOM     29  C   UNL     1      -6.037  10.265  18.623  0.00  0.00    +0.000 A 
ENDBRANCH  23  24
ENDBRANCH  21  23
ENDBRANCH   2  17
TORSDOF 5
ENDMDL
MODEL 6
REMARK VINA RESULT:      -6.9      8.126      9.941
REMARK  Name = 
REMARK  7 active torsions:
REMARK  status: ('A' for Active; 'I' for Inactive)
REMARK    1  A    between atoms: C_1  and  O_2
REMARK    2  A    between atoms: O_2  and  C_3
REMARK    3  A    between atoms: C_6  and  C_7
REMARK    4  A    between atoms: C_9  and  N_10
REMARK    5  A    between atoms: C_11  and  C_12
REMARK    6  A    between atoms: N_16  and  C_17
REMARK    7  A    between atoms: C_17  and  C_18
REMARK                            x       y       z     vdW  Elec       q    Type
REMARK                         _______ _______ _______ _____ _____    ______ ____
ROOT
ATOM      1  N   UNL     1       3.756   4.128  18.565  0.00  0.00    +0.000 N 
ATOM      2  C   UNL     1       2.959   5.007  19.225  0.00  0.00    +0.000 A 
ATOM      3  N   UNL     1       2.074   4.436  20.001  0.00  0.00    +0.000 NA
ATOM      4  N   UNL     1       2.272   3.096  19.811  0.00  0.00    +0.000 N 
ATOM      5  C   UNL     1       3.295   2.872  18.894  0.00  0.00    +0.000 A 
ATOM      6  O   UNL     1       3.676   1.776  18.514  0.00  0.00    +0.000 OA
ATOM      7  H   UNL     1       1.758   2.380  20.307  0.00  0.00    +0.000 HD
ENDROOT
BRANCH   1  14
ATOM      8  C   UNL     1       6.040   4.928  18.157  0.00  0.00    +0.000 A 
ATOM      9  C   UNL     1       7.027   5.280  17.233  0.00  0.00    +0.000 A 
ATOM     10  C   UNL     1       6.812   5.099  15.863  0.00  0.00    +0.000 A 
ATOM     11  C   UNL     1       5.626   4.525  15.397  0.00  0.00    +0.000 A 
ATOM     12  C   UNL     1       5.375   4.359  13.927  0.00  0.00    +0.000 C 
ATOM     13  C   UNL     1       4.649   4.139  16.322  0.00  0.00    +0.000 A 
ATOM     14  C   UNL     1       4.830   4.375  17.695  0.00  0.00    +0.000 A 
BRANCH   8  16
ATOM     15  C   UNL     1       7.445   5.508  19.986  0.00  0.00    +0.000 C 
ATOM     16  O   UNL     1       6.185   5.042  19.516  0.00  0.00    +0.000 OA
ENDBRANCH   8  16
ENDBRANCH   1  14
BRANCH   2  17
ATOM     17  C   UNL     1       3.055   6.516  19.100  0.00  0.00    +0.000 C 
ATOM     18  C   UNL     1       2.592   7.096  17.761  0.00  0.00    +0.000 C 
ATOM     19  C   UNL     1       2.149   8.489  18.100  0.00  0.00    +0.000 C 
ATOM     20  O   UNL     1       1.953   9.377  17.287  0.00  0.00    +0.000 OA
ATOM     21  N   UNL     1       1.946   8.542  19.465  0.00  0.00    +0.000 N 
ATOM     22  C   UNL     1       2.150   7.254  20.091  0.00  0.00    +0.000 C 
BRANCH  21  23
ATOM     23  C   UNL     1       1.237   9.632  20.100  0.00  0.00    +0.000 C 
BRANCH  23  24
ATOM     24  C   UNL     1       0.165  10.232  19.226  0.00  0.00    +0.000 A 
ATOM     25  C   UNL     1      -0.931   9.459  18.810  0.00  0.00    +0.000 A 
ATOM     26  C   UNL     1      -1.964  10.033  18.066  0.00  0.00    +0.000 A 
ATOM     27  C   UNL     1      -1.906  11.380  17.719  0.00  0.00    +0.000 A 
ATOM     28  C   UNL     1      -0.809  12.150  18.099  0.00  0.00    +0.000 A 
ATOM     29  C   UNL     1       0.225  11.578  18.843  0.00  0.00    +0.000 A 
ENDBRANCH  23  24
ENDBRANCH  21  23
ENDBRANCH   2  17
TORSDOF 5
ENDMDL
MODEL 7
REMARK VINA RESULT:      -6.8      7.539      9.886
REMARK  Name = 
REMARK  7 active torsions:
REMARK  status: ('A' for Active; 'I' for Inactive)
REMARK    1  A    between atoms: C_1  and  O_2
REMARK    2  A    between atoms: O_2  and  C_3
REMARK    3  A    between atoms: C_6  and  C_7
REMARK    4  A    between atoms: C_9  and  N_10
REMARK    5  A    between atoms: C_11  and  C_12
REMARK    6  A    between atoms: N_16  and  C_17
REMARK    7  A    between atoms: C_17  and  C_18
REMARK                            x       y       z     vdW  Elec       q    Type
REMARK                         _______ _______ _______ _____ _____    ______ ____
ROOT
ATOM      1  N   UNL     1       3.346   4.762  19.794  0.00  0.00    +0.000 N 
ATOM      2  C   UNL     1       2.518   5.761  20.194  0.00  0.00    +0.000 A 
ATOM      3  N   UNL     1       1.634   5.389  21.084  0.00  0.00    +0.000 NA
ATOM      4  N   UNL     1       1.867   4.052  21.253  0.00  0.00    +0.000 N 
ATOM      5  C   UNL     1       2.909   3.624  20.437  0.00  0.00    +0.000 A 
ATOM      6  O   UNL     1       3.321   2.477  20.361  0.00  0.00    +0.000 OA
ATOM      7  H   UNL     1       1.362   3.478  21.915  0.00  0.00    +0.000 HD
ENDROOT
BRANCH   1  14
ATOM      8  C   UNL     1       4.320   4.291  17.592  0.00  0.00    +0.000 A 
ATOM      9  C   UNL     1       5.460   4.229  16.787  0.00  0.00    +0.000 A 
ATOM     10  C   UNL     1       6.698   4.656  17.278  0.00  0.00    +0.000 A 
ATOM     11  C   UNL     1       6.809   5.190  18.564  0.00  0.00    +0.000 A 
ATOM     12  C   UNL     1       8.140   5.618  19.110  0.00  0.00    +0.000 C 
ATOM     13  C   UNL     1       5.662   5.285  19.361  0.00  0.00    +0.000 A 
ATOM     14  C   UNL     1       4.427   4.801  18.900  0.00  0.00    +0.000 A 
BRANCH   8  16
ATOM     15  C   UNL     1       2.813   2.528  17.065  0.00  0.00    +0.000 C 
ATOM     16  O   UNL     1       3.066   3.925  17.176  0.00  0.00    +0.000 OA
ENDBRANCH   8  16
ENDBRANCH   1  14
BRANCH   2  17
ATOM     17  C   UNL     1       2.580   7.187  19.679  0.00  0.00    +0.000 C 
ATOM     18  C   UNL     1       2.373   7.351  18.171  0.00  0.00    +0.000 C 
ATOM     19  C   UNL     1       1.819   8.738  18.026  0.00  0.00    +0.000 C 
ATOM     20  O   UNL     1       1.757   9.360  16.980  0.00  0.00    +0.000 OA
ATOM     21  N   UNL     1       1.346   9.129  19.264  0.00  0.00    +0.000 N 
ATOM     22  C   UNL     1       1.469   8.074  20.246  0.00  0.00    +0.000 C 
BRANCH  21  23
ATOM     23  C   UNL     1       0.484  10.279  19.434  0.00  0.00    +0.000 C 
BRANCH  23  24
ATOM     24  C   UNL     1       1.242  11.571  19.600  0.00  0.00    +0.000 A 
ATOM     25  C   UNL     1       1.957  12.121  18.523  0.00  0.00    +0.000 A 
ATOM     26  C   UNL     1       2.596  13.356  18.652  0.00  0.00    +0.000 A 
ATOM     27  C   UNL     1       2.539  14.047  19.860  0.00  0.00    +0.000 A 
ATOM     28  C   UNL     1       1.860  13.496  20.945  0.00  0.00    +0.000 A 
ATOM     29  C   UNL     1       1.220  12.261  20.819  0.00  0.00    +0.000 A 
ENDBRANCH  23  24
ENDBRANCH  21  23
ENDBRANCH   2  17
TORSDOF 5
ENDMDL
MODEL 8
REMARK VINA RESULT:      -6.8      7.266     11.208
REMARK  Name = 
REMARK  7 active torsions:
REMARK  status: ('A' for Active; 'I' for Inactive)
REMARK    1  A    between atoms: C_1  and  O_2
REMARK    2  A    between atoms: O_2  and  C_3
REMARK    3  A    between atoms: C_6  and  C_7
REMARK    4  A    between atoms: C_9  and  N_10
REMARK    5  A    between atoms: C_11  and  C_12
REMARK    6  A    between atoms: N_16  and  C_17
REMARK    7  A    between atoms: C_17  and  C_18
REMARK                            x       y       z     vdW  Elec       q    Type
REMARK                         _______ _______ _______ _____ _____    ______ ____
ROOT
ATOM      1  N   UNL     1      -0.347  11.092  21.520  0.00  0.00    +0.000 N 
ATOM      2  C   UNL     1      -0.244   9.738  21.533  0.00  0.00    +0.000 A 
ATOM      3  N   UNL     1      -0.646   9.189  22.650  0.00  0.00    +0.000 NA
ATOM      4  N   UNL     1      -0.998  10.249  23.440  0.00  0.00    +0.000 N 
ATOM      5  C   UNL     1      -0.792  11.453  22.773  0.00  0.00    +0.000 A 
ATOM      6  O   UNL     1      -0.998  12.563  23.240  0.00  0.00    +0.000 OA
ATOM      7  H   UNL     1      -1.388  10.148  24.367  0.00  0.00    +0.000 HD
ENDROOT
BRANCH   1  14
ATOM      8  C   UNL     1      -0.961  12.230  19.434  0.00  0.00    +0.000 A 
ATOM      9  C   UNL     1      -0.572  13.040  18.365  0.00  0.00    +0.000 A 
ATOM     10  C   UNL     1       0.706  13.606  18.334  0.00  0.00    +0.000 A 
ATOM     11  C   UNL     1       1.599  13.408  19.390  0.00  0.00    +0.000 A 
ATOM     12  C   UNL     1       2.985  13.985  19.348  0.00  0.00    +0.000 C 
ATOM     13  C   UNL     1       1.200  12.625  20.480  0.00  0.00    +0.000 A 
ATOM     14  C   UNL     1      -0.058  12.001  20.490  0.00  0.00    +0.000 A 
BRANCH   8  16
ATOM     15  C   UNL     1      -2.961  11.522  18.358  0.00  0.00    +0.000 C 
ATOM     16  O   UNL     1      -2.206  11.666  19.557  0.00  0.00    +0.000 OA
ENDBRANCH   8  16
ENDBRANCH   1  14
BRANCH   2  17
ATOM     17  C   UNL     1       0.282   8.906  20.378  0.00  0.00    +0.000 C 
ATOM     18  C   UNL     1       1.193   9.646  19.395  0.00  0.00    +0.000 C 
ATOM     19  C   UNL     1       2.066   8.568  18.823  0.00  0.00    +0.000 C 
ATOM     20  O   UNL     1       2.751   8.683  17.821  0.00  0.00    +0.000 OA
ATOM     21  N   UNL     1       1.995   7.480  19.671  0.00  0.00    +0.000 N 
ATOM     22  C   UNL     1       1.185   7.756  20.836  0.00  0.00    +0.000 C 
BRANCH  21  23
ATOM     23  C   UNL     1       2.931   6.379  19.595  0.00  0.00    +0.000 C 
BRANCH  23  24
ATOM     24  C   UNL     1       2.257   5.035  19.479  0.00  0.00    +0.000 A 
ATOM     25  C   UNL     1       1.855   4.337  20.630  0.00  0.00    +0.000 A 
ATOM     26  C   UNL     1       1.162   3.130  20.524  0.00  0.00    +0.000 A 
ATOM     27  C   UNL     1       0.875   2.600  19.268  0.00  0.00    +0.000 A 
ATOM     28  C   UNL     1       1.296   3.267  18.119  0.00  0.00    +0.000 A 
ATOM     29  C   UNL     1       1.990   4.475  18.223  0.00  0.00    +0.000 A 
ENDBRANCH  23  24
ENDBRANCH  21  23
ENDBRANCH   2  17
TORSDOF 5
ENDMDL
MODEL 9
REMARK VINA RESULT:      -6.8      8.050      9.892
REMARK  Name = 
REMARK  7 active torsions:
REMARK  status: ('A' for Active; 'I' for Inactive)
REMARK    1  A    between atoms: C_1  and  O_2
REMARK    2  A    between atoms: O_2  and  C_3
REMARK    3  A    between atoms: C_6  and  C_7
REMARK    4  A    between atoms: C_9  and  N_10
REMARK    5  A    between atoms: C_11  and  C_12
REMARK    6  A    between atoms: N_16  and  C_17
REMARK    7  A    between atoms: C_17  and  C_18
REMARK                            x       y       z     vdW  Elec       q    Type
REMARK                         _______ _______ _______ _____ _____    ______ ____
ROOT
ATOM      1  N   UNL     1       3.721   4.501  18.423  0.00  0.00    +0.000 N 
ATOM      2  C   UNL     1       2.711   5.328  18.797  0.00  0.00    +0.000 A 
ATOM      3  N   UNL     1       1.580   4.710  19.022  0.00  0.00    +0.000 NA
ATOM      4  N   UNL     1       1.850   3.398  18.740  0.00  0.00    +0.000 N 
ATOM      5  C   UNL     1       3.170   3.241  18.332  0.00  0.00    +0.000 A 
ATOM      6  O   UNL     1       3.685   2.185  17.996  0.00  0.00    +0.000 OA
ATOM      7  H   UNL     1       1.175   2.654  18.855  0.00  0.00    +0.000 HD
ENDROOT
BRANCH   1  14
ATOM      8  C   UNL     1       5.597   4.673  16.850  0.00  0.00    +0.000 A 
ATOM      9  C   UNL     1       6.968   4.850  16.653  0.00  0.00    +0.000 A 
ATOM     10  C   UNL     1       7.808   5.137  17.733  0.00  0.00    +0.000 A 
ATOM     11  C   UNL     1       7.286   5.293  19.020  0.00  0.00    +0.000 A 
ATOM     12  C   UNL     1       8.186   5.567  20.190  0.00  0.00    +0.000 C 
ATOM     13  C   UNL     1       5.907   5.150  19.215  0.00  0.00    +0.000 A 
ATOM     14  C   UNL     1       5.065   4.800  18.147  0.00  0.00    +0.000 A 
BRANCH   8  16
ATOM     15  C   UNL     1       5.234   4.347  14.522  0.00  0.00    +0.000 C 
ATOM     16  O   UNL     1       4.703   4.423  15.840  0.00  0.00    +0.000 OA
ENDBRANCH   8  16
ENDBRANCH   1  14
BRANCH   2  17
ATOM     17  C   UNL     1       2.843   6.832  18.949  0.00  0.00    +0.000 C 
ATOM     18  C   UNL     1       2.687   7.639  17.658  0.00  0.00    +0.000 C 
ATOM     19  C   UNL     1       2.191   8.978  18.123  0.00  0.00    +0.000 C 
ATOM     20  O   UNL     1       2.183   9.992  17.447  0.00  0.00    +0.000 OA
ATOM     21  N   UNL     1       1.696   8.818  19.402  0.00  0.00    +0.000 N 
ATOM     22  C   UNL     1       1.750   7.438  19.833  0.00  0.00    +0.000 C 
BRANCH  21  23
ATOM     23  C   UNL     1       0.874   9.821  20.044  0.00  0.00    +0.000 C 
BRANCH  23  24
ATOM     24  C   UNL     1      -0.166  10.413  19.127  0.00  0.00    +0.000 A 
ATOM     25  C   UNL     1      -1.130   9.592  18.518  0.00  0.00    +0.000 A 
ATOM     26  C   UNL     1      -2.140  10.147  17.730  0.00  0.00    +0.000 A 
ATOM     27  C   UNL     1      -2.190  11.525  17.532  0.00  0.00    +0.000 A 
ATOM     28  C   UNL     1      -1.221  12.346  18.104  0.00  0.00    +0.000 A 
ATOM     29  C   UNL     1      -0.209  11.793  18.892  0.00  0.00    +0.000 A 
ENDBRANCH  23  24
ENDBRANCH  21  23
ENDBRANCH   2  17
TORSDOF 5
ENDMDL
