MODEL 1
REMARK VINA RESULT:      -7.5      0.000      0.000
REMARK  Name = 
REMARK  7 active torsions:
REMARK  status: ('A' for Active; 'I' for Inactive)
REMARK    1  A    between atoms: C_1  and  O_2
REMARK    2  A    between atoms: O_2  and  C_3
REMARK    3  A    between atoms: C_7  and  O_8
REMARK    4  A    between atoms: O_8  and  C_9
REMARK    5  A    between atoms: C_10  and  C_11
REMARK    6  A    between atoms: C_11  and  N_12
REMARK    7  A    between atoms: C_13  and  C_15
REMARK                            x       y       z     vdW  Elec       q    Type
REMARK                         _______ _______ _______ _____ _____    ______ ____
ROOT
ATOM      1  N   UNL     1       4.972   5.516  18.080  0.00  0.00    +0.000 NA
ATOM      2  C   UNL     1       6.045   4.904  17.650  0.00  0.00    +0.000 C 
ATOM      3  N   UNL     1       6.990   4.326  18.554  0.00  0.00    +0.000 N 
ATOM      4  H   UNL     1       6.860   4.330  19.576  0.00  0.00    +0.000 HD
ATOM      5  H   UNL     1       7.791   3.783  18.204  0.00  0.00    +0.000 HD
ENDROOT
BRANCH   2   6
ATOM      6  C   UNL     1       6.279   4.734  16.193  0.00  0.00    +0.000 A 
ATOM      7  C   UNL     1       5.685   3.754  15.401  0.00  0.00    +0.000 A 
ATOM      8  C   UNL     1       6.247   3.902  14.150  0.00  0.00    +0.000 A 
ATOM      9  C   UNL     1       6.057   3.164  12.989  0.00  0.00    +0.000 A 
ATOM     10  C   UNL     1       6.782   3.540  11.844  0.00  0.00    +0.000 A 
ATOM     11  F   UNL     1       6.634   2.835  10.694  0.00  0.00    +0.000 F 
ATOM     12  C   UNL     1       7.665   4.643  11.886  0.00  0.00    +0.000 A 
ATOM     13  C   UNL     1       7.840   5.370  13.080  0.00  0.00    +0.000 A 
ATOM     14  C   UNL     1       7.119   4.956  14.210  0.00  0.00    +0.000 A 
ATOM     15  N   UNL     1       7.152   5.474  15.449  0.00  0.00    +0.000 N 
ATOM     16  H   UNL     1       7.743   6.278  15.761  0.00  0.00    +0.000 HD
ENDBRANCH   2   6
BRANCH   1  17
ATOM     17  C   UNL     1       4.653   5.624  19.498  0.00  0.00    +0.000 C 
BRANCH  17  23
ATOM     18  C   UNL     1       3.472   3.469  20.184  0.00  0.00    +0.000 A 
ATOM     19  C   UNL     1       2.299   2.748  20.486  0.00  0.00    +0.000 A 
ATOM     20  C   UNL     1       1.082   3.395  20.614  0.00  0.00    +0.000 A 
ATOM     21  C   UNL     1       1.008   4.773  20.470  0.00  0.00    +0.000 A 
ATOM     22  C   UNL     1       2.155   5.538  20.155  0.00  0.00    +0.000 A 
ATOM     23  C   UNL     1       3.404   4.880  19.983  0.00  0.00    +0.000 A 
BRANCH  18  25
ATOM     24  C   UNL     1       4.891   1.482  20.302  0.00  0.00    +0.000 C 
ATOM     25  O   UNL     1       4.667   2.826  20.067  0.00  0.00    +0.000 OA
ENDBRANCH  18  25
BRANCH  22  26
ATOM     26  O   UNL     1       2.072   6.890  20.011  0.00  0.00    +0.000 OA
ATOM     27  C   UNL     1       1.413   7.735  20.886  0.00  0.00    +0.000 C 
ENDBRANCH  22  26
ENDBRANCH  17  23
ENDBRANCH   1  17
TORSDOF 5
ENDMDL
MODEL 2
REMARK VINA RESULT:      -7.4      0.178      2.688
REMARK  Name = 
REMARK  7 active torsions:
REMARK  status: ('A' for Active; 'I' for Inactive)
REMARK    1  A    between atoms: C_1  and  O_2
REMARK    2  A    between atoms: O_2  and  C_3
REMARK    3  A    between atoms: C_7  and  O_8
REMARK    4  A    between atoms: O_8  and  C_9
REMARK    5  A    between atoms: C_10  and  C_11
REMARK    6  A    between atoms: C_11  and  N_12
REMARK    7  A    between atoms: C_13  and  C_15
REMARK                            x       y       z     vdW  Elec       q    Type
REMARK                         _______ _______ _______ _____ _____    ______ ____
ROOT
ATOM      1  N   UNL     1       5.000   5.504  18.022  0.00  0.00    +0.000 NA
ATOM      2  C   UNL     1       6.066   4.879  17.593  0.00  0.00    +0.000 C 
ATOM      3  N   UNL     1       6.989   4.264  18.496  0.00  0.00    +0.000 N 
ATOM      4  H   UNL     1       6.846   4.251  19.517  0.00  0.00    +0.000 HD
ATOM      5  H   UNL     1       7.782   3.713  18.146  0.00  0.00    +0.000 HD
ENDROOT
BRANCH   2   6
ATOM      6  C   UNL     1       6.315   4.733  16.136  0.00  0.00    +0.000 A 
ATOM      7  C   UNL     1       5.726   3.769  15.321  0.00  0.00    +0.000 A 
ATOM      8  C   UNL     1       6.301   3.937  14.079  0.00  0.00    +0.000 A 
ATOM      9  C   UNL     1       6.121   3.218  12.904  0.00  0.00    +0.000 A 
ATOM     10  C   UNL     1       6.859   3.611  11.773  0.00  0.00    +0.000 A 
ATOM     11  F   UNL     1       6.720   2.927  10.610  0.00  0.00    +0.000 F 
ATOM     12  C   UNL     1       7.744   4.711  11.843  0.00  0.00    +0.000 A 
ATOM     13  C   UNL     1       7.910   5.417  13.051  0.00  0.00    +0.000 A 
ATOM     14  C   UNL     1       7.176   4.987  14.165  0.00  0.00    +0.000 A 
ATOM     15  N   UNL     1       7.198   5.483  15.414  0.00  0.00    +0.000 N 
ATOM     16  H   UNL     1       7.788   6.280  15.745  0.00  0.00    +0.000 HD
ENDBRANCH   2   6
BRANCH   1  17
ATOM     17  C   UNL     1       4.667   5.590  19.438  0.00  0.00    +0.000 C 
BRANCH  17  23
ATOM     18  C   UNL     1       2.219   5.475  20.152  0.00  0.00    +0.000 A 
ATOM     19  C   UNL     1       1.134   4.784  20.726  0.00  0.00    +0.000 A 
ATOM     20  C   UNL     1       1.235   3.439  21.039  0.00  0.00    +0.000 A 
ATOM     21  C   UNL     1       2.406   2.747  20.766  0.00  0.00    +0.000 A 
ATOM     22  C   UNL     1       3.527   3.400  20.202  0.00  0.00    +0.000 A 
ATOM     23  C   UNL     1       3.448   4.790  19.911  0.00  0.00    +0.000 A 
BRANCH  18  25
ATOM     24  C   UNL     1       1.544   7.774  20.638  0.00  0.00    +0.000 C 
ATOM     25  O   UNL     1       2.110   6.796  19.840  0.00  0.00    +0.000 OA
ENDBRANCH  18  25
BRANCH  22  26
ATOM     26  O   UNL     1       4.674   2.713  19.941  0.00  0.00    +0.000 OA
ATOM     27  C   UNL     1       5.032   1.521  20.545  0.00  0.00    +0.000 C 
ENDBRANCH  22  26
ENDBRANCH  17  23
ENDBRANCH   1  17
TORSDOF 5
ENDMDL
MODEL 3
REMARK VINA RESULT:      -7.2      3.981      8.016
REMARK  Name = 
REMARK  7 active torsions:
REMARK  status: ('A' for Active; 'I' for Inactive)
REMARK    1  A    between atoms: C_1  and  O_2
REMARK    2  A    between atoms: O_2  and  C_3
REMARK    3  A    between atoms: C_7  and  O_8
REMARK    4  A    between atoms: O_8  and  C_9
REMARK    5  A    between atoms: C_10  and  C_11
REMARK    6  A    between atoms: C_11  and  N_12
REMARK    7  A    between atoms: C_13  and  C_15
REMARK                            x       y       z     vdW  Elec       q    Type
REMARK                         _______ _______ _______ _____ _____    ______ ____
ROOT
ATOM      1  N   UNL     1       4.218   5.963  19.448  0.00  0.00    +0.000 NA
ATOM      2  C   UNL     1       2.916   5.938  19.568  0.00  0.00    +0.000 C 
ATOM      3  N   UNL     1       2.182   4.712  19.523  0.00  0.00    +0.000 N 
ATOM      4  H   UNL     1       2.637   3.792  19.431  0.00  0.00    +0.000 HD
ATOM      5  H   UNL     1       1.168   4.697  19.692  0.00  0.00    +0.000 HD
ENDROOT
BRANCH   2   6
ATOM      6  C   UNL     1       2.162   7.193  19.820  0.00  0.00    +0.000 A 
ATOM      7  C   UNL     1       1.946   8.195  18.877  0.00  0.00    +0.000 A 
ATOM      8  C   UNL     1       1.289   9.202  19.553  0.00  0.00    +0.000 A 
ATOM      9  C   UNL     1       0.873  10.452  19.115  0.00  0.00    +0.000 A 
ATOM     10  C   UNL     1       0.226  11.291  20.040  0.00  0.00    +0.000 A 
ATOM     11  F   UNL     1      -0.184  12.526  19.654  0.00  0.00    +0.000 F 
ATOM     12  C   UNL     1       0.005  10.858  21.367  0.00  0.00    +0.000 A 
ATOM     13  C   UNL     1       0.444   9.586  21.784  0.00  0.00    +0.000 A 
ATOM     14  C   UNL     1       1.105   8.782  20.844  0.00  0.00    +0.000 A 
ATOM     15  N   UNL     1       1.632   7.559  21.024  0.00  0.00    +0.000 N 
ATOM     16  H   UNL     1       1.633   7.019  21.919  0.00  0.00    +0.000 HD
ENDBRANCH   2   6
BRANCH   1  17
ATOM     17  C   UNL     1       5.008   4.748  19.293  0.00  0.00    +0.000 C 
BRANCH  17  23
ATOM     18  C   UNL     1       6.818   4.955  17.507  0.00  0.00    +0.000 A 
ATOM     19  C   UNL     1       7.258   4.814  16.175  0.00  0.00    +0.000 A 
ATOM     20  C   UNL     1       6.477   4.165  15.235  0.00  0.00    +0.000 A 
ATOM     21  C   UNL     1       5.254   3.620  15.602  0.00  0.00    +0.000 A 
ATOM     22  C   UNL     1       4.764   3.747  16.922  0.00  0.00    +0.000 A 
ATOM     23  C   UNL     1       5.541   4.445  17.888  0.00  0.00    +0.000 A 
BRANCH  18  25
ATOM     24  C   UNL     1       7.949   6.925  18.409  0.00  0.00    +0.000 C 
ATOM     25  O   UNL     1       7.595   5.589  18.428  0.00  0.00    +0.000 OA
ENDBRANCH  18  25
BRANCH  22  26
ATOM     26  O   UNL     1       3.561   3.213  17.272  0.00  0.00    +0.000 OA
ATOM     27  C   UNL     1       3.381   1.931  17.759  0.00  0.00    +0.000 C 
ENDBRANCH  22  26
ENDBRANCH  17  23
ENDBRANCH   1  17
TORSDOF 5
ENDMDL
MODEL 4
REMARK VINA RESULT:      -7.1      4.208      8.079
REMARK  Name = 
REMARK  7 active torsions:
REMARK  status: ('A' for Active; 'I' for Inactive)
REMARK    1  A    between atoms: C_1  and  O_2
REMARK    2  A    between atoms: O_2  and  C_3
REMARK    3  A    between atoms: C_7  and  O_8
REMARK    4  A    between atoms: O_8  and  C_9
REMARK    5  A    between atoms: C_10  and  C_11
REMARK    6  A    between atoms: C_11  and  N_12
REMARK    7  A    between atoms: C_13  and  C_15
REMARK                            x       y       z     vdW  Elec       q    Type
REMARK                         _______ _______ _______ _____ _____    ______ ____
ROOT
ATOM      1  N   UNL     1       4.114   6.065  19.432  0.00  0.00    +0.000 NA
ATOM      2  C   UNL     1       2.813   6.084  19.571  0.00  0.00    +0.000 C 
ATOM      3  N   UNL     1       2.043   4.879  19.589  0.00  0.00    +0.000 N 
ATOM      4  H   UNL     1       2.470   3.944  19.530  0.00  0.00    +0.000 HD
ATOM      5  H   UNL     1       1.033   4.902  19.773  0.00  0.00    +0.000 HD
ENDROOT
BRANCH   2   6
ATOM      6  C   UNL     1       2.100   7.370  19.782  0.00  0.00    +0.000 A 
ATOM      7  C   UNL     1       1.414   7.718  20.944  0.00  0.00    +0.000 A 
ATOM      8  C   UNL     1       0.834   8.940  20.676  0.00  0.00    +0.000 A 
ATOM      9  C   UNL     1       0.001   9.728  21.460  0.00  0.00    +0.000 A 
ATOM     10  C   UNL     1      -0.458  10.942  20.919  0.00  0.00    +0.000 A 
ATOM     11  F   UNL     1      -1.284  11.733  21.649  0.00  0.00    +0.000 F 
ATOM     12  C   UNL     1      -0.066  11.340  19.621  0.00  0.00    +0.000 A 
ATOM     13  C   UNL     1       0.776  10.517  18.847  0.00  0.00    +0.000 A 
ATOM     14  C   UNL     1       1.198   9.303  19.407  0.00  0.00    +0.000 A 
ATOM     15  N   UNL     1       1.969   8.356  18.846  0.00  0.00    +0.000 N 
ATOM     16  H   UNL     1       2.371   8.385  17.882  0.00  0.00    +0.000 HD
ENDBRANCH   2   6
BRANCH   1  17
ATOM     17  C   UNL     1       4.865   4.822  19.317  0.00  0.00    +0.000 C 
BRANCH  17  23
ATOM     18  C   UNL     1       6.747   4.904  17.596  0.00  0.00    +0.000 A 
ATOM     19  C   UNL     1       7.224   4.729  16.281  0.00  0.00    +0.000 A 
ATOM     20  C   UNL     1       6.436   4.130  15.314  0.00  0.00    +0.000 A 
ATOM     21  C   UNL     1       5.168   3.668  15.637  0.00  0.00    +0.000 A 
ATOM     22  C   UNL     1       4.640   3.832  16.939  0.00  0.00    +0.000 A 
ATOM     23  C   UNL     1       5.426   4.480  17.932  0.00  0.00    +0.000 A 
BRANCH  18  25
ATOM     24  C   UNL     1       7.965   6.800  18.540  0.00  0.00    +0.000 C 
ATOM     25  O   UNL     1       7.531   5.488  18.544  0.00  0.00    +0.000 OA
ENDBRANCH  18  25
BRANCH  22  26
ATOM     26  O   UNL     1       3.393   3.379  17.247  0.00  0.00    +0.000 OA
ATOM     27  C   UNL     1       3.107   2.102  17.694  0.00  0.00    +0.000 C 
ENDBRANCH  22  26
ENDBRANCH  17  23
ENDBRANCH   1  17
TORSDOF 5
ENDMDL
MODEL 5
REMARK VINA RESULT:      -7.1      0.821      2.990
REMARK  Name = 
REMARK  7 active torsions:
REMARK  status: ('A' for Active; 'I' for Inactive)
REMARK    1  A    between atoms: C_1  and  O_2
REMARK    2  A    between atoms: O_2  and  C_3
REMARK    3  A    between atoms: C_7  and  O_8
REMARK    4  A    between atoms: O_8  and  C_9
REMARK    5  A    between atoms: C_10  and  C_11
REMARK    6  A    between atoms: C_11  and  N_12
REMARK    7  A    between atoms: C_13  and  C_15
REMARK                            x       y       z     vdW  Elec       q    Type
REMARK                         _______ _______ _______ _____ _____    ______ ____
ROOT
ATOM      1  N   UNL     1       5.064   5.353  17.968  0.00  0.00    +0.000 NA
ATOM      2  C   UNL     1       6.144   4.750  17.545  0.00  0.00    +0.000 C 
ATOM      3  N   UNL     1       7.080   4.164  18.454  0.00  0.00    +0.000 N 
ATOM      4  H   UNL     1       6.936   4.155  19.475  0.00  0.00    +0.000 HD
ATOM      5  H   UNL     1       7.887   3.628  18.109  0.00  0.00    +0.000 HD
ENDROOT
BRANCH   2   6
ATOM      6  C   UNL     1       6.400   4.599  16.090  0.00  0.00    +0.000 A 
ATOM      7  C   UNL     1       7.194   5.455  15.329  0.00  0.00    +0.000 A 
ATOM      8  C   UNL     1       7.082   5.003  14.031  0.00  0.00    +0.000 A 
ATOM      9  C   UNL     1       7.622   5.509  12.856  0.00  0.00    +0.000 A 
ATOM     10  C   UNL     1       7.328   4.840  11.654  0.00  0.00    +0.000 A 
ATOM     11  F   UNL     1       7.828   5.311  10.484  0.00  0.00    +0.000 F 
ATOM     12  C   UNL     1       6.516   3.683  11.660  0.00  0.00    +0.000 A 
ATOM     13  C   UNL     1       5.977   3.197  12.867  0.00  0.00    +0.000 A 
ATOM     14  C   UNL     1       6.271   3.899  14.045  0.00  0.00    +0.000 A 
ATOM     15  N   UNL     1       5.845   3.640  15.293  0.00  0.00    +0.000 N 
ATOM     16  H   UNL     1       5.209   2.859  15.572  0.00  0.00    +0.000 HD
ENDBRANCH   2   6
BRANCH   1  17
ATOM     17  C   UNL     1       4.726   5.441  19.383  0.00  0.00    +0.000 C 
BRANCH  17  23
ATOM     18  C   UNL     1       2.265   5.395  20.057  0.00  0.00    +0.000 A 
ATOM     19  C   UNL     1       1.154   4.737  20.622  0.00  0.00    +0.000 A 
ATOM     20  C   UNL     1       1.216   3.394  20.952  0.00  0.00    +0.000 A 
ATOM     21  C   UNL     1       2.374   2.670  20.706  0.00  0.00    +0.000 A 
ATOM     22  C   UNL     1       3.520   3.289  20.153  0.00  0.00    +0.000 A 
ATOM     23  C   UNL     1       3.480   4.677  19.844  0.00  0.00    +0.000 A 
BRANCH  18  25
ATOM     24  C   UNL     1       1.673   7.721  20.521  0.00  0.00    +0.000 C 
ATOM     25  O   UNL     1       2.193   6.714  19.729  0.00  0.00    +0.000 OA
ENDBRANCH  18  25
BRANCH  22  26
ATOM     26  O   UNL     1       4.653   2.571  19.919  0.00  0.00    +0.000 OA
ATOM     27  C   UNL     1       5.103   1.529  20.711  0.00  0.00    +0.000 C 
ENDBRANCH  22  26
ENDBRANCH  17  23
ENDBRANCH   1  17
TORSDOF 5
ENDMDL
MODEL 6
REMARK VINA RESULT:      -7.0      0.904      1.395
REMARK  Name = 
REMARK  7 active torsions:
REMARK  status: ('A' for Active; 'I' for Inactive)
REMARK    1  A    between atoms: C_1  and  O_2
REMARK    2  A    between atoms: O_2  and  C_3
REMARK    3  A    between atoms: C_7  and  O_8
REMARK    4  A    between atoms: O_8  and  C_9
REMARK    5  A    between atoms: C_10  and  C_11
REMARK    6  A    between atoms: C_11  and  N_12
REMARK    7  A    between atoms: C_13  and  C_15
REMARK                            x       y       z     vdW  Elec       q    Type
REMARK                         _______ _______ _______ _____ _____    ______ ____
ROOT
ATOM      1  N   UNL     1       4.954   5.079  18.050  0.00  0.00    +0.000 NA
ATOM      2  C   UNL     1       6.123   4.692  17.610  0.00  0.00    +0.000 C 
ATOM      3  N   UNL     1       7.180   4.334  18.505  0.00  0.00    +0.000 N 
ATOM      4  H   UNL     1       7.067   4.329  19.528  0.00  0.00    +0.000 HD
ATOM      5  H   UNL     1       8.069   3.961  18.148  0.00  0.00    +0.000 HD
ENDROOT
BRANCH   2   6
ATOM      6  C   UNL     1       6.366   4.549  16.152  0.00  0.00    +0.000 A 
ATOM      7  C   UNL     1       7.194   5.380  15.399  0.00  0.00    +0.000 A 
ATOM      8  C   UNL     1       7.058   4.950  14.095  0.00  0.00    +0.000 A 
ATOM      9  C   UNL     1       7.616   5.447  12.925  0.00  0.00    +0.000 A 
ATOM     10  C   UNL     1       7.289   4.806  11.716  0.00  0.00    +0.000 A 
ATOM     11  F   UNL     1       7.804   5.271  10.550  0.00  0.00    +0.000 F 
ATOM     12  C   UNL     1       6.427   3.687  11.710  0.00  0.00    +0.000 A 
ATOM     13  C   UNL     1       5.871   3.209  12.913  0.00  0.00    +0.000 A 
ATOM     14  C   UNL     1       6.199   3.882  14.098  0.00  0.00    +0.000 A 
ATOM     15  N   UNL     1       5.767   3.626  15.344  0.00  0.00    +0.000 N 
ATOM     16  H   UNL     1       5.098   2.870  15.616  0.00  0.00    +0.000 HD
ENDBRANCH   2   6
BRANCH   1  17
ATOM     17  C   UNL     1       4.641   5.143  19.472  0.00  0.00    +0.000 C 
BRANCH  17  23
ATOM     18  C   UNL     1       3.112   3.156  19.950  0.00  0.00    +0.000 A 
ATOM     19  C   UNL     1       1.836   2.615  20.203  0.00  0.00    +0.000 A 
ATOM     20  C   UNL     1       0.749   3.441  20.435  0.00  0.00    +0.000 A 
ATOM     21  C   UNL     1       0.911   4.819  20.445  0.00  0.00    +0.000 A 
ATOM     22  C   UNL     1       2.170   5.409  20.184  0.00  0.00    +0.000 A 
ATOM     23  C   UNL     1       3.286   4.572  19.907  0.00  0.00    +0.000 A 
BRANCH  18  25
ATOM     24  C   UNL     1       4.214   1.271  18.851  0.00  0.00    +0.000 C 
ATOM     25  O   UNL     1       4.178   2.337  19.730  0.00  0.00    +0.000 OA
ENDBRANCH  18  25
BRANCH  22  26
ATOM     26  O   UNL     1       2.319   6.763  20.192  0.00  0.00    +0.000 OA
ATOM     27  C   UNL     1       1.463   7.645  20.827  0.00  0.00    +0.000 C 
ENDBRANCH  22  26
ENDBRANCH  17  23
ENDBRANCH   1  17
TORSDOF 5
ENDMDL
MODEL 7
REMARK VINA RESULT:      -6.9      4.006      8.134
REMARK  Name = 
REMARK  7 active torsions:
REMARK  status: ('A' for Active; 'I' for Inactive)
REMARK    1  A    between atoms: C_1  and  O_2
REMARK    2  A    between atoms: O_2  and  C_3
REMARK    3  A    between atoms: C_7  and  O_8
REMARK    4  A    between atoms: O_8  and  C_9
REMARK    5  A    between atoms: C_10  and  C_11
REMARK    6  A    between atoms: C_11  and  N_12
REMARK    7  A    between atoms: C_13  and  C_15
REMARK                            x       y       z     vdW  Elec       q    Type
REMARK                         _______ _______ _______ _____ _____    ______ ____
ROOT
ATOM      1  N   UNL     1       4.103   6.310  19.023  0.00  0.00    +0.000 NA
ATOM      2  C   UNL     1       3.045   6.181  19.781  0.00  0.00    +0.000 C 
ATOM      3  N   UNL     1       2.754   4.958  20.461  0.00  0.00    +0.000 N 
ATOM      4  H   UNL     1       3.373   4.135  20.419  0.00  0.00    +0.000 HD
ATOM      5  H   UNL     1       1.961   4.891  21.111  0.00  0.00    +0.000 HD
ENDROOT
BRANCH   2   6
ATOM      6  C   UNL     1       2.140   7.337  20.009  0.00  0.00    +0.000 A 
ATOM      7  C   UNL     1       1.811   8.292  19.048  0.00  0.00    +0.000 A 
ATOM      8  C   UNL     1       1.030   9.219  19.704  0.00  0.00    +0.000 A 
ATOM      9  C   UNL     1       0.467  10.403  19.245  0.00  0.00    +0.000 A 
ATOM     10  C   UNL     1      -0.286  11.169  20.152  0.00  0.00    +0.000 A 
ATOM     11  F   UNL     1      -0.841  12.338  19.744  0.00  0.00    +0.000 F 
ATOM     12  C   UNL     1      -0.466  10.731  21.483  0.00  0.00    +0.000 A 
ATOM     13  C   UNL     1       0.123   9.528  21.922  0.00  0.00    +0.000 A 
ATOM     14  C   UNL     1       0.886   8.798  21.000  0.00  0.00    +0.000 A 
ATOM     15  N   UNL     1       1.558   7.652  21.203  0.00  0.00    +0.000 N 
ATOM     16  H   UNL     1       1.616   7.129  22.105  0.00  0.00    +0.000 HD
ENDBRANCH   2   6
BRANCH   1  17
ATOM     17  C   UNL     1       5.068   5.233  18.847  0.00  0.00    +0.000 C 
BRANCH  17  23
ATOM     18  C   UNL     1       4.742   4.124  16.572  0.00  0.00    +0.000 A 
ATOM     19  C   UNL     1       5.230   3.738  15.307  0.00  0.00    +0.000 A 
ATOM     20  C   UNL     1       6.465   4.175  14.860  0.00  0.00    +0.000 A 
ATOM     21  C   UNL     1       7.231   5.022  15.647  0.00  0.00    +0.000 A 
ATOM     22  C   UNL     1       6.790   5.427  16.928  0.00  0.00    +0.000 A 
ATOM     23  C   UNL     1       5.539   4.956  17.414  0.00  0.00    +0.000 A 
BRANCH  18  25
ATOM     24  C   UNL     1       3.263   2.502  17.647  0.00  0.00    +0.000 C 
ATOM     25  O   UNL     1       3.523   3.697  17.002  0.00  0.00    +0.000 OA
ENDBRANCH  18  25
BRANCH  22  26
ATOM     26  O   UNL     1       7.550   6.257  17.696  0.00  0.00    +0.000 OA
ATOM     27  C   UNL     1       7.603   7.632  17.554  0.00  0.00    +0.000 C 
ENDBRANCH  22  26
ENDBRANCH  17  23
ENDBRANCH   1  17
TORSDOF 5
ENDMDL
MODEL 8
REMARK VINA RESULT:      -6.8      5.220      8.061
REMARK  Name = 
REMARK  7 active torsions:
REMARK  status: ('A' for Active; 'I' for Inactive)
REMARK    1  A    between atoms: C_1  and  O_2
REMARK    2  A    between atoms: O_2  and  C_3
REMARK    3  A    between atoms: C_7  and  O_8
REMARK    4  A    between atoms: O_8  and  C_9
REMARK    5  A    between atoms: C_10  and  C_11
REMARK    6  A    between atoms: C_11  and  N_12
REMARK    7  A    between atoms: C_13  and  C_15
REMARK                            x       y       z     vdW  Elec       q    Type
REMARK                         _______ _______ _______ _____ _____    ______ ____
ROOT
ATOM      1  N   UNL     1       1.056   9.300  19.965  0.00  0.00    +0.000 NA
ATOM      2  C   UNL     1       1.763   8.626  19.095  0.00  0.00    +0.000 C 
ATOM      3  N   UNL     1       2.332   9.255  17.943  0.00  0.00    +0.000 N 
ATOM      4  H   UNL     1       2.246  10.265  17.759  0.00  0.00    +0.000 HD
ATOM      5  H   UNL     1       2.947   8.732  17.306  0.00  0.00    +0.000 HD
ENDROOT
BRANCH   2   6
ATOM      6  C   UNL     1       2.052   7.186  19.316  0.00  0.00    +0.000 A 
ATOM      7  C   UNL     1       2.388   6.279  18.313  0.00  0.00    +0.000 A 
ATOM      8  C   UNL     1       2.479   5.054  18.941  0.00  0.00    +0.000 A 
ATOM      9  C   UNL     1       2.739   3.795  18.415  0.00  0.00    +0.000 A 
ATOM     10  C   UNL     1       2.762   2.704  19.303  0.00  0.00    +0.000 A 
ATOM     11  F   UNL     1       2.999   1.456  18.825  0.00  0.00    +0.000 F 
ATOM     12  C   UNL     1       2.537   2.900  20.684  0.00  0.00    +0.000 A 
ATOM     13  C   UNL     1       2.270   4.188  21.187  0.00  0.00    +0.000 A 
ATOM     14  C   UNL     1       2.233   5.252  20.274  0.00  0.00    +0.000 A 
ATOM     15  N   UNL     1       1.969   6.546  20.519  0.00  0.00    +0.000 N 
ATOM     16  H   UNL     1       1.740   6.958  21.452  0.00  0.00    +0.000 HD
ENDBRANCH   2   6
BRANCH   1  17
ATOM     17  C   UNL     1       0.827  10.733  19.837  0.00  0.00    +0.000 C 
BRANCH  17  23
ATOM     18  C   UNL     1      -1.438  11.889  19.623  0.00  0.00    +0.000 A 
ATOM     19  C   UNL     1      -2.552  12.533  20.196  0.00  0.00    +0.000 A 
ATOM     20  C   UNL     1      -2.721  12.569  21.570  0.00  0.00    +0.000 A 
ATOM     21  C   UNL     1      -1.802  11.946  22.401  0.00  0.00    +0.000 A 
ATOM     22  C   UNL     1      -0.661  11.297  21.873  0.00  0.00    +0.000 A 
ATOM     23  C   UNL     1      -0.457  11.286  20.466  0.00  0.00    +0.000 A 
BRANCH  18  25
ATOM     24  C   UNL     1      -2.237  11.450  17.355  0.00  0.00    +0.000 C 
ATOM     25  O   UNL     1      -1.282  11.851  18.270  0.00  0.00    +0.000 OA
ENDBRANCH  18  25
BRANCH  22  26
ATOM     26  O   UNL     1       0.238  10.692  22.698  0.00  0.00    +0.000 OA
ATOM     27  C   UNL     1      -0.007   9.535  23.415  0.00  0.00    +0.000 C 
ENDBRANCH  22  26
ENDBRANCH  17  23
ENDBRANCH   1  17
TORSDOF 5
ENDMDL
MODEL 9
REMARK VINA RESULT:      -6.8      4.329      8.269
REMARK  Name = 
REMARK  7 active torsions:
REMARK  status: ('A' for Active; 'I' for Inactive)
REMARK    1  A    between atoms: C_1  and  O_2
REMARK    2  A    between atoms: O_2  and  C_3
REMARK    3  A    between atoms: C_7  and  O_8
REMARK    4  A    between atoms: O_8  and  C_9
REMARK    5  A    between atoms: C_10  and  C_11
REMARK    6  A    between atoms: C_11  and  N_12
REMARK    7  A    between atoms: C_13  and  C_15
REMARK                            x       y       z     vdW  Elec       q    Type
REMARK                         _______ _______ _______ _____ _____    ______ ____
ROOT
ATOM      1  N   UNL     1       3.560   6.338  19.142  0.00  0.00    +0.000 NA
ATOM      2  C   UNL     1       2.570   6.461  19.987  0.00  0.00    +0.000 C 
ATOM      3  N   UNL     1       2.209   5.402  20.878  0.00  0.00    +0.000 N 
ATOM      4  H   UNL     1       2.724   4.512  20.924  0.00  0.00    +0.000 HD
ATOM      5  H   UNL     1       1.478   5.537  21.589  0.00  0.00    +0.000 HD
ENDROOT
BRANCH   2   6
ATOM      6  C   UNL     1       1.827   7.743  20.091  0.00  0.00    +0.000 A 
ATOM      7  C   UNL     1       1.087   8.146  21.201  0.00  0.00    +0.000 A 
ATOM      8  C   UNL     1       0.499   9.339  20.838  0.00  0.00    +0.000 A 
ATOM      9  C   UNL     1      -0.379  10.155  21.538  0.00  0.00    +0.000 A 
ATOM     10  C   UNL     1      -0.835  11.327  20.907  0.00  0.00    +0.000 A 
ATOM     11  F   UNL     1      -1.704  12.143  21.554  0.00  0.00    +0.000 F 
ATOM     12  C   UNL     1      -0.395  11.655  19.605  0.00  0.00    +0.000 A 
ATOM     13  C   UNL     1       0.492  10.804  18.917  0.00  0.00    +0.000 A 
ATOM     14  C   UNL     1       0.911   9.633  19.565  0.00  0.00    +0.000 A 
ATOM     15  N   UNL     1       1.720   8.669  19.094  0.00  0.00    +0.000 N 
ATOM     16  H   UNL     1       2.161   8.649  18.147  0.00  0.00    +0.000 HD
ENDBRANCH   2   6
BRANCH   1  17
ATOM     17  C   UNL     1       4.376   5.132  19.071  0.00  0.00    +0.000 C 
BRANCH  17  23
ATOM     18  C   UNL     1       4.501   4.010  16.782  0.00  0.00    +0.000 A 
ATOM     19  C   UNL     1       5.220   3.639  15.629  0.00  0.00    +0.000 A 
ATOM     20  C   UNL     1       6.501   4.116  15.407  0.00  0.00    +0.000 A 
ATOM     21  C   UNL     1       7.084   4.990  16.313  0.00  0.00    +0.000 A 
ATOM     22  C   UNL     1       6.407   5.382  17.491  0.00  0.00    +0.000 A 
ATOM     23  C   UNL     1       5.106   4.869  17.749  0.00  0.00    +0.000 A 
BRANCH  18  25
ATOM     24  C   UNL     1       2.904   2.383  17.664  0.00  0.00    +0.000 C 
ATOM     25  O   UNL     1       3.239   3.542  16.990  0.00  0.00    +0.000 OA
ENDBRANCH  18  25
BRANCH  22  26
ATOM     26  O   UNL     1       6.990   6.238  18.377  0.00  0.00    +0.000 OA
ATOM     27  C   UNL     1       7.969   5.882  19.286  0.00  0.00    +0.000 C 
ENDBRANCH  22  26
ENDBRANCH  17  23
ENDBRANCH   1  17
TORSDOF 5
ENDMDL
