MODEL 1
REMARK VINA RESULT:      -7.4      0.000      0.000
REMARK  Name = 
REMARK  9 active torsions:
REMARK  status: ('A' for Active; 'I' for Inactive)
REMARK    1  A    between atoms: C_1  and  O_2
REMARK    2  A    between atoms: O_2  and  C_3
REMARK    3  A    between atoms: C_3  and  C_5
REMARK    4  A    between atoms: N_12  and  C_13
REMARK    5  A    between atoms: C_13  and  C_14
REMARK    6  A    between atoms: N_16  and  C_17
REMARK    7  A    between atoms: C_20  and  N_21
REMARK    8  A    between atoms: N_21  and  C_22
REMARK    9  A    between atoms: N_21  and  C_23
REMARK                            x       y       z     vdW  Elec       q    Type
REMARK                         _______ _______ _______ _____ _____    ______ ____
ROOT
ATOM      1  C   UNL     1       3.440   4.562  20.134  0.00  0.00    +0.000 C 
ENDROOT
BRANCH   1   9
ATOM      2  C   UNL     1       3.366   4.018  17.623  0.00  0.00    +0.000 A 
ATOM      3  C   UNL     1       4.342   4.013  16.609  0.00  0.00    +0.000 A 
ATOM      4  C   UNL     1       5.503   4.469  17.203  0.00  0.00    +0.000 A 
ATOM      5  C   UNL     1       6.799   4.658  16.738  0.00  0.00    +0.000 A 
ATOM      6  C   UNL     1       7.574   5.131  17.791  0.00  0.00    +0.000 A 
ATOM      7  S   UNL     1       6.663   5.304  19.270  0.00  0.00    +0.000 S 
ATOM      8  C   UNL     1       5.293   4.758  18.490  0.00  0.00    +0.000 A 
ATOM      9  N   UNL     1       3.993   4.487  18.789  0.00  0.00    +0.000 N 
BRANCH   2  10
ATOM     10  C   UNL     1       1.979   3.601  17.503  0.00  0.00    +0.000 C 
ATOM     11  O   UNL     1       1.037   4.313  17.190  0.00  0.00    +0.000 OA
BRANCH  10  13
ATOM     12  C   UNL     1       0.976   2.011  18.919  0.00  0.00    +0.000 C 
ATOM     13  O   UNL     1       1.871   2.282  17.840  0.00  0.00    +0.000 OA
ENDBRANCH  10  13
ENDBRANCH   2  10
ENDBRANCH   1   9
BRANCH   1  14
ATOM     14  C   UNL     1       2.274   5.522  20.241  0.00  0.00    +0.000 C 
ATOM     15  O   UNL     1       1.169   5.120  20.595  0.00  0.00    +0.000 OA
ATOM     16  N   UNL     1       2.584   6.839  19.927  0.00  0.00    +0.000 N 
ATOM     17  H   UNL     1       3.451   7.008  19.427  0.00  0.00    +0.000 HD
BRANCH  16  18
ATOM     18  C   UNL     1       1.751   7.965  20.129  0.00  0.00    +0.000 A 
ATOM     19  C   UNL     1       1.170   8.284  21.352  0.00  0.00    +0.000 A 
ATOM     20  C   UNL     1       0.381   9.438  21.501  0.00  0.00    +0.000 A 
ATOM     21  C   UNL     1       0.138  10.320  20.441  0.00  0.00    +0.000 A 
ATOM     22  C   UNL     1       0.728   9.977  19.214  0.00  0.00    +0.000 A 
ATOM     23  C   UNL     1       1.527   8.829  19.056  0.00  0.00    +0.000 A 
BRANCH  21  24
ATOM     24  N   UNL     1      -0.656  11.446  20.580  0.00  0.00    +0.000 N 
ATOM     25  C   UNL     1      -0.719  12.182  21.837  0.00  0.00    +0.000 C 
ATOM     26  C   UNL     1      -1.628  11.840  19.568  0.00  0.00    +0.000 C 
ENDBRANCH  21  24
ENDBRANCH  16  18
ENDBRANCH   1  14
TORSDOF 6
ENDMDL
MODEL 2
REMARK VINA RESULT:      -7.2      0.618      1.143
REMARK  Name = 
REMARK  9 active torsions:
REMARK  status: ('A' for Active; 'I' for Inactive)
REMARK    1  A    between atoms: C_1  and  O_2
REMARK    2  A    between atoms: O_2  and  C_3
REMARK    3  A    between atoms: C_3  and  C_5
REMARK    4  A    between atoms: N_12  and  C_13
REMARK    5  A    between atoms: C_13  and  C_14
REMARK    6  A    between atoms: N_16  and  C_17
REMARK    7  A    between atoms: C_20  and  N_21
REMARK    8  A    between atoms: N_21  and  C_22
REMARK    9  A    between atoms: N_21  and  C_23
REMARK                            x       y       z     vdW  Elec       q    Type
REMARK                         _______ _______ _______ _____ _____    ______ ____
ROOT
ATOM      1  C   UNL     1       3.405   4.812  20.035  0.00  0.00    +0.000 C 
ENDROOT
BRANCH   1   9
ATOM      2  C   UNL     1       3.385   4.013  17.592  0.00  0.00    +0.000 A 
ATOM      3  C   UNL     1       4.388   3.881  16.614  0.00  0.00    +0.000 A 
ATOM      4  C   UNL     1       5.544   4.369  17.192  0.00  0.00    +0.000 A 
ATOM      5  C   UNL     1       6.856   4.480  16.749  0.00  0.00    +0.000 A 
ATOM      6  C   UNL     1       7.614   5.042  17.770  0.00  0.00    +0.000 A 
ATOM      7  S   UNL     1       6.668   5.388  19.195  0.00  0.00    +0.000 S 
ATOM      8  C   UNL     1       5.306   4.795  18.436  0.00  0.00    +0.000 A 
ATOM      9  N   UNL     1       3.992   4.586  18.722  0.00  0.00    +0.000 N 
BRANCH   2  10
ATOM     10  C   UNL     1       1.991   3.616  17.475  0.00  0.00    +0.000 C 
ATOM     11  O   UNL     1       1.063   4.339  17.145  0.00  0.00    +0.000 OA
BRANCH  10  13
ATOM     12  C   UNL     1       1.069   2.084  19.003  0.00  0.00    +0.000 C 
ATOM     13  O   UNL     1       1.860   2.307  17.835  0.00  0.00    +0.000 OA
ENDBRANCH  10  13
ENDBRANCH   2  10
ENDBRANCH   1   9
BRANCH   1  14
ATOM     14  C   UNL     1       2.276   5.821  20.011  0.00  0.00    +0.000 C 
ATOM     15  O   UNL     1       1.188   5.549  20.511  0.00  0.00    +0.000 OA
ATOM     16  N   UNL     1       2.599   7.031  19.408  0.00  0.00    +0.000 N 
ATOM     17  H   UNL     1       3.433   7.055  18.829  0.00  0.00    +0.000 HD
BRANCH  16  18
ATOM     18  C   UNL     1       1.814   8.208  19.420  0.00  0.00    +0.000 A 
ATOM     19  C   UNL     1       1.465   8.912  18.271  0.00  0.00    +0.000 A 
ATOM     20  C   UNL     1       0.650  10.055  18.344  0.00  0.00    +0.000 A 
ATOM     21  C   UNL     1       0.152  10.545  19.557  0.00  0.00    +0.000 A 
ATOM     22  C   UNL     1       0.521   9.824  20.703  0.00  0.00    +0.000 A 
ATOM     23  C   UNL     1       1.328   8.672  20.642  0.00  0.00    +0.000 A 
BRANCH  21  24
ATOM     24  N   UNL     1      -0.634  11.682  19.632  0.00  0.00    +0.000 N 
ATOM     25  C   UNL     1      -1.506  11.932  20.774  0.00  0.00    +0.000 C 
ATOM     26  C   UNL     1      -0.803  12.585  18.499  0.00  0.00    +0.000 C 
ENDBRANCH  21  24
ENDBRANCH  16  18
ENDBRANCH   1  14
TORSDOF 6
ENDMDL
MODEL 3
REMARK VINA RESULT:      -7.1      0.953      1.370
REMARK  Name = 
REMARK  9 active torsions:
REMARK  status: ('A' for Active; 'I' for Inactive)
REMARK    1  A    between atoms: C_1  and  O_2
REMARK    2  A    between atoms: O_2  and  C_3
REMARK    3  A    between atoms: C_3  and  C_5
REMARK    4  A    between atoms: N_12  and  C_13
REMARK    5  A    between atoms: C_13  and  C_14
REMARK    6  A    between atoms: N_16  and  C_17
REMARK    7  A    between atoms: C_20  and  N_21
REMARK    8  A    between atoms: N_21  and  C_22
REMARK    9  A    between atoms: N_21  and  C_23
REMARK                            x       y       z     vdW  Elec       q    Type
REMARK                         _______ _______ _______ _____ _____    ______ ____
ROOT
ATOM      1  C   UNL     1       3.232   5.337  19.802  0.00  0.00    +0.000 C 
ENDROOT
BRANCH   1   9
ATOM      2  C   UNL     1       3.325   4.052  17.578  0.00  0.00    +0.000 A 
ATOM      3  C   UNL     1       4.373   3.720  16.701  0.00  0.00    +0.000 A 
ATOM      4  C   UNL     1       5.505   4.315  17.224  0.00  0.00    +0.000 A 
ATOM      5  C   UNL     1       6.839   4.330  16.836  0.00  0.00    +0.000 A 
ATOM      6  C   UNL     1       7.552   5.089  17.758  0.00  0.00    +0.000 A 
ATOM      7  S   UNL     1       6.539   5.723  19.031  0.00  0.00    +0.000 S 
ATOM      8  C   UNL     1       5.210   4.988  18.340  0.00  0.00    +0.000 A 
ATOM      9  N   UNL     1       3.881   4.845  18.595  0.00  0.00    +0.000 N 
BRANCH   2  10
ATOM     10  C   UNL     1       1.934   3.642  17.473  0.00  0.00    +0.000 C 
ATOM     11  O   UNL     1       0.989   4.366  17.198  0.00  0.00    +0.000 OA
BRANCH  10  13
ATOM     12  C   UNL     1       1.604   2.032  19.156  0.00  0.00    +0.000 C 
ATOM     13  O   UNL     1       1.828   2.316  17.775  0.00  0.00    +0.000 OA
ENDBRANCH  10  13
ENDBRANCH   2  10
ENDBRANCH   1   9
BRANCH   1  14
ATOM     14  C   UNL     1       2.554   6.678  19.603  0.00  0.00    +0.000 C 
ATOM     15  O   UNL     1       2.410   7.140  18.475  0.00  0.00    +0.000 OA
ATOM     16  N   UNL     1       2.124   7.283  20.778  0.00  0.00    +0.000 N 
ATOM     17  H   UNL     1       2.503   6.930  21.651  0.00  0.00    +0.000 HD
BRANCH  16  18
ATOM     18  C   UNL     1       1.297   8.427  20.875  0.00  0.00    +0.000 A 
ATOM     19  C   UNL     1       1.088   9.316  19.825  0.00  0.00    +0.000 A 
ATOM     20  C   UNL     1       0.224  10.416  19.970  0.00  0.00    +0.000 A 
ATOM     21  C   UNL     1      -0.463  10.677  21.161  0.00  0.00    +0.000 A 
ATOM     22  C   UNL     1      -0.233   9.772  22.209  0.00  0.00    +0.000 A 
ATOM     23  C   UNL     1       0.622   8.662  22.073  0.00  0.00    +0.000 A 
BRANCH  21  24
ATOM     24  N   UNL     1      -1.298  11.771  21.312  0.00  0.00    +0.000 N 
ATOM     25  C   UNL     1      -1.565  12.350  22.624  0.00  0.00    +0.000 C 
ATOM     26  C   UNL     1      -2.120  12.278  20.219  0.00  0.00    +0.000 C 
ENDBRANCH  21  24
ENDBRANCH  16  18
ENDBRANCH   1  14
TORSDOF 6
ENDMDL
MODEL 4
REMARK VINA RESULT:      -7.1      1.561      1.928
REMARK  Name = 
REMARK  9 active torsions:
REMARK  status: ('A' for Active; 'I' for Inactive)
REMARK    1  A    between atoms: C_1  and  O_2
REMARK    2  A    between atoms: O_2  and  C_3
REMARK    3  A    between atoms: C_3  and  C_5
REMARK    4  A    between atoms: N_12  and  C_13
REMARK    5  A    between atoms: C_13  and  C_14
REMARK    6  A    between atoms: N_16  and  C_17
REMARK    7  A    between atoms: C_20  and  N_21
REMARK    8  A    between atoms: N_21  and  C_22
REMARK    9  A    between atoms: N_21  and  C_23
REMARK                            x       y       z     vdW  Elec       q    Type
REMARK                         _______ _______ _______ _____ _____    ______ ____
ROOT
ATOM      1  C   UNL     1       3.919   5.604  19.670  0.00  0.00    +0.000 C 
ENDROOT
BRANCH   1   9
ATOM      2  C   UNL     1       3.742   3.364  18.422  0.00  0.00    +0.000 A 
ATOM      3  C   UNL     1       4.150   2.939  17.144  0.00  0.00    +0.000 A 
ATOM      4  C   UNL     1       4.675   4.057  16.525  0.00  0.00    +0.000 A 
ATOM      5  C   UNL     1       5.258   4.272  15.282  0.00  0.00    +0.000 A 
ATOM      6  C   UNL     1       5.623   5.611  15.198  0.00  0.00    +0.000 A 
ATOM      7  S   UNL     1       5.230   6.505  16.645  0.00  0.00    +0.000 S 
ATOM      8  C   UNL     1       4.600   5.121  17.330  0.00  0.00    +0.000 A 
ATOM      9  N   UNL     1       4.040   4.734  18.508  0.00  0.00    +0.000 N 
BRANCH   2  10
ATOM     10  C   UNL     1       3.146   2.547  19.466  0.00  0.00    +0.000 C 
ATOM     11  O   UNL     1       3.541   2.453  20.619  0.00  0.00    +0.000 OA
BRANCH  10  13
ATOM     12  C   UNL     1       0.858   2.579  18.921  0.00  0.00    +0.000 C 
ATOM     13  O   UNL     1       2.088   1.855  18.953  0.00  0.00    +0.000 OA
ENDBRANCH  10  13
ENDBRANCH   2  10
ENDBRANCH   1   9
BRANCH   1  14
ATOM     14  C   UNL     1       2.582   6.311  19.743  0.00  0.00    +0.000 C 
ATOM     15  O   UNL     1       1.620   5.767  20.276  0.00  0.00    +0.000 OA
ATOM     16  N   UNL     1       2.574   7.583  19.183  0.00  0.00    +0.000 N 
ATOM     17  H   UNL     1       3.346   7.828  18.571  0.00  0.00    +0.000 HD
BRANCH  16  18
ATOM     18  C   UNL     1       1.532   8.535  19.285  0.00  0.00    +0.000 A 
ATOM     19  C   UNL     1       0.969   8.933  20.494  0.00  0.00    +0.000 A 
ATOM     20  C   UNL     1      -0.039   9.912  20.534  0.00  0.00    +0.000 A 
ATOM     21  C   UNL     1      -0.528  10.533  19.379  0.00  0.00    +0.000 A 
ATOM     22  C   UNL     1       0.049  10.112  18.170  0.00  0.00    +0.000 A 
ATOM     23  C   UNL     1       1.066   9.140  18.118  0.00  0.00    +0.000 A 
BRANCH  21  24
ATOM     24  N   UNL     1      -1.535  11.482  19.415  0.00  0.00    +0.000 N 
ATOM     25  C   UNL     1      -2.526  11.581  18.350  0.00  0.00    +0.000 C 
ATOM     26  C   UNL     1      -1.547  12.565  20.391  0.00  0.00    +0.000 C 
ENDBRANCH  21  24
ENDBRANCH  16  18
ENDBRANCH   1  14
TORSDOF 6
ENDMDL
MODEL 5
REMARK VINA RESULT:      -7.0      0.927      1.180
REMARK  Name = 
REMARK  9 active torsions:
REMARK  status: ('A' for Active; 'I' for Inactive)
REMARK    1  A    between atoms: C_1  and  O_2
REMARK    2  A    between atoms: O_2  and  C_3
REMARK    3  A    between atoms: C_3  and  C_5
REMARK    4  A    between atoms: N_12  and  C_13
REMARK    5  A    between atoms: C_13  and  C_14
REMARK    6  A    between atoms: N_16  and  C_17
REMARK    7  A    between atoms: C_20  and  N_21
REMARK    8  A    between atoms: N_21  and  C_22
REMARK    9  A    between atoms: N_21  and  C_23
REMARK                            x       y       z     vdW  Elec       q    Type
REMARK                         _______ _______ _______ _____ _____    ______ ____
ROOT
ATOM      1  C   UNL     1       3.268   5.331  19.810  0.00  0.00    +0.000 C 
ENDROOT
BRANCH   1   9
ATOM      2  C   UNL     1       3.333   4.066  17.573  0.00  0.00    +0.000 A 
ATOM      3  C   UNL     1       4.371   3.737  16.682  0.00  0.00    +0.000 A 
ATOM      4  C   UNL     1       5.510   4.321  17.200  0.00  0.00    +0.000 A 
ATOM      5  C   UNL     1       6.841   4.334  16.799  0.00  0.00    +0.000 A 
ATOM      6  C   UNL     1       7.566   5.081  17.720  0.00  0.00    +0.000 A 
ATOM      7  S   UNL     1       6.570   5.708  19.008  0.00  0.00    +0.000 S 
ATOM      8  C   UNL     1       5.230   4.986  18.325  0.00  0.00    +0.000 A 
ATOM      9  N   UNL     1       3.903   4.846  18.592  0.00  0.00    +0.000 N 
BRANCH   2  10
ATOM     10  C   UNL     1       1.939   3.663  17.479  0.00  0.00    +0.000 C 
ATOM     11  O   UNL     1       0.992   4.398  17.240  0.00  0.00    +0.000 OA
BRANCH  10  13
ATOM     12  C   UNL     1       1.698   2.002  19.127  0.00  0.00    +0.000 C 
ATOM     13  O   UNL     1       1.833   2.329  17.744  0.00  0.00    +0.000 OA
ENDBRANCH  10  13
ENDBRANCH   2  10
ENDBRANCH   1   9
BRANCH   1  14
ATOM     14  C   UNL     1       2.637   6.698  19.643  0.00  0.00    +0.000 C 
ATOM     15  O   UNL     1       2.605   7.237  18.541  0.00  0.00    +0.000 OA
ATOM     16  N   UNL     1       2.111   7.233  20.813  0.00  0.00    +0.000 N 
ATOM     17  H   UNL     1       2.401   6.813  21.690  0.00  0.00    +0.000 HD
BRANCH  16  18
ATOM     18  C   UNL     1       1.300   8.388  20.913  0.00  0.00    +0.000 A 
ATOM     19  C   UNL     1       0.761   8.849  22.110  0.00  0.00    +0.000 A 
ATOM     20  C   UNL     1      -0.007  10.026  22.153  0.00  0.00    +0.000 A 
ATOM     21  C   UNL     1      -0.271  10.790  21.010  0.00  0.00    +0.000 A 
ATOM     22  C   UNL     1       0.275  10.304  19.812  0.00  0.00    +0.000 A 
ATOM     23  C   UNL     1       1.054   9.132  19.758  0.00  0.00    +0.000 A 
BRANCH  21  24
ATOM     24  N   UNL     1      -1.045  11.937  21.046  0.00  0.00    +0.000 N 
ATOM     25  C   UNL     1      -1.907  12.310  19.930  0.00  0.00    +0.000 C 
ATOM     26  C   UNL     1      -0.893  12.943  22.090  0.00  0.00    +0.000 C 
ENDBRANCH  21  24
ENDBRANCH  16  18
ENDBRANCH   1  14
TORSDOF 6
ENDMDL
MODEL 6
REMARK VINA RESULT:      -6.9      1.120      1.224
REMARK  Name = 
REMARK  9 active torsions:
REMARK  status: ('A' for Active; 'I' for Inactive)
REMARK    1  A    between atoms: C_1  and  O_2
REMARK    2  A    between atoms: O_2  and  C_3
REMARK    3  A    between atoms: C_3  and  C_5
REMARK    4  A    between atoms: N_12  and  C_13
REMARK    5  A    between atoms: C_13  and  C_14
REMARK    6  A    between atoms: N_16  and  C_17
REMARK    7  A    between atoms: C_20  and  N_21
REMARK    8  A    between atoms: N_21  and  C_22
REMARK    9  A    between atoms: N_21  and  C_23
REMARK                            x       y       z     vdW  Elec       q    Type
REMARK                         _______ _______ _______ _____ _____    ______ ____
ROOT
ATOM      1  C   UNL     1       3.911   5.308  19.711  0.00  0.00    +0.000 C 
ENDROOT
BRANCH   1   9
ATOM      2  C   UNL     1       3.398   3.671  17.797  0.00  0.00    +0.000 A 
ATOM      3  C   UNL     1       4.057   3.359  16.594  0.00  0.00    +0.000 A 
ATOM      4  C   UNL     1       5.138   4.215  16.525  0.00  0.00    +0.000 A 
ATOM      5  C   UNL     1       6.168   4.376  15.606  0.00  0.00    +0.000 A 
ATOM      6  C   UNL     1       6.999   5.396  16.056  0.00  0.00    +0.000 A 
ATOM      7  S   UNL     1       6.462   6.078  17.570  0.00  0.00    +0.000 S 
ATOM      8  C   UNL     1       5.169   5.025  17.588  0.00  0.00    +0.000 A 
ATOM      9  N   UNL     1       4.120   4.716  18.398  0.00  0.00    +0.000 N 
BRANCH   2  10
ATOM     10  C   UNL     1       2.210   3.029  18.336  0.00  0.00    +0.000 C 
ATOM     11  O   UNL     1       1.060   3.222  17.972  0.00  0.00    +0.000 OA
BRANCH  10  13
ATOM     12  C   UNL     1       1.786   2.333  20.543  0.00  0.00    +0.000 C 
ATOM     13  O   UNL     1       2.567   2.196  19.356  0.00  0.00    +0.000 OA
ENDBRANCH  10  13
ENDBRANCH   2  10
ENDBRANCH   1   9
BRANCH   1  14
ATOM     14  C   UNL     1       2.636   6.121  19.797  0.00  0.00    +0.000 C 
ATOM     15  O   UNL     1       1.671   5.699  20.426  0.00  0.00    +0.000 OA
ATOM     16  N   UNL     1       2.688   7.341  19.133  0.00  0.00    +0.000 N 
ATOM     17  H   UNL     1       3.436   7.475  18.461  0.00  0.00    +0.000 HD
BRANCH  16  18
ATOM     18  C   UNL     1       1.726   8.377  19.211  0.00  0.00    +0.000 A 
ATOM     19  C   UNL     1       1.193   8.843  20.409  0.00  0.00    +0.000 A 
ATOM     20  C   UNL     1       0.268   9.902  20.425  0.00  0.00    +0.000 A 
ATOM     21  C   UNL     1      -0.164  10.537  19.255  0.00  0.00    +0.000 A 
ATOM     22  C   UNL     1       0.381  10.047  18.058  0.00  0.00    +0.000 A 
ATOM     23  C   UNL     1       1.315   8.994  18.030  0.00  0.00    +0.000 A 
BRANCH  21  24
ATOM     24  N   UNL     1      -1.091  11.566  19.267  0.00  0.00    +0.000 N 
ATOM     25  C   UNL     1      -1.349  12.343  20.475  0.00  0.00    +0.000 C 
ATOM     26  C   UNL     1      -2.008  11.798  18.159  0.00  0.00    +0.000 C 
ENDBRANCH  21  24
ENDBRANCH  16  18
ENDBRANCH   1  14
TORSDOF 6
ENDMDL
MODEL 7
REMARK VINA RESULT:      -6.9      1.146      1.685
REMARK  Name = 
REMARK  9 active torsions:
REMARK  status: ('A' for Active; 'I' for Inactive)
REMARK    1  A    between atoms: C_1  and  O_2
REMARK    2  A    between atoms: O_2  and  C_3
REMARK    3  A    between atoms: C_3  and  C_5
REMARK    4  A    between atoms: N_12  and  C_13
REMARK    5  A    between atoms: C_13  and  C_14
REMARK    6  A    between atoms: N_16  and  C_17
REMARK    7  A    between atoms: C_20  and  N_21
REMARK    8  A    between atoms: N_21  and  C_22
REMARK    9  A    between atoms: N_21  and  C_23
REMARK                            x       y       z     vdW  Elec       q    Type
REMARK                         _______ _______ _______ _____ _____    ______ ____
ROOT
ATOM      1  C   UNL     1       3.816   5.411  19.735  0.00  0.00    +0.000 C 
ENDROOT
BRANCH   1   9
ATOM      2  C   UNL     1       3.323   3.744  17.842  0.00  0.00    +0.000 A 
ATOM      3  C   UNL     1       3.984   3.426  16.641  0.00  0.00    +0.000 A 
ATOM      4  C   UNL     1       5.054   4.296  16.560  0.00  0.00    +0.000 A 
ATOM      5  C   UNL     1       6.081   4.460  15.637  0.00  0.00    +0.000 A 
ATOM      6  C   UNL     1       6.897   5.496  16.074  0.00  0.00    +0.000 A 
ATOM      7  S   UNL     1       6.353   6.190  17.581  0.00  0.00    +0.000 S 
ATOM      8  C   UNL     1       5.075   5.118  17.613  0.00  0.00    +0.000 A 
ATOM      9  N   UNL     1       4.031   4.805  18.428  0.00  0.00    +0.000 N 
BRANCH   2  10
ATOM     10  C   UNL     1       2.144   3.092  18.390  0.00  0.00    +0.000 C 
ATOM     11  O   UNL     1       0.994   3.246  18.009  0.00  0.00    +0.000 OA
BRANCH  10  13
ATOM     12  C   UNL     1       1.687   2.426  20.599  0.00  0.00    +0.000 C 
ATOM     13  O   UNL     1       2.510   2.300  19.439  0.00  0.00    +0.000 OA
ENDBRANCH  10  13
ENDBRANCH   2  10
ENDBRANCH   1   9
BRANCH   1  14
ATOM     14  C   UNL     1       2.547   6.234  19.803  0.00  0.00    +0.000 C 
ATOM     15  O   UNL     1       1.578   5.831  20.438  0.00  0.00    +0.000 OA
ATOM     16  N   UNL     1       2.608   7.441  19.115  0.00  0.00    +0.000 N 
ATOM     17  H   UNL     1       3.358   7.556  18.441  0.00  0.00    +0.000 HD
BRANCH  16  18
ATOM     18  C   UNL     1       1.654   8.484  19.170  0.00  0.00    +0.000 A 
ATOM     19  C   UNL     1       1.140   9.118  18.043  0.00  0.00    +0.000 A 
ATOM     20  C   UNL     1       0.164  10.124  18.160  0.00  0.00    +0.000 A 
ATOM     21  C   UNL     1      -0.337  10.541  19.399  0.00  0.00    +0.000 A 
ATOM     22  C   UNL     1       0.200   9.894  20.523  0.00  0.00    +0.000 A 
ATOM     23  C   UNL     1       1.170   8.879  20.418  0.00  0.00    +0.000 A 
BRANCH  21  24
ATOM     24  N   UNL     1      -1.281  11.546  19.517  0.00  0.00    +0.000 N 
ATOM     25  C   UNL     1      -2.439  11.611  18.632  0.00  0.00    +0.000 C 
ATOM     26  C   UNL     1      -1.077  12.707  20.375  0.00  0.00    +0.000 C 
ENDBRANCH  21  24
ENDBRANCH  16  18
ENDBRANCH   1  14
TORSDOF 6
ENDMDL
MODEL 8
REMARK VINA RESULT:      -6.9      1.120      1.790
REMARK  Name = 
REMARK  9 active torsions:
REMARK  status: ('A' for Active; 'I' for Inactive)
REMARK    1  A    between atoms: C_1  and  O_2
REMARK    2  A    between atoms: O_2  and  C_3
REMARK    3  A    between atoms: C_3  and  C_5
REMARK    4  A    between atoms: N_12  and  C_13
REMARK    5  A    between atoms: C_13  and  C_14
REMARK    6  A    between atoms: N_16  and  C_17
REMARK    7  A    between atoms: C_20  and  N_21
REMARK    8  A    between atoms: N_21  and  C_22
REMARK    9  A    between atoms: N_21  and  C_23
REMARK                            x       y       z     vdW  Elec       q    Type
REMARK                         _______ _______ _______ _____ _____    ______ ____
ROOT
ATOM      1  C   UNL     1       4.052   4.909  19.651  0.00  0.00    +0.000 C 
ENDROOT
BRANCH   1   9
ATOM      2  C   UNL     1       3.990   3.356  17.603  0.00  0.00    +0.000 A 
ATOM      3  C   UNL     1       4.724   3.314  16.404  0.00  0.00    +0.000 A 
ATOM      4  C   UNL     1       5.562   4.412  16.437  0.00  0.00    +0.000 A 
ATOM      5  C   UNL     1       6.535   4.894  15.569  0.00  0.00    +0.000 A 
ATOM      6  C   UNL     1       7.080   6.046  16.124  0.00  0.00    +0.000 A 
ATOM      7  S   UNL     1       6.367   6.451  17.664  0.00  0.00    +0.000 S 
ATOM      8  C   UNL     1       5.375   5.115  17.558  0.00  0.00    +0.000 A 
ATOM      9  N   UNL     1       4.422   4.494  18.305  0.00  0.00    +0.000 N 
BRANCH   2  10
ATOM     10  C   UNL     1       2.989   2.401  18.050  0.00  0.00    +0.000 C 
ATOM     11  O   UNL     1       3.210   1.307  18.548  0.00  0.00    +0.000 OA
BRANCH  10  13
ATOM     12  C   UNL     1       0.731   2.476  18.705  0.00  0.00    +0.000 C 
ATOM     13  O   UNL     1       1.743   2.893  17.789  0.00  0.00    +0.000 OA
ENDBRANCH  10  13
ENDBRANCH   2  10
ENDBRANCH   1   9
BRANCH   1  14
ATOM     14  C   UNL     1       2.805   5.767  19.683  0.00  0.00    +0.000 C 
ATOM     15  O   UNL     1       1.785   5.362  20.233  0.00  0.00    +0.000 OA
ATOM     16  N   UNL     1       2.944   7.006  19.067  0.00  0.00    +0.000 N 
ATOM     17  H   UNL     1       3.740   7.133  18.450  0.00  0.00    +0.000 HD
BRANCH  16  18
ATOM     18  C   UNL     1       2.018   8.074  19.120  0.00  0.00    +0.000 A 
ATOM     19  C   UNL     1       1.587   8.774  17.997  0.00  0.00    +0.000 A 
ATOM     20  C   UNL     1       0.635   9.803  18.107  0.00  0.00    +0.000 A 
ATOM     21  C   UNL     1       0.076  10.178  19.335  0.00  0.00    +0.000 A 
ATOM     22  C   UNL     1       0.530   9.464  20.455  0.00  0.00    +0.000 A 
ATOM     23  C   UNL     1       1.475   8.426  20.356  0.00  0.00    +0.000 A 
BRANCH  21  24
ATOM     24  N   UNL     1      -0.845  11.205  19.448  0.00  0.00    +0.000 N 
ATOM     25  C   UNL     1      -1.299  11.953  18.281  0.00  0.00    +0.000 C 
ATOM     26  C   UNL     1      -1.254  11.742  20.740  0.00  0.00    +0.000 C 
ENDBRANCH  21  24
ENDBRANCH  16  18
ENDBRANCH   1  14
TORSDOF 6
ENDMDL
MODEL 9
REMARK VINA RESULT:      -6.9      1.232      1.294
REMARK  Name = 
REMARK  9 active torsions:
REMARK  status: ('A' for Active; 'I' for Inactive)
REMARK    1  A    between atoms: C_1  and  O_2
REMARK    2  A    between atoms: O_2  and  C_3
REMARK    3  A    between atoms: C_3  and  C_5
REMARK    4  A    between atoms: N_12  and  C_13
REMARK    5  A    between atoms: C_13  and  C_14
REMARK    6  A    between atoms: N_16  and  C_17
REMARK    7  A    between atoms: C_20  and  N_21
REMARK    8  A    between atoms: N_21  and  C_22
REMARK    9  A    between atoms: N_21  and  C_23
REMARK                            x       y       z     vdW  Elec       q    Type
REMARK                         _______ _______ _______ _____ _____    ______ ____
ROOT
ATOM      1  C   UNL     1       3.490   5.517  19.637  0.00  0.00    +0.000 C 
ENDROOT
BRANCH   1   9
ATOM      2  C   UNL     1       3.229   3.587  17.960  0.00  0.00    +0.000 A 
ATOM      3  C   UNL     1       4.013   3.135  16.882  0.00  0.00    +0.000 A 
ATOM      4  C   UNL     1       5.061   4.028  16.778  0.00  0.00    +0.000 A 
ATOM      5  C   UNL     1       6.167   4.106  15.940  0.00  0.00    +0.000 A 
ATOM      6  C   UNL     1       6.908   5.225  16.300  0.00  0.00    +0.000 A 
ATOM      7  S   UNL     1       6.202   6.096  17.638  0.00  0.00    +0.000 S 
ATOM      8  C   UNL     1       4.957   4.988  17.702  0.00  0.00    +0.000 A 
ATOM      9  N   UNL     1       3.848   4.747  18.454  0.00  0.00    +0.000 N 
BRANCH   2  10
ATOM     10  C   UNL     1       2.022   2.968  18.484  0.00  0.00    +0.000 C 
ATOM     11  O   UNL     1       0.889   3.124  18.053  0.00  0.00    +0.000 OA
BRANCH  10  13
ATOM     12  C   UNL     1       1.651   2.570  20.772  0.00  0.00    +0.000 C 
ATOM     13  O   UNL     1       2.337   2.209  19.573  0.00  0.00    +0.000 OA
ENDBRANCH  10  13
ENDBRANCH   2  10
ENDBRANCH   1   9
BRANCH   1  14
ATOM     14  C   UNL     1       2.580   6.687  19.328  0.00  0.00    +0.000 C 
ATOM     15  O   UNL     1       2.157   6.861  18.189  0.00  0.00    +0.000 OA
ATOM     16  N   UNL     1       2.282   7.488  20.424  0.00  0.00    +0.000 N 
ATOM     17  H   UNL     1       2.868   7.389  21.247  0.00  0.00    +0.000 HD
BRANCH  16  18
ATOM     18  C   UNL     1       1.313   8.518  20.468  0.00  0.00    +0.000 A 
ATOM     19  C   UNL     1       0.460   8.727  21.548  0.00  0.00    +0.000 A 
ATOM     20  C   UNL     1      -0.457   9.793  21.550  0.00  0.00    +0.000 A 
ATOM     21  C   UNL     1      -0.565  10.690  20.481  0.00  0.00    +0.000 A 
ATOM     22  C   UNL     1       0.299  10.457  19.400  0.00  0.00    +0.000 A 
ATOM     23  C   UNL     1       1.228   9.400  19.390  0.00  0.00    +0.000 A 
BRANCH  21  24
ATOM     24  N   UNL     1      -1.483  11.726  20.472  0.00  0.00    +0.000 N 
ATOM     25  C   UNL     1      -1.903  12.382  21.706  0.00  0.00    +0.000 C 
ATOM     26  C   UNL     1      -2.239  12.084  19.278  0.00  0.00    +0.000 C 
ENDBRANCH  21  24
ENDBRANCH  16  18
ENDBRANCH   1  14
TORSDOF 6
ENDMDL
