MODEL 1
REMARK VINA RESULT:      -7.9      0.000      0.000
REMARK  Name = 
REMARK  13 active torsions:
REMARK  status: ('A' for Active; 'I' for Inactive)
REMARK    1  A    between atoms: C_1  and  O_2
REMARK    2  A    between atoms: O_2  and  C_3
REMARK    3  A    between atoms: C_6  and  C_7
REMARK    4  A    between atoms: C_7  and  C_8
REMARK    5  A    between atoms: C_8  and  N_9
REMARK    6  A    between atoms: C_8  and  C_21
REMARK    7  A    between atoms: N_9  and  C_10
REMARK    8  A    between atoms: C_10  and  C_11
REMARK    9  A    between atoms: C_10  and  C_17
REMARK   10  A    between atoms: N_23  and  C_24
REMARK   11  A    between atoms: C_24  and  C_25
REMARK   12  A    between atoms: C_24  and  C_27
REMARK   13  A    between atoms: C_27  and  C_28
REMARK                            x       y       z     vdW  Elec       q    Type
REMARK                         _______ _______ _______ _____ _____    ______ ____
ROOT
ATOM      1  C   UNL     1       3.006   7.109  17.764  0.00  0.00    +0.000 C 
ENDROOT
BRANCH   1   2
ATOM      2  C   UNL     1       4.276   6.735  16.920  0.00  0.00    +0.000 C 
ATOM      3  O   UNL     1       4.596   7.280  15.869  0.00  0.00    +0.000 OA
ATOM      4  N   UNL     1       5.048   5.716  17.459  0.00  0.00    +0.000 N 
ATOM      5  H   UNL     1       4.885   5.433  18.417  0.00  0.00    +0.000 HD
BRANCH   4   6
ATOM      6  C   UNL     1       6.235   5.210  16.761  0.00  0.00    +0.000 C 
BRANCH   6   7
ATOM      7  C   UNL     1       7.326   4.819  17.744  0.00  0.00    +0.000 C 
ATOM      8  N   UNL     1       8.231   4.493  18.560  0.00  0.00    +0.000 NA
ENDBRANCH   6   7
BRANCH   6   9
ATOM      9  C   UNL     1       5.904   4.022  15.840  0.00  0.00    +0.000 C 
BRANCH   9  10
ATOM     10  C   UNL     1       6.405   4.183  14.418  0.00  0.00    +0.000 A 
ATOM     11  C   UNL     1       7.370   5.150  14.094  0.00  0.00    +0.000 A 
ATOM     12  C   UNL     1       7.826   5.292  12.784  0.00  0.00    +0.000 A 
ATOM     13  C   UNL     1       7.329   4.456  11.775  0.00  0.00    +0.000 A 
ATOM     14  C   UNL     1       6.390   3.482  12.088  0.00  0.00    +0.000 A 
ATOM     15  C   UNL     1       5.921   3.349  13.398  0.00  0.00    +0.000 A 
ENDBRANCH   9  10
ENDBRANCH   6   9
ENDBRANCH   4   6
ENDBRANCH   1   2
BRANCH   1  16
ATOM     16  N   UNL     1       3.089   6.317  19.024  0.00  0.00    +0.000 NA
ATOM     17  H   UNL     1       4.026   5.947  19.162  0.00  0.00    +0.000 HD
BRANCH  16  18
ATOM     18  C   UNL     1       2.100   5.223  19.280  0.00  0.00    +0.000 C 
BRANCH  18  19
ATOM     19  C   UNL     1       2.653   3.835  18.963  0.00  0.00    +0.000 A 
ATOM     20  C   UNL     1       3.694   3.257  19.708  0.00  0.00    +0.000 A 
ATOM     21  C   UNL     1       4.257   2.037  19.320  0.00  0.00    +0.000 A 
ATOM     22  C   UNL     1       3.786   1.377  18.187  0.00  0.00    +0.000 A 
ATOM     23  C   UNL     1       2.702   1.897  17.486  0.00  0.00    +0.000 A 
ATOM     24  C   UNL     1       2.125   3.104  17.883  0.00  0.00    +0.000 A 
ENDBRANCH  18  19
BRANCH  18  25
ATOM     25  C   UNL     1       1.462   5.283  20.727  0.00  0.00    +0.000 C 
ATOM     26  F   UNL     1       0.492   4.345  20.873  0.00  0.00    +0.000 F 
ATOM     27  F   UNL     1       2.394   5.048  21.681  0.00  0.00    +0.000 F 
ATOM     28  F   UNL     1       0.883   6.471  21.016  0.00  0.00    +0.000 F 
ENDBRANCH  18  25
ENDBRANCH  16  18
ENDBRANCH   1  16
BRANCH   1  29
ATOM     29  C   UNL     1       2.948   8.658  17.952  0.00  0.00    +0.000 C 
BRANCH  29  33
ATOM     30  C   UNL     1      -0.707  10.484  19.437  0.00  0.00    +0.000 A 
ATOM     31  C   UNL     1      -0.555  10.194  18.081  0.00  0.00    +0.000 A 
ATOM     32  C   UNL     1       0.573   9.513  17.603  0.00  0.00    +0.000 A 
ATOM     33  C   UNL     1       1.611   9.179  18.479  0.00  0.00    +0.000 A 
ATOM     34  C   UNL     1       1.414   9.395  19.854  0.00  0.00    +0.000 A 
ATOM     35  C   UNL     1       0.258  10.040  20.336  0.00  0.00    +0.000 A 
BRANCH  30  37
ATOM     36  C   UNL     1      -2.661  11.595  18.656  0.00  0.00    +0.000 C 
ATOM     37  O   UNL     1      -1.800  11.251  19.730  0.00  0.00    +0.000 OA
ENDBRANCH  30  37
ENDBRANCH  29  33
ENDBRANCH   1  29
TORSDOF 12
ENDMDL
MODEL 2
REMARK VINA RESULT:      -7.3      2.481      7.952
REMARK  Name = 
REMARK  13 active torsions:
REMARK  status: ('A' for Active; 'I' for Inactive)
REMARK    1  A    between atoms: C_1  and  O_2
REMARK    2  A    between atoms: O_2  and  C_3
REMARK    3  A    between atoms: C_6  and  C_7
REMARK    4  A    between atoms: C_7  and  C_8
REMARK    5  A    between atoms: C_8  and  N_9
REMARK    6  A    between atoms: C_8  and  C_21
REMARK    7  A    between atoms: N_9  and  C_10
REMARK    8  A    between atoms: C_10  and  C_11
REMARK    9  A    between atoms: C_10  and  C_17
REMARK   10  A    between atoms: N_23  and  C_24
REMARK   11  A    between atoms: C_24  and  C_25
REMARK   12  A    between atoms: C_24  and  C_27
REMARK   13  A    between atoms: C_27  and  C_28
REMARK                            x       y       z     vdW  Elec       q    Type
REMARK                         _______ _______ _______ _____ _____    ______ ____
ROOT
ATOM      1  C   UNL     1       3.492   6.733  18.663  0.00  0.00    +0.000 C 
ENDROOT
BRANCH   1   2
ATOM      2  C   UNL     1       2.267   7.694  18.858  0.00  0.00    +0.000 C 
ATOM      3  O   UNL     1       1.605   8.171  17.942  0.00  0.00    +0.000 OA
ATOM      4  N   UNL     1       1.961   7.979  20.182  0.00  0.00    +0.000 N 
ATOM      5  H   UNL     1       2.378   7.416  20.912  0.00  0.00    +0.000 HD
BRANCH   4   6
ATOM      6  C   UNL     1       0.881   8.909  20.530  0.00  0.00    +0.000 C 
BRANCH   6   7
ATOM      7  C   UNL     1       0.907   9.250  22.012  0.00  0.00    +0.000 C 
ATOM      8  N   UNL     1       0.926   9.534  23.240  0.00  0.00    +0.000 NA
ENDBRANCH   6   7
BRANCH   6   9
ATOM      9  C   UNL     1       0.931  10.198  19.691  0.00  0.00    +0.000 C 
BRANCH   9  10
ATOM     10  C   UNL     1      -0.432  10.745  19.317  0.00  0.00    +0.000 A 
ATOM     11  C   UNL     1      -0.960  11.878  19.958  0.00  0.00    +0.000 A 
ATOM     12  C   UNL     1      -2.215  12.375  19.607  0.00  0.00    +0.000 A 
ATOM     13  C   UNL     1      -2.959  11.752  18.597  0.00  0.00    +0.000 A 
ATOM     14  C   UNL     1      -2.438  10.644  17.942  0.00  0.00    +0.000 A 
ATOM     15  C   UNL     1      -1.186  10.135  18.303  0.00  0.00    +0.000 A 
ENDBRANCH   9  10
ENDBRANCH   6   9
ENDBRANCH   4   6
ENDBRANCH   1   2
BRANCH   1  16
ATOM     16  N   UNL     1       2.969   5.517  17.978  0.00  0.00    +0.000 NA
ATOM     17  H   UNL     1       1.953   5.495  17.997  0.00  0.00    +0.000 HD
BRANCH  16  18
ATOM     18  C   UNL     1       3.484   4.166  18.368  0.00  0.00    +0.000 C 
BRANCH  18  19
ATOM     19  C   UNL     1       2.708   3.546  19.529  0.00  0.00    +0.000 A 
ATOM     20  C   UNL     1       1.319   3.703  19.669  0.00  0.00    +0.000 A 
ATOM     21  C   UNL     1       0.658   3.224  20.804  0.00  0.00    +0.000 A 
ATOM     22  C   UNL     1       1.373   2.579  21.811  0.00  0.00    +0.000 A 
ATOM     23  C   UNL     1       2.735   2.345  21.649  0.00  0.00    +0.000 A 
ATOM     24  C   UNL     1       3.394   2.804  20.507  0.00  0.00    +0.000 A 
ENDBRANCH  18  19
BRANCH  18  25
ATOM     25  C   UNL     1       3.606   3.167  17.146  0.00  0.00    +0.000 C 
ATOM     26  F   UNL     1       2.802   2.087  17.315  0.00  0.00    +0.000 F 
ATOM     27  F   UNL     1       3.236   3.766  15.988  0.00  0.00    +0.000 F 
ATOM     28  F   UNL     1       4.856   2.683  16.966  0.00  0.00    +0.000 F 
ENDBRANCH  18  25
ENDBRANCH  16  18
ENDBRANCH   1  16
BRANCH   1  29
ATOM     29  C   UNL     1       4.627   7.490  17.904  0.00  0.00    +0.000 C 
BRANCH  29  33
ATOM     30  C   UNL     1       6.593   4.754  15.157  0.00  0.00    +0.000 A 
ATOM     31  C   UNL     1       5.583   5.606  14.713  0.00  0.00    +0.000 A 
ATOM     32  C   UNL     1       5.012   6.565  15.561  0.00  0.00    +0.000 A 
ATOM     33  C   UNL     1       5.398   6.629  16.904  0.00  0.00    +0.000 A 
ATOM     34  C   UNL     1       6.476   5.828  17.323  0.00  0.00    +0.000 A 
ATOM     35  C   UNL     1       7.078   4.897  16.454  0.00  0.00    +0.000 A 
BRANCH  30  37
ATOM     36  C   UNL     1       6.163   3.657  13.090  0.00  0.00    +0.000 C 
ATOM     37  O   UNL     1       6.967   3.801  14.250  0.00  0.00    +0.000 OA
ENDBRANCH  30  37
ENDBRANCH  29  33
ENDBRANCH   1  29
TORSDOF 12
ENDMDL
MODEL 3
REMARK VINA RESULT:      -7.2      1.103      1.727
REMARK  Name = 
REMARK  13 active torsions:
REMARK  status: ('A' for Active; 'I' for Inactive)
REMARK    1  A    between atoms: C_1  and  O_2
REMARK    2  A    between atoms: O_2  and  C_3
REMARK    3  A    between atoms: C_6  and  C_7
REMARK    4  A    between atoms: C_7  and  C_8
REMARK    5  A    between atoms: C_8  and  N_9
REMARK    6  A    between atoms: C_8  and  C_21
REMARK    7  A    between atoms: N_9  and  C_10
REMARK    8  A    between atoms: C_10  and  C_11
REMARK    9  A    between atoms: C_10  and  C_17
REMARK   10  A    between atoms: N_23  and  C_24
REMARK   11  A    between atoms: C_24  and  C_25
REMARK   12  A    between atoms: C_24  and  C_27
REMARK   13  A    between atoms: C_27  and  C_28
REMARK                            x       y       z     vdW  Elec       q    Type
REMARK                         _______ _______ _______ _____ _____    ______ ____
ROOT
ATOM      1  C   UNL     1       2.797   6.782  17.847  0.00  0.00    +0.000 C 
ENDROOT
BRANCH   1   2
ATOM      2  C   UNL     1       4.298   6.593  17.427  0.00  0.00    +0.000 C 
ATOM      3  O   UNL     1       5.147   7.478  17.465  0.00  0.00    +0.000 OA
ATOM      4  N   UNL     1       4.622   5.313  16.999  0.00  0.00    +0.000 N 
ATOM      5  H   UNL     1       3.970   4.560  17.175  0.00  0.00    +0.000 HD
BRANCH   4   6
ATOM      6  C   UNL     1       5.968   4.990  16.517  0.00  0.00    +0.000 C 
BRANCH   6   7
ATOM      7  C   UNL     1       6.929   4.772  17.674  0.00  0.00    +0.000 C 
ATOM      8  N   UNL     1       7.727   4.590  18.634  0.00  0.00    +0.000 NA
ENDBRANCH   6   7
BRANCH   6   9
ATOM      9  C   UNL     1       5.974   3.762  15.589  0.00  0.00    +0.000 C 
BRANCH   9  10
ATOM     10  C   UNL     1       6.435   4.057  14.175  0.00  0.00    +0.000 A 
ATOM     11  C   UNL     1       7.404   5.040  13.918  0.00  0.00    +0.000 A 
ATOM     12  C   UNL     1       7.823   5.306  12.614  0.00  0.00    +0.000 A 
ATOM     13  C   UNL     1       7.285   4.579  11.544  0.00  0.00    +0.000 A 
ATOM     14  C   UNL     1       6.342   3.590  11.788  0.00  0.00    +0.000 A 
ATOM     15  C   UNL     1       5.909   3.333  13.093  0.00  0.00    +0.000 A 
ENDBRANCH   9  10
ENDBRANCH   6   9
ENDBRANCH   4   6
ENDBRANCH   1   2
BRANCH   1  16
ATOM     16  N   UNL     1       2.651   6.142  19.185  0.00  0.00    +0.000 NA
ATOM     17  H   UNL     1       3.554   6.023  19.635  0.00  0.00    +0.000 HD
BRANCH  16  18
ATOM     18  C   UNL     1       1.878   4.866  19.316  0.00  0.00    +0.000 C 
BRANCH  18  19
ATOM     19  C   UNL     1       2.697   3.634  18.936  0.00  0.00    +0.000 A 
ATOM     20  C   UNL     1       2.393   2.853  17.808  0.00  0.00    +0.000 A 
ATOM     21  C   UNL     1       3.087   1.666  17.555  0.00  0.00    +0.000 A 
ATOM     22  C   UNL     1       4.094   1.245  18.420  0.00  0.00    +0.000 A 
ATOM     23  C   UNL     1       4.461   2.048  19.496  0.00  0.00    +0.000 A 
ATOM     24  C   UNL     1       3.784   3.244  19.739  0.00  0.00    +0.000 A 
ENDBRANCH  18  19
BRANCH  18  25
ATOM     25  C   UNL     1       1.187   4.696  20.730  0.00  0.00    +0.000 C 
ATOM     26  F   UNL     1       2.054   4.978  21.736  0.00  0.00    +0.000 F 
ATOM     27  F   UNL     1       0.133   5.537  20.862  0.00  0.00    +0.000 F 
ATOM     28  F   UNL     1       0.733   3.444  20.964  0.00  0.00    +0.000 F 
ENDBRANCH  18  25
ENDBRANCH  16  18
ENDBRANCH   1  16
BRANCH   1  29
ATOM     29  C   UNL     1       2.432   8.299  17.789  0.00  0.00    +0.000 C 
BRANCH  29  33
ATOM     30  C   UNL     1       0.655   9.970  21.387  0.00  0.00    +0.000 A 
ATOM     31  C   UNL     1       0.414  10.546  20.141  0.00  0.00    +0.000 A 
ATOM     32  C   UNL     1       0.894   9.959  18.961  0.00  0.00    +0.000 A 
ATOM     33  C   UNL     1       1.698   8.817  19.026  0.00  0.00    +0.000 A 
ATOM     34  C   UNL     1       1.865   8.193  20.276  0.00  0.00    +0.000 A 
ATOM     35  C   UNL     1       1.342   8.762  21.454  0.00  0.00    +0.000 A 
BRANCH  30  37
ATOM     36  C   UNL     1      -0.976  10.307  23.087  0.00  0.00    +0.000 C 
ATOM     37  O   UNL     1       0.222  10.718  22.447  0.00  0.00    +0.000 OA
ENDBRANCH  30  37
ENDBRANCH  29  33
ENDBRANCH   1  29
TORSDOF 12
ENDMDL
MODEL 4
REMARK VINA RESULT:      -7.2      2.449      7.887
REMARK  Name = 
REMARK  13 active torsions:
REMARK  status: ('A' for Active; 'I' for Inactive)
REMARK    1  A    between atoms: C_1  and  O_2
REMARK    2  A    between atoms: O_2  and  C_3
REMARK    3  A    between atoms: C_6  and  C_7
REMARK    4  A    between atoms: C_7  and  C_8
REMARK    5  A    between atoms: C_8  and  N_9
REMARK    6  A    between atoms: C_8  and  C_21
REMARK    7  A    between atoms: N_9  and  C_10
REMARK    8  A    between atoms: C_10  and  C_11
REMARK    9  A    between atoms: C_10  and  C_17
REMARK   10  A    between atoms: N_23  and  C_24
REMARK   11  A    between atoms: C_24  and  C_25
REMARK   12  A    between atoms: C_24  and  C_27
REMARK   13  A    between atoms: C_27  and  C_28
REMARK                            x       y       z     vdW  Elec       q    Type
REMARK                         _______ _______ _______ _____ _____    ______ ____
ROOT
ATOM      1  C   UNL     1       3.668   6.632  18.467  0.00  0.00    +0.000 C 
ENDROOT
BRANCH   1   2
ATOM      2  C   UNL     1       2.434   7.592  18.608  0.00  0.00    +0.000 C 
ATOM      3  O   UNL     1       1.797   8.048  17.665  0.00  0.00    +0.000 OA
ATOM      4  N   UNL     1       2.088   7.899  19.917  0.00  0.00    +0.000 N 
ATOM      5  H   UNL     1       2.486   7.351  20.669  0.00  0.00    +0.000 HD
BRANCH   4   6
ATOM      6  C   UNL     1       0.995   8.829  20.217  0.00  0.00    +0.000 C 
BRANCH   6   7
ATOM      7  C   UNL     1       0.999   9.228  21.684  0.00  0.00    +0.000 C 
ATOM      8  N   UNL     1       1.004   9.559  22.901  0.00  0.00    +0.000 NA
ENDBRANCH   6   7
BRANCH   6   9
ATOM      9  C   UNL     1       1.040  10.085  19.329  0.00  0.00    +0.000 C 
BRANCH   9  10
ATOM     10  C   UNL     1      -0.324  10.599  18.914  0.00  0.00    +0.000 A 
ATOM     11  C   UNL     1      -1.008  10.041  17.821  0.00  0.00    +0.000 A 
ATOM     12  C   UNL     1      -2.263  10.520  17.446  0.00  0.00    +0.000 A 
ATOM     13  C   UNL     1      -2.860  11.560  18.169  0.00  0.00    +0.000 A 
ATOM     14  C   UNL     1      -2.203  12.105  19.263  0.00  0.00    +0.000 A 
ATOM     15  C   UNL     1      -0.938  11.637  19.632  0.00  0.00    +0.000 A 
ENDBRANCH   9  10
ENDBRANCH   6   9
ENDBRANCH   4   6
ENDBRANCH   1   2
BRANCH   1  16
ATOM     16  N   UNL     1       3.165   5.391  17.813  0.00  0.00    +0.000 NA
ATOM     17  H   UNL     1       2.151   5.399  17.745  0.00  0.00    +0.000 HD
BRANCH  16  18
ATOM     18  C   UNL     1       3.600   4.054  18.327  0.00  0.00    +0.000 C 
BRANCH  18  19
ATOM     19  C   UNL     1       2.813   3.604  19.557  0.00  0.00    +0.000 A 
ATOM     20  C   UNL     1       3.432   2.983  20.655  0.00  0.00    +0.000 A 
ATOM     21  C   UNL     1       2.668   2.478  21.712  0.00  0.00    +0.000 A 
ATOM     22  C   UNL     1       1.280   2.588  21.689  0.00  0.00    +0.000 A 
ATOM     23  C   UNL     1       0.659   3.272  20.648  0.00  0.00    +0.000 A 
ATOM     24  C   UNL     1       1.420   3.796  19.602  0.00  0.00    +0.000 A 
ENDBRANCH  18  19
BRANCH  18  25
ATOM     25  C   UNL     1       3.628   2.934  17.209  0.00  0.00    +0.000 C 
ATOM     26  F   UNL     1       3.399   1.706  17.741  0.00  0.00    +0.000 F 
ATOM     27  F   UNL     1       2.671   3.152  16.276  0.00  0.00    +0.000 F 
ATOM     28  F   UNL     1       4.811   2.848  16.558  0.00  0.00    +0.000 F 
ENDBRANCH  18  25
ENDBRANCH  16  18
ENDBRANCH   1  16
BRANCH   1  29
ATOM     29  C   UNL     1       4.812   7.372  17.703  0.00  0.00    +0.000 C 
BRANCH  29  33
ATOM     30  C   UNL     1       6.581   4.673  14.791  0.00  0.00    +0.000 A 
ATOM     31  C   UNL     1       5.474   5.452  14.459  0.00  0.00    +0.000 A 
ATOM     32  C   UNL     1       4.956   6.402  15.351  0.00  0.00    +0.000 A 
ATOM     33  C   UNL     1       5.502   6.527  16.632  0.00  0.00    +0.000 A 
ATOM     34  C   UNL     1       6.670   5.802  16.930  0.00  0.00    +0.000 A 
ATOM     35  C   UNL     1       7.214   4.881  16.013  0.00  0.00    +0.000 A 
BRANCH  30  37
ATOM     36  C   UNL     1       6.916   4.111  12.503  0.00  0.00    +0.000 C 
ATOM     37  O   UNL     1       6.896   3.716  13.866  0.00  0.00    +0.000 OA
ENDBRANCH  30  37
ENDBRANCH  29  33
ENDBRANCH   1  29
TORSDOF 12
ENDMDL
MODEL 5
REMARK VINA RESULT:      -7.1      2.182      2.935
REMARK  Name = 
REMARK  13 active torsions:
REMARK  status: ('A' for Active; 'I' for Inactive)
REMARK    1  A    between atoms: C_1  and  O_2
REMARK    2  A    between atoms: O_2  and  C_3
REMARK    3  A    between atoms: C_6  and  C_7
REMARK    4  A    between atoms: C_7  and  C_8
REMARK    5  A    between atoms: C_8  and  N_9
REMARK    6  A    between atoms: C_8  and  C_21
REMARK    7  A    between atoms: N_9  and  C_10
REMARK    8  A    between atoms: C_10  and  C_11
REMARK    9  A    between atoms: C_10  and  C_17
REMARK   10  A    between atoms: N_23  and  C_24
REMARK   11  A    between atoms: C_24  and  C_25
REMARK   12  A    between atoms: C_24  and  C_27
REMARK   13  A    between atoms: C_27  and  C_28
REMARK                            x       y       z     vdW  Elec       q    Type
REMARK                         _______ _______ _______ _____ _____    ______ ____
ROOT
ATOM      1  C   UNL     1       3.084   6.523  18.049  0.00  0.00    +0.000 C 
ENDROOT
BRANCH   1   2
ATOM      2  C   UNL     1       4.630   6.319  17.868  0.00  0.00    +0.000 C 
ATOM      3  O   UNL     1       5.379   5.875  18.733  0.00  0.00    +0.000 OA
ATOM      4  N   UNL     1       5.118   6.678  16.619  0.00  0.00    +0.000 N 
ATOM      5  H   UNL     1       4.462   6.836  15.865  0.00  0.00    +0.000 HD
BRANCH   4   6
ATOM      6  C   UNL     1       6.550   6.603  16.311  0.00  0.00    +0.000 C 
BRANCH   6   7
ATOM      7  C   UNL     1       7.384   7.229  17.417  0.00  0.00    +0.000 C 
ATOM      8  N   UNL     1       8.074   7.749  18.335  0.00  0.00    +0.000 NA
ENDBRANCH   6   7
BRANCH   6   9
ATOM      9  C   UNL     1       7.014   5.158  16.055  0.00  0.00    +0.000 C 
BRANCH   9  10
ATOM     10  C   UNL     1       6.869   4.707  14.615  0.00  0.00    +0.000 A 
ATOM     11  C   UNL     1       5.853   3.817  14.232  0.00  0.00    +0.000 A 
ATOM     12  C   UNL     1       5.726   3.407  12.905  0.00  0.00    +0.000 A 
ATOM     13  C   UNL     1       6.610   3.895  11.934  0.00  0.00    +0.000 A 
ATOM     14  C   UNL     1       7.604   4.793  12.296  0.00  0.00    +0.000 A 
ATOM     15  C   UNL     1       7.743   5.193  13.630  0.00  0.00    +0.000 A 
ENDBRANCH   9  10
ENDBRANCH   6   9
ENDBRANCH   4   6
ENDBRANCH   1   2
BRANCH   1  16
ATOM     16  N   UNL     1       2.448   5.209  17.749  0.00  0.00    +0.000 NA
ATOM     17  H   UNL     1       1.484   5.187  18.071  0.00  0.00    +0.000 HD
BRANCH  16  18
ATOM     18  C   UNL     1       3.124   3.943  18.175  0.00  0.00    +0.000 C 
BRANCH  18  19
ATOM     19  C   UNL     1       2.551   3.370  19.470  0.00  0.00    +0.000 A 
ATOM     20  C   UNL     1       1.198   3.514  19.818  0.00  0.00    +0.000 A 
ATOM     21  C   UNL     1       0.731   3.082  21.063  0.00  0.00    +0.000 A 
ATOM     22  C   UNL     1       1.608   2.499  21.976  0.00  0.00    +0.000 A 
ATOM     23  C   UNL     1       2.933   2.277  21.615  0.00  0.00    +0.000 A 
ATOM     24  C   UNL     1       3.396   2.688  20.364  0.00  0.00    +0.000 A 
ENDBRANCH  18  19
BRANCH  18  25
ATOM     25  C   UNL     1       3.186   2.852  17.030  0.00  0.00    +0.000 C 
ATOM     26  F   UNL     1       4.444   2.361  16.889  0.00  0.00    +0.000 F 
ATOM     27  F   UNL     1       2.376   1.803  17.311  0.00  0.00    +0.000 F 
ATOM     28  F   UNL     1       2.826   3.321  15.814  0.00  0.00    +0.000 F 
ENDBRANCH  18  25
ENDBRANCH  16  18
ENDBRANCH   1  16
BRANCH   1  29
ATOM     29  C   UNL     1       2.802   7.091  19.476  0.00  0.00    +0.000 C 
BRANCH  29  33
ATOM     30  C   UNL     1      -0.178  10.255  19.448  0.00  0.00    +0.000 A 
ATOM     31  C   UNL     1       0.178   9.623  20.638  0.00  0.00    +0.000 A 
ATOM     32  C   UNL     1       1.210   8.674  20.680  0.00  0.00    +0.000 A 
ATOM     33  C   UNL     1       1.851   8.287  19.500  0.00  0.00    +0.000 A 
ATOM     34  C   UNL     1       1.548   8.989  18.319  0.00  0.00    +0.000 A 
ATOM     35  C   UNL     1       0.542   9.974  18.290  0.00  0.00    +0.000 A 
BRANCH  30  37
ATOM     36  C   UNL     1      -1.438  11.796  20.753  0.00  0.00    +0.000 C 
ATOM     37  O   UNL     1      -1.275  11.067  19.546  0.00  0.00    +0.000 OA
ENDBRANCH  30  37
ENDBRANCH  29  33
ENDBRANCH   1  29
TORSDOF 12
ENDMDL
MODEL 6
REMARK VINA RESULT:      -7.1      2.986      6.377
REMARK  Name = 
REMARK  13 active torsions:
REMARK  status: ('A' for Active; 'I' for Inactive)
REMARK    1  A    between atoms: C_1  and  O_2
REMARK    2  A    between atoms: O_2  and  C_3
REMARK    3  A    between atoms: C_6  and  C_7
REMARK    4  A    between atoms: C_7  and  C_8
REMARK    5  A    between atoms: C_8  and  N_9
REMARK    6  A    between atoms: C_8  and  C_21
REMARK    7  A    between atoms: N_9  and  C_10
REMARK    8  A    between atoms: C_10  and  C_11
REMARK    9  A    between atoms: C_10  and  C_17
REMARK   10  A    between atoms: N_23  and  C_24
REMARK   11  A    between atoms: C_24  and  C_25
REMARK   12  A    between atoms: C_24  and  C_27
REMARK   13  A    between atoms: C_27  and  C_28
REMARK                            x       y       z     vdW  Elec       q    Type
REMARK                         _______ _______ _______ _____ _____    ______ ____
ROOT
ATOM      1  C   UNL     1       2.469   8.226  18.784  0.00  0.00    +0.000 C 
ENDROOT
BRANCH   1   2
ATOM      2  C   UNL     1       3.240   7.380  17.710  0.00  0.00    +0.000 C 
ATOM      3  O   UNL     1       3.489   7.763  16.571  0.00  0.00    +0.000 OA
ATOM      4  N   UNL     1       3.646   6.125  18.144  0.00  0.00    +0.000 N 
ATOM      5  H   UNL     1       3.618   5.919  19.134  0.00  0.00    +0.000 HD
BRANCH   4   6
ATOM      6  C   UNL     1       4.326   5.190  17.242  0.00  0.00    +0.000 C 
BRANCH   6   7
ATOM      7  C   UNL     1       5.830   5.408  17.257  0.00  0.00    +0.000 C 
ATOM      8  N   UNL     1       7.078   5.590  17.268  0.00  0.00    +0.000 NA
ENDBRANCH   6   7
BRANCH   6   9
ATOM      9  C   UNL     1       4.003   3.723  17.574  0.00  0.00    +0.000 C 
BRANCH   9  10
ATOM     10  C   UNL     1       3.020   3.548  18.715  0.00  0.00    +0.000 A 
ATOM     11  C   UNL     1       3.464   3.340  20.030  0.00  0.00    +0.000 A 
ATOM     12  C   UNL     1       2.553   3.181  21.074  0.00  0.00    +0.000 A 
ATOM     13  C   UNL     1       1.178   3.240  20.818  0.00  0.00    +0.000 A 
ATOM     14  C   UNL     1       0.726   3.467  19.525  0.00  0.00    +0.000 A 
ATOM     15  C   UNL     1       1.638   3.612  18.474  0.00  0.00    +0.000 A 
ENDBRANCH   9  10
ENDBRANCH   6   9
ENDBRANCH   4   6
ENDBRANCH   1   2
BRANCH   1  16
ATOM     16  N   UNL     1       1.460   9.032  18.040  0.00  0.00    +0.000 NA
ATOM     17  H   UNL     1       1.874   9.473  17.223  0.00  0.00    +0.000 HD
BRANCH  16  18
ATOM     18  C   UNL     1       0.641  10.051  18.769  0.00  0.00    +0.000 C 
BRANCH  18  19
ATOM     19  C   UNL     1       1.369  11.382  18.949  0.00  0.00    +0.000 A 
ATOM     20  C   UNL     1       2.212  11.913  17.958  0.00  0.00    +0.000 A 
ATOM     21  C   UNL     1       2.956  13.072  18.200  0.00  0.00    +0.000 A 
ATOM     22  C   UNL     1       2.865  13.718  19.431  0.00  0.00    +0.000 A 
ATOM     23  C   UNL     1       1.974  13.251  20.392  0.00  0.00    +0.000 A 
ATOM     24  C   UNL     1       1.215  12.105  20.145  0.00  0.00    +0.000 A 
ENDBRANCH  18  19
BRANCH  18  25
ATOM     25  C   UNL     1      -0.802  10.253  18.151  0.00  0.00    +0.000 C 
ATOM     26  F   UNL     1      -0.944   9.549  16.999  0.00  0.00    +0.000 F 
ATOM     27  F   UNL     1      -1.762   9.823  19.004  0.00  0.00    +0.000 F 
ATOM     28  F   UNL     1      -1.085  11.539  17.844  0.00  0.00    +0.000 F 
ENDBRANCH  18  25
ENDBRANCH  16  18
ENDBRANCH   1  16
BRANCH   1  29
ATOM     29  C   UNL     1       1.887   7.270  19.874  0.00  0.00    +0.000 C 
BRANCH  29  33
ATOM     30  C   UNL     1      -0.152   9.608  22.918  0.00  0.00    +0.000 A 
ATOM     31  C   UNL     1      -0.865   8.748  22.085  0.00  0.00    +0.000 A 
ATOM     32  C   UNL     1      -0.211   7.911  21.169  0.00  0.00    +0.000 A 
ATOM     33  C   UNL     1       1.177   7.986  21.023  0.00  0.00    +0.000 A 
ATOM     34  C   UNL     1       1.897   8.791  21.924  0.00  0.00    +0.000 A 
ATOM     35  C   UNL     1       1.239   9.596  22.874  0.00  0.00    +0.000 A 
BRANCH  30  37
ATOM     36  C   UNL     1      -1.572  11.517  23.002  0.00  0.00    +0.000 C 
ATOM     37  O   UNL     1      -0.934  10.440  23.672  0.00  0.00    +0.000 OA
ENDBRANCH  30  37
ENDBRANCH  29  33
ENDBRANCH   1  29
TORSDOF 12
ENDMDL
MODEL 7
REMARK VINA RESULT:      -7.1      2.773      6.222
REMARK  Name = 
REMARK  13 active torsions:
REMARK  status: ('A' for Active; 'I' for Inactive)
REMARK    1  A    between atoms: C_1  and  O_2
REMARK    2  A    between atoms: O_2  and  C_3
REMARK    3  A    between atoms: C_6  and  C_7
REMARK    4  A    between atoms: C_7  and  C_8
REMARK    5  A    between atoms: C_8  and  N_9
REMARK    6  A    between atoms: C_8  and  C_21
REMARK    7  A    between atoms: N_9  and  C_10
REMARK    8  A    between atoms: C_10  and  C_11
REMARK    9  A    between atoms: C_10  and  C_17
REMARK   10  A    between atoms: N_23  and  C_24
REMARK   11  A    between atoms: C_24  and  C_25
REMARK   12  A    between atoms: C_24  and  C_27
REMARK   13  A    between atoms: C_27  and  C_28
REMARK                            x       y       z     vdW  Elec       q    Type
REMARK                         _______ _______ _______ _____ _____    ______ ____
ROOT
ATOM      1  C   UNL     1       0.667   9.778  19.220  0.00  0.00    +0.000 C 
ENDROOT
BRANCH   1   2
ATOM      2  C   UNL     1       1.676   8.827  18.485  0.00  0.00    +0.000 C 
ATOM      3  O   UNL     1       2.080   8.994  17.339  0.00  0.00    +0.000 OA
ATOM      4  N   UNL     1       2.107   7.745  19.242  0.00  0.00    +0.000 N 
ATOM      5  H   UNL     1       1.930   7.745  20.238  0.00  0.00    +0.000 HD
BRANCH   4   6
ATOM      6  C   UNL     1       3.005   6.732  18.678  0.00  0.00    +0.000 C 
BRANCH   6   7
ATOM      7  C   UNL     1       2.223   5.549  18.130  0.00  0.00    +0.000 C 
ATOM      8  N   UNL     1       1.575   4.568  17.676  0.00  0.00    +0.000 NA
ENDBRANCH   6   7
BRANCH   6   9
ATOM      9  C   UNL     1       3.921   7.311  17.586  0.00  0.00    +0.000 C 
BRANCH   9  10
ATOM     10  C   UNL     1       5.045   6.384  17.166  0.00  0.00    +0.000 A 
ATOM     11  C   UNL     1       5.226   6.026  15.821  0.00  0.00    +0.000 A 
ATOM     12  C   UNL     1       6.263   5.173  15.443  0.00  0.00    +0.000 A 
ATOM     13  C   UNL     1       7.146   4.673  16.409  0.00  0.00    +0.000 A 
ATOM     14  C   UNL     1       6.990   5.038  17.739  0.00  0.00    +0.000 A 
ATOM     15  C   UNL     1       5.941   5.881  18.122  0.00  0.00    +0.000 A 
ENDBRANCH   9  10
ENDBRANCH   6   9
ENDBRANCH   4   6
ENDBRANCH   1   2
BRANCH   1  16
ATOM     16  N   UNL     1       1.433  10.443  20.312  0.00  0.00    +0.000 NA
ATOM     17  H   UNL     1       2.391  10.107  20.344  0.00  0.00    +0.000 HD
BRANCH  16  18
ATOM     18  C   UNL     1       0.883  10.455  21.704  0.00  0.00    +0.000 C 
BRANCH  18  19
ATOM     19  C   UNL     1      -0.142  11.565  21.930  0.00  0.00    +0.000 A 
ATOM     20  C   UNL     1      -1.363  11.334  22.586  0.00  0.00    +0.000 A 
ATOM     21  C   UNL     1      -2.328  12.342  22.672  0.00  0.00    +0.000 A 
ATOM     22  C   UNL     1      -2.087  13.593  22.108  0.00  0.00    +0.000 A 
ATOM     23  C   UNL     1      -0.851  13.861  21.526  0.00  0.00    +0.000 A 
ATOM     24  C   UNL     1       0.122  12.863  21.458  0.00  0.00    +0.000 A 
ENDBRANCH  18  19
BRANCH  18  25
ATOM     25  C   UNL     1       0.331   9.046  22.170  0.00  0.00    +0.000 C 
ATOM     26  F   UNL     1       1.282   8.085  22.052  0.00  0.00    +0.000 F 
ATOM     27  F   UNL     1      -0.050   9.077  23.469  0.00  0.00    +0.000 F 
ATOM     28  F   UNL     1      -0.731   8.616  21.451  0.00  0.00    +0.000 F 
ENDBRANCH  18  25
ENDBRANCH  16  18
ENDBRANCH   1  16
BRANCH   1  29
ATOM     29  C   UNL     1       0.014  10.742  18.179  0.00  0.00    +0.000 C 
BRANCH  29  33
ATOM     30  C   UNL     1      -4.319  11.000  17.949  0.00  0.00    +0.000 A 
ATOM     31  C   UNL     1      -3.628  10.005  17.260  0.00  0.00    +0.000 A 
ATOM     32  C   UNL     1      -2.242   9.845  17.406  0.00  0.00    +0.000 A 
ATOM     33  C   UNL     1      -1.515  10.741  18.194  0.00  0.00    +0.000 A 
ATOM     34  C   UNL     1      -2.227  11.687  18.954  0.00  0.00    +0.000 A 
ATOM     35  C   UNL     1      -3.625  11.815  18.839  0.00  0.00    +0.000 A 
BRANCH  30  37
ATOM     36  C   UNL     1      -6.591  10.675  18.580  0.00  0.00    +0.000 C 
ATOM     37  O   UNL     1      -5.642  11.103  17.615  0.00  0.00    +0.000 OA
ENDBRANCH  30  37
ENDBRANCH  29  33
ENDBRANCH   1  29
TORSDOF 12
ENDMDL
MODEL 8
REMARK VINA RESULT:      -7.1      3.733      7.411
REMARK  Name = 
REMARK  13 active torsions:
REMARK  status: ('A' for Active; 'I' for Inactive)
REMARK    1  A    between atoms: C_1  and  O_2
REMARK    2  A    between atoms: O_2  and  C_3
REMARK    3  A    between atoms: C_6  and  C_7
REMARK    4  A    between atoms: C_7  and  C_8
REMARK    5  A    between atoms: C_8  and  N_9
REMARK    6  A    between atoms: C_8  and  C_21
REMARK    7  A    between atoms: N_9  and  C_10
REMARK    8  A    between atoms: C_10  and  C_11
REMARK    9  A    between atoms: C_10  and  C_17
REMARK   10  A    between atoms: N_23  and  C_24
REMARK   11  A    between atoms: C_24  and  C_25
REMARK   12  A    between atoms: C_24  and  C_27
REMARK   13  A    between atoms: C_27  and  C_28
REMARK                            x       y       z     vdW  Elec       q    Type
REMARK                         _______ _______ _______ _____ _____    ______ ____
ROOT
ATOM      1  C   UNL     1       7.080   6.425  17.750  0.00  0.00    +0.000 C 
ENDROOT
BRANCH   1   2
ATOM      2  C   UNL     1       5.678   6.361  18.453  0.00  0.00    +0.000 C 
ATOM      3  O   UNL     1       5.457   5.784  19.513  0.00  0.00    +0.000 OA
ATOM      4  N   UNL     1       4.663   7.029  17.781  0.00  0.00    +0.000 N 
ATOM      5  H   UNL     1       4.908   7.666  17.034  0.00  0.00    +0.000 HD
BRANCH   4   6
ATOM      6  C   UNL     1       3.283   7.013  18.277  0.00  0.00    +0.000 C 
BRANCH   6   7
ATOM      7  C   UNL     1       2.565   8.311  17.945  0.00  0.00    +0.000 C 
ATOM      8  N   UNL     1       1.968   9.387  17.669  0.00  0.00    +0.000 NA
ENDBRANCH   6   7
BRANCH   6   9
ATOM      9  C   UNL     1       2.484   5.815  17.735  0.00  0.00    +0.000 C 
BRANCH   9  10
ATOM     10  C   UNL     1       2.063   4.820  18.797  0.00  0.00    +0.000 A 
ATOM     11  C   UNL     1       2.244   5.095  20.163  0.00  0.00    +0.000 A 
ATOM     12  C   UNL     1       1.854   4.174  21.134  0.00  0.00    +0.000 A 
ATOM     13  C   UNL     1       1.262   2.963  20.753  0.00  0.00    +0.000 A 
ATOM     14  C   UNL     1       1.058   2.689  19.408  0.00  0.00    +0.000 A 
ATOM     15  C   UNL     1       1.463   3.604  18.431  0.00  0.00    +0.000 A 
ENDBRANCH   9  10
ENDBRANCH   6   9
ENDBRANCH   4   6
ENDBRANCH   1   2
BRANCH   1  16
ATOM     16  N   UNL     1       7.188   5.197  16.913  0.00  0.00    +0.000 NA
ATOM     17  H   UNL     1       8.070   5.173  16.410  0.00  0.00    +0.000 HD
BRANCH  16  18
ATOM     18  C   UNL     1       6.085   4.848  15.962  0.00  0.00    +0.000 C 
BRANCH  18  19
ATOM     19  C   UNL     1       6.574   4.663  14.526  0.00  0.00    +0.000 A 
ATOM     20  C   UNL     1       7.647   5.402  14.001  0.00  0.00    +0.000 A 
ATOM     21  C   UNL     1       7.993   5.294  12.650  0.00  0.00    +0.000 A 
ATOM     22  C   UNL     1       7.277   4.446  11.809  0.00  0.00    +0.000 A 
ATOM     23  C   UNL     1       6.264   3.648  12.333  0.00  0.00    +0.000 A 
ATOM     24  C   UNL     1       5.930   3.738  13.685  0.00  0.00    +0.000 A 
ENDBRANCH  18  19
BRANCH  18  25
ATOM     25  C   UNL     1       5.208   3.622  16.444  0.00  0.00    +0.000 C 
ATOM     26  F   UNL     1       3.919   3.752  16.037  0.00  0.00    +0.000 F 
ATOM     27  F   UNL     1       5.674   2.458  15.932  0.00  0.00    +0.000 F 
ATOM     28  F   UNL     1       5.166   3.481  17.788  0.00  0.00    +0.000 F 
ENDBRANCH  18  25
ENDBRANCH  16  18
ENDBRANCH   1  16
BRANCH   1  29
ATOM     29  C   UNL     1       7.208   7.775  16.976  0.00  0.00    +0.000 C 
BRANCH  29  33
ATOM     30  C   UNL     1       9.482  10.864  19.019  0.00  0.00    +0.000 A 
ATOM     31  C   UNL     1       8.677  11.179  17.926  0.00  0.00    +0.000 A 
ATOM     32  C   UNL     1       7.859  10.214  17.321  0.00  0.00    +0.000 A 
ATOM     33  C   UNL     1       7.898   8.888  17.764  0.00  0.00    +0.000 A 
ATOM     34  C   UNL     1       8.644   8.596  18.919  0.00  0.00    +0.000 A 
ATOM     35  C   UNL     1       9.430   9.580  19.552  0.00  0.00    +0.000 A 
BRANCH  30  37
ATOM     36  C   UNL     1      11.556  12.003  18.765  0.00  0.00    +0.000 C 
ATOM     37  O   UNL     1      10.306  11.879  19.424  0.00  0.00    +0.000 OA
ENDBRANCH  30  37
ENDBRANCH  29  33
ENDBRANCH   1  29
TORSDOF 12
ENDMDL
MODEL 9
REMARK VINA RESULT:      -7.1      2.438      7.846
REMARK  Name = 
REMARK  13 active torsions:
REMARK  status: ('A' for Active; 'I' for Inactive)
REMARK    1  A    between atoms: C_1  and  O_2
REMARK    2  A    between atoms: O_2  and  C_3
REMARK    3  A    between atoms: C_6  and  C_7
REMARK    4  A    between atoms: C_7  and  C_8
REMARK    5  A    between atoms: C_8  and  N_9
REMARK    6  A    between atoms: C_8  and  C_21
REMARK    7  A    between atoms: N_9  and  C_10
REMARK    8  A    between atoms: C_10  and  C_11
REMARK    9  A    between atoms: C_10  and  C_17
REMARK   10  A    between atoms: N_23  and  C_24
REMARK   11  A    between atoms: C_24  and  C_25
REMARK   12  A    between atoms: C_24  and  C_27
REMARK   13  A    between atoms: C_27  and  C_28
REMARK                            x       y       z     vdW  Elec       q    Type
REMARK                         _______ _______ _______ _____ _____    ______ ____
ROOT
ATOM      1  C   UNL     1       3.670   6.601  18.467  0.00  0.00    +0.000 C 
ENDROOT
BRANCH   1   2
ATOM      2  C   UNL     1       2.458   7.584  18.635  0.00  0.00    +0.000 C 
ATOM      3  O   UNL     1       1.839   8.090  17.705  0.00  0.00    +0.000 OA
ATOM      4  N   UNL     1       2.110   7.852  19.952  0.00  0.00    +0.000 N 
ATOM      5  H   UNL     1       2.489   7.268  20.686  0.00  0.00    +0.000 HD
BRANCH   4   6
ATOM      6  C   UNL     1       1.037   8.797  20.278  0.00  0.00    +0.000 C 
BRANCH   6   7
ATOM      7  C   UNL     1       1.080   9.192  21.745  0.00  0.00    +0.000 C 
ATOM      8  N   UNL     1       1.114   9.521  22.962  0.00  0.00    +0.000 NA
ENDBRANCH   6   7
BRANCH   6   9
ATOM      9  C   UNL     1       1.081  10.054  19.392  0.00  0.00    +0.000 C 
BRANCH   9  10
ATOM     10  C   UNL     1      -0.284  10.574  18.987  0.00  0.00    +0.000 A 
ATOM     11  C   UNL     1      -0.922  11.588  19.719  0.00  0.00    +0.000 A 
ATOM     12  C   UNL     1      -2.178  12.060  19.340  0.00  0.00    +0.000 A 
ATOM     13  C   UNL     1      -2.812  11.532  18.209  0.00  0.00    +0.000 A 
ATOM     14  C   UNL     1      -2.182  10.544  17.464  0.00  0.00    +0.000 A 
ATOM     15  C   UNL     1      -0.929  10.058  17.852  0.00  0.00    +0.000 A 
ENDBRANCH   9  10
ENDBRANCH   6   9
ENDBRANCH   4   6
ENDBRANCH   1   2
BRANCH   1  16
ATOM     16  N   UNL     1       3.131   5.374  17.814  0.00  0.00    +0.000 NA
ATOM     17  H   UNL     1       2.116   5.399  17.771  0.00  0.00    +0.000 HD
BRANCH  16  18
ATOM     18  C   UNL     1       3.556   4.025  18.304  0.00  0.00    +0.000 C 
BRANCH  18  19
ATOM     19  C   UNL     1       2.823   3.595  19.573  0.00  0.00    +0.000 A 
ATOM     20  C   UNL     1       3.436   2.803  20.559  0.00  0.00    +0.000 A 
ATOM     21  C   UNL     1       2.703   2.328  21.651  0.00  0.00    +0.000 A 
ATOM     22  C   UNL     1       1.350   2.639  21.774  0.00  0.00    +0.000 A 
ATOM     23  C   UNL     1       0.750   3.488  20.849  0.00  0.00    +0.000 A 
ATOM     24  C   UNL     1       1.485   3.980  19.770  0.00  0.00    +0.000 A 
ENDBRANCH  18  19
BRANCH  18  25
ATOM     25  C   UNL     1       3.496   2.906  17.186  0.00  0.00    +0.000 C 
ATOM     26  F   UNL     1       3.713   3.434  15.954  0.00  0.00    +0.000 F 
ATOM     27  F   UNL     1       4.444   1.961  17.390  0.00  0.00    +0.000 F 
ATOM     28  F   UNL     1       2.304   2.270  17.119  0.00  0.00    +0.000 F 
ENDBRANCH  18  25
ENDBRANCH  16  18
ENDBRANCH   1  16
BRANCH   1  29
ATOM     29  C   UNL     1       4.816   7.322  17.690  0.00  0.00    +0.000 C 
BRANCH  29  33
ATOM     30  C   UNL     1       6.509   4.591  14.763  0.00  0.00    +0.000 A 
ATOM     31  C   UNL     1       5.526   5.508  14.395  0.00  0.00    +0.000 A 
ATOM     32  C   UNL     1       5.045   6.464  15.302  0.00  0.00    +0.000 A 
ATOM     33  C   UNL     1       5.494   6.459  16.626  0.00  0.00    +0.000 A 
ATOM     34  C   UNL     1       6.546   5.590  16.966  0.00  0.00    +0.000 A 
ATOM     35  C   UNL     1       7.059   4.661  16.039  0.00  0.00    +0.000 A 
BRANCH  30  37
ATOM     36  C   UNL     1       6.897   4.102  12.466  0.00  0.00    +0.000 C 
ATOM     37  O   UNL     1       6.790   3.652  13.808  0.00  0.00    +0.000 OA
ENDBRANCH  30  37
ENDBRANCH  29  33
ENDBRANCH   1  29
TORSDOF 12
ENDMDL
