MODEL 1
REMARK VINA RESULT:      -7.3      0.000      0.000
REMARK  Name = 
REMARK  3 active torsions:
REMARK  status: ('A' for Active; 'I' for Inactive)
REMARK    1  A    between atoms: O_1  and  C_2
REMARK    2  A    between atoms: C_2  and  C_3
REMARK    3  A    between atoms: C_8  and  C_9
REMARK                            x       y       z     vdW  Elec       q    Type
REMARK                         _______ _______ _______ _____ _____    ______ ____
ROOT
ATOM      1  C   UNL     1       5.234   4.872  18.739  0.00  0.00    +0.000 A 
ATOM      2  C   UNL     1       6.291   5.373  19.516  0.00  0.00    +0.000 A 
ATOM      3  C   UNL     1       7.545   5.578  18.961  0.00  0.00    +0.000 A 
ATOM      4  N   UNL     1       7.827   5.376  17.667  0.00  0.00    +0.000 NA
ATOM      5  C   UNL     1       6.812   4.964  16.869  0.00  0.00    +0.000 A 
ATOM      6  C   UNL     1       5.511   4.687  17.352  0.00  0.00    +0.000 A 
ATOM      7  C   UNL     1       4.450   4.293  16.339  0.00  0.00    +0.000 C 
ATOM      8  C   UNL     1       4.967   3.793  14.995  0.00  0.00    +0.000 C 
ATOM      9  C   UNL     1       6.027   4.743  14.461  0.00  0.00    +0.000 C 
ATOM     10  C   UNL     1       7.203   4.774  15.423  0.00  0.00    +0.000 C 
ENDROOT
BRANCH   1  16
ATOM     11  C   UNL     1       3.402   3.232  19.600  0.00  0.00    +0.000 A 
ATOM     12  C   UNL     1       2.111   3.057  20.163  0.00  0.00    +0.000 A 
ATOM     13  C   UNL     1       1.295   4.133  20.493  0.00  0.00    +0.000 A 
ATOM     14  C   UNL     1       1.785   5.415  20.331  0.00  0.00    +0.000 A 
ATOM     15  C   UNL     1       3.078   5.608  19.837  0.00  0.00    +0.000 A 
ATOM     16  C   UNL     1       3.907   4.554  19.396  0.00  0.00    +0.000 A 
BRANCH  11  17
ATOM     17  C   UNL     1       4.197   1.969  19.324  0.00  0.00    +0.000 C 
BRANCH  17  18
ATOM     18  O   UNL     1       5.222   1.758  20.294  0.00  0.00    +0.000 OA
ATOM     19  H   UNL     1       5.043   0.902  20.715  0.00  0.00    +0.000 HD
ENDBRANCH  17  18
ENDBRANCH  11  17
ENDBRANCH   1  16
TORSDOF 3
ENDMDL
MODEL 2
REMARK VINA RESULT:      -7.2      2.049      5.409
REMARK  Name = 
REMARK  3 active torsions:
REMARK  status: ('A' for Active; 'I' for Inactive)
REMARK    1  A    between atoms: O_1  and  C_2
REMARK    2  A    between atoms: C_2  and  C_3
REMARK    3  A    between atoms: C_8  and  C_9
REMARK                            x       y       z     vdW  Elec       q    Type
REMARK                         _______ _______ _______ _____ _____    ______ ____
ROOT
ATOM      1  C   UNL     1       4.022   5.657  18.086  0.00  0.00    +0.000 A 
ATOM      2  C   UNL     1       3.577   6.987  18.016  0.00  0.00    +0.000 A 
ATOM      3  C   UNL     1       2.516   7.423  18.794  0.00  0.00    +0.000 A 
ATOM      4  N   UNL     1       1.886   6.651  19.690  0.00  0.00    +0.000 NA
ATOM      5  C   UNL     1       2.336   5.383  19.840  0.00  0.00    +0.000 A 
ATOM      6  C   UNL     1       3.382   4.835  19.061  0.00  0.00    +0.000 A 
ATOM      7  C   UNL     1       3.831   3.418  19.375  0.00  0.00    +0.000 C 
ATOM      8  C   UNL     1       2.841   2.567  20.163  0.00  0.00    +0.000 C 
ATOM      9  C   UNL     1       2.327   3.346  21.361  0.00  0.00    +0.000 C 
ATOM     10  C   UNL     1       1.586   4.581  20.878  0.00  0.00    +0.000 C 
ENDROOT
BRANCH   1  16
ATOM     11  C   UNL     1       6.508   5.391  17.352  0.00  0.00    +0.000 A 
ATOM     12  C   UNL     1       7.432   4.961  16.365  0.00  0.00    +0.000 A 
ATOM     13  C   UNL     1       7.023   4.368  15.176  0.00  0.00    +0.000 A 
ATOM     14  C   UNL     1       5.676   4.128  14.979  0.00  0.00    +0.000 A 
ATOM     15  C   UNL     1       4.755   4.488  15.967  0.00  0.00    +0.000 A 
ATOM     16  C   UNL     1       5.108   5.180  17.145  0.00  0.00    +0.000 A 
BRANCH  11  17
ATOM     17  C   UNL     1       7.097   5.988  18.616  0.00  0.00    +0.000 C 
BRANCH  17  18
ATOM     18  O   UNL     1       6.930   5.128  19.743  0.00  0.00    +0.000 OA
ATOM     19  H   UNL     1       6.982   4.216  19.415  0.00  0.00    +0.000 HD
ENDBRANCH  17  18
ENDBRANCH  11  17
ENDBRANCH   1  16
TORSDOF 3
ENDMDL
MODEL 3
REMARK VINA RESULT:      -7.1      1.260      1.298
REMARK  Name = 
REMARK  3 active torsions:
REMARK  status: ('A' for Active; 'I' for Inactive)
REMARK    1  A    between atoms: O_1  and  C_2
REMARK    2  A    between atoms: C_2  and  C_3
REMARK    3  A    between atoms: C_8  and  C_9
REMARK                            x       y       z     vdW  Elec       q    Type
REMARK                         _______ _______ _______ _____ _____    ______ ____
ROOT
ATOM      1  C   UNL     1       4.918   4.496  18.181  0.00  0.00    +0.000 A 
ATOM      2  C   UNL     1       5.611   5.100  19.243  0.00  0.00    +0.000 A 
ATOM      3  C   UNL     1       6.900   5.579  19.068  0.00  0.00    +0.000 A 
ATOM      4  N   UNL     1       7.547   5.558  17.895  0.00  0.00    +0.000 NA
ATOM      5  C   UNL     1       6.882   5.052  16.829  0.00  0.00    +0.000 A 
ATOM      6  C   UNL     1       5.582   4.500  16.918  0.00  0.00    +0.000 A 
ATOM      7  C   UNL     1       4.926   4.024  15.634  0.00  0.00    +0.000 C 
ATOM      8  C   UNL     1       5.869   3.759  14.465  0.00  0.00    +0.000 C 
ATOM      9  C   UNL     1       6.821   4.931  14.290  0.00  0.00    +0.000 C 
ATOM     10  C   UNL     1       7.671   5.078  15.541  0.00  0.00    +0.000 C 
ENDROOT
BRANCH   1  16
ATOM     11  C   UNL     1       3.341   2.615  19.056  0.00  0.00    +0.000 A 
ATOM     12  C   UNL     1       2.021   2.108  19.170  0.00  0.00    +0.000 A 
ATOM     13  C   UNL     1       0.920   2.785  18.657  0.00  0.00    +0.000 A 
ATOM     14  C   UNL     1       1.111   4.025  18.077  0.00  0.00    +0.000 A 
ATOM     15  C   UNL     1       2.396   4.571  18.011  0.00  0.00    +0.000 A 
ATOM     16  C   UNL     1       3.556   3.883  18.428  0.00  0.00    +0.000 A 
BRANCH  11  17
ATOM     17  C   UNL     1       4.441   1.789  19.695  0.00  0.00    +0.000 C 
BRANCH  17  18
ATOM     18  O   UNL     1       4.628   0.540  19.032  0.00  0.00    +0.000 OA
ATOM     19  H   UNL     1       4.084   0.560  18.229  0.00  0.00    +0.000 HD
ENDBRANCH  17  18
ENDBRANCH  11  17
ENDBRANCH   1  16
TORSDOF 3
ENDMDL
MODEL 4
REMARK VINA RESULT:      -7.0      2.707      5.615
REMARK  Name = 
REMARK  3 active torsions:
REMARK  status: ('A' for Active; 'I' for Inactive)
REMARK    1  A    between atoms: O_1  and  C_2
REMARK    2  A    between atoms: C_2  and  C_3
REMARK    3  A    between atoms: C_8  and  C_9
REMARK                            x       y       z     vdW  Elec       q    Type
REMARK                         _______ _______ _______ _____ _____    ______ ____
ROOT
ATOM      1  C   UNL     1       4.521   4.201  18.227  0.00  0.00    +0.000 A 
ATOM      2  C   UNL     1       4.595   3.107  17.350  0.00  0.00    +0.000 A 
ATOM      3  C   UNL     1       3.632   2.109  17.376  0.00  0.00    +0.000 A 
ATOM      4  N   UNL     1       2.557   2.136  18.174  0.00  0.00    +0.000 NA
ATOM      5  C   UNL     1       2.410   3.213  18.982  0.00  0.00    +0.000 A 
ATOM      6  C   UNL     1       3.361   4.259  19.057  0.00  0.00    +0.000 A 
ATOM      7  C   UNL     1       3.044   5.440  19.958  0.00  0.00    +0.000 C 
ATOM      8  C   UNL     1       1.985   5.194  21.027  0.00  0.00    +0.000 C 
ATOM      9  C   UNL     1       0.767   4.530  20.406  0.00  0.00    +0.000 C 
ATOM     10  C   UNL     1       1.167   3.178  19.838  0.00  0.00    +0.000 C 
ENDROOT
BRANCH   1  16
ATOM     11  C   UNL     1       5.749   6.329  17.361  0.00  0.00    +0.000 A 
ATOM     12  C   UNL     1       6.884   7.177  17.433  0.00  0.00    +0.000 A 
ATOM     13  C   UNL     1       7.926   6.944  18.324  0.00  0.00    +0.000 A 
ATOM     14  C   UNL     1       7.820   5.893  19.214  0.00  0.00    +0.000 A 
ATOM     15  C   UNL     1       6.681   5.083  19.201  0.00  0.00    +0.000 A 
ATOM     16  C   UNL     1       5.643   5.217  18.254  0.00  0.00    +0.000 A 
BRANCH  11  17
ATOM     17  C   UNL     1       4.672   6.725  16.368  0.00  0.00    +0.000 C 
BRANCH  17  18
ATOM     18  O   UNL     1       5.186   6.863  15.045  0.00  0.00    +0.000 OA
ATOM     19  H   UNL     1       5.692   7.691  15.022  0.00  0.00    +0.000 HD
ENDBRANCH  17  18
ENDBRANCH  11  17
ENDBRANCH   1  16
TORSDOF 3
ENDMDL
MODEL 5
REMARK VINA RESULT:      -7.0      1.585      2.247
REMARK  Name = 
REMARK  3 active torsions:
REMARK  status: ('A' for Active; 'I' for Inactive)
REMARK    1  A    between atoms: O_1  and  C_2
REMARK    2  A    between atoms: C_2  and  C_3
REMARK    3  A    between atoms: C_8  and  C_9
REMARK                            x       y       z     vdW  Elec       q    Type
REMARK                         _______ _______ _______ _____ _____    ______ ____
ROOT
ATOM      1  C   UNL     1       5.070   4.708  18.513  0.00  0.00    +0.000 A 
ATOM      2  C   UNL     1       5.975   5.268  19.429  0.00  0.00    +0.000 A 
ATOM      3  C   UNL     1       7.256   5.623  19.035  0.00  0.00    +0.000 A 
ATOM      4  N   UNL     1       7.701   5.519  17.776  0.00  0.00    +0.000 NA
ATOM      5  C   UNL     1       6.832   5.054  16.847  0.00  0.00    +0.000 A 
ATOM      6  C   UNL     1       5.520   4.625  17.162  0.00  0.00    +0.000 A 
ATOM      7  C   UNL     1       4.627   4.183  16.015  0.00  0.00    +0.000 C 
ATOM      8  C   UNL     1       5.343   3.809  14.722  0.00  0.00    +0.000 C 
ATOM      9  C   UNL     1       6.351   4.885  14.357  0.00  0.00    +0.000 C 
ATOM     10  C   UNL     1       7.402   4.980  15.451  0.00  0.00    +0.000 C 
ENDROOT
BRANCH   1  16
ATOM     11  C   UNL     1       2.648   5.087  19.397  0.00  0.00    +0.000 A 
ATOM     12  C   UNL     1       1.448   4.521  19.899  0.00  0.00    +0.000 A 
ATOM     13  C   UNL     1       1.283   3.149  20.051  0.00  0.00    +0.000 A 
ATOM     14  C   UNL     1       2.296   2.306  19.636  0.00  0.00    +0.000 A 
ATOM     15  C   UNL     1       3.462   2.841  19.080  0.00  0.00    +0.000 A 
ATOM     16  C   UNL     1       3.718   4.227  18.994  0.00  0.00    +0.000 A 
BRANCH  11  17
ATOM     17  C   UNL     1       2.675   6.597  19.249  0.00  0.00    +0.000 C 
BRANCH  17  18
ATOM     18  O   UNL     1       2.242   7.260  20.436  0.00  0.00    +0.000 OA
ATOM     19  H   UNL     1       2.169   6.584  21.128  0.00  0.00    +0.000 HD
ENDBRANCH  17  18
ENDBRANCH  11  17
ENDBRANCH   1  16
TORSDOF 3
ENDMDL
MODEL 6
REMARK VINA RESULT:      -6.9      2.520      5.607
REMARK  Name = 
REMARK  3 active torsions:
REMARK  status: ('A' for Active; 'I' for Inactive)
REMARK    1  A    between atoms: O_1  and  C_2
REMARK    2  A    between atoms: C_2  and  C_3
REMARK    3  A    between atoms: C_8  and  C_9
REMARK                            x       y       z     vdW  Elec       q    Type
REMARK                         _______ _______ _______ _____ _____    ______ ____
ROOT
ATOM      1  C   UNL     1       4.166   5.715  17.633  0.00  0.00    +0.000 A 
ATOM      2  C   UNL     1       3.723   7.047  17.640  0.00  0.00    +0.000 A 
ATOM      3  C   UNL     1       2.740   7.464  18.525  0.00  0.00    +0.000 A 
ATOM      4  N   UNL     1       2.193   6.670  19.455  0.00  0.00    +0.000 NA
ATOM      5  C   UNL     1       2.649   5.396  19.529  0.00  0.00    +0.000 A 
ATOM      6  C   UNL     1       3.617   4.868  18.641  0.00  0.00    +0.000 A 
ATOM      7  C   UNL     1       4.087   3.443  18.874  0.00  0.00    +0.000 C 
ATOM      8  C   UNL     1       3.171   2.572  19.728  0.00  0.00    +0.000 C 
ATOM      9  C   UNL     1       2.774   3.320  20.990  0.00  0.00    +0.000 C 
ATOM     10  C   UNL     1       1.997   4.569  20.610  0.00  0.00    +0.000 C 
ENDROOT
BRANCH   1  16
ATOM     11  C   UNL     1       6.535   5.649  16.548  0.00  0.00    +0.000 A 
ATOM     12  C   UNL     1       7.355   5.218  15.474  0.00  0.00    +0.000 A 
ATOM     13  C   UNL     1       6.858   4.456  14.423  0.00  0.00    +0.000 A 
ATOM     14  C   UNL     1       5.538   4.048  14.461  0.00  0.00    +0.000 A 
ATOM     15  C   UNL     1       4.730   4.409  15.542  0.00  0.00    +0.000 A 
ATOM     16  C   UNL     1       5.158   5.261  16.583  0.00  0.00    +0.000 A 
BRANCH  11  17
ATOM     17  C   UNL     1       7.219   6.443  17.646  0.00  0.00    +0.000 C 
BRANCH  17  18
ATOM     18  O   UNL     1       7.557   7.763  17.222  0.00  0.00    +0.000 OA
ATOM     19  H   UNL     1       7.868   7.696  16.305  0.00  0.00    +0.000 HD
ENDBRANCH  17  18
ENDBRANCH  11  17
ENDBRANCH   1  16
TORSDOF 3
ENDMDL
MODEL 7
REMARK VINA RESULT:      -6.7      2.263      5.333
REMARK  Name = 
REMARK  3 active torsions:
REMARK  status: ('A' for Active; 'I' for Inactive)
REMARK    1  A    between atoms: O_1  and  C_2
REMARK    2  A    between atoms: C_2  and  C_3
REMARK    3  A    between atoms: C_8  and  C_9
REMARK                            x       y       z     vdW  Elec       q    Type
REMARK                         _______ _______ _______ _____ _____    ______ ____
ROOT
ATOM      1  C   UNL     1       4.472   4.754  17.808  0.00  0.00    +0.000 A 
ATOM      2  C   UNL     1       4.369   3.654  18.675  0.00  0.00    +0.000 A 
ATOM      3  C   UNL     1       3.637   3.742  19.849  0.00  0.00    +0.000 A 
ATOM      4  N   UNL     1       2.944   4.829  20.213  0.00  0.00    +0.000 NA
ATOM      5  C   UNL     1       2.957   5.885  19.365  0.00  0.00    +0.000 A 
ATOM      6  C   UNL     1       3.709   5.906  18.166  0.00  0.00    +0.000 A 
ATOM      7  C   UNL     1       3.586   7.130  17.274  0.00  0.00    +0.000 C 
ATOM      8  C   UNL     1       3.047   8.388  17.945  0.00  0.00    +0.000 C 
ATOM      9  C   UNL     1       1.793   8.057  18.737  0.00  0.00    +0.000 C 
ATOM     10  C   UNL     1       2.141   7.065  19.835  0.00  0.00    +0.000 C 
ENDROOT
BRANCH   1  16
ATOM     11  C   UNL     1       6.722   5.124  16.546  0.00  0.00    +0.000 A 
ATOM     12  C   UNL     1       7.443   5.055  15.326  0.00  0.00    +0.000 A 
ATOM     13  C   UNL     1       6.866   4.590  14.150  0.00  0.00    +0.000 A 
ATOM     14  C   UNL     1       5.568   4.115  14.187  0.00  0.00    +0.000 A 
ATOM     15  C   UNL     1       4.862   4.115  15.393  0.00  0.00    +0.000 A 
ATOM     16  C   UNL     1       5.367   4.666  16.590  0.00  0.00    +0.000 A 
BRANCH  11  17
ATOM     17  C   UNL     1       7.489   5.617  17.759  0.00  0.00    +0.000 C 
BRANCH  17  18
ATOM     18  O   UNL     1       7.977   4.541  18.559  0.00  0.00    +0.000 OA
ATOM     19  H   UNL     1       8.680   4.106  18.052  0.00  0.00    +0.000 HD
ENDBRANCH  17  18
ENDBRANCH  11  17
ENDBRANCH   1  16
TORSDOF 3
ENDMDL
MODEL 8
REMARK VINA RESULT:      -6.6      2.710      5.339
REMARK  Name = 
REMARK  3 active torsions:
REMARK  status: ('A' for Active; 'I' for Inactive)
REMARK    1  A    between atoms: O_1  and  C_2
REMARK    2  A    between atoms: C_2  and  C_3
REMARK    3  A    between atoms: C_8  and  C_9
REMARK                            x       y       z     vdW  Elec       q    Type
REMARK                         _______ _______ _______ _____ _____    ______ ____
ROOT
ATOM      1  C   UNL     1       3.861   5.262  18.724  0.00  0.00    +0.000 A 
ATOM      2  C   UNL     1       3.451   4.371  19.729  0.00  0.00    +0.000 A 
ATOM      3  C   UNL     1       2.510   4.750  20.673  0.00  0.00    +0.000 A 
ATOM      4  N   UNL     1       1.892   5.938  20.671  0.00  0.00    +0.000 NA
ATOM      5  C   UNL     1       2.205   6.798  19.673  0.00  0.00    +0.000 A 
ATOM      6  C   UNL     1       3.184   6.518  18.690  0.00  0.00    +0.000 A 
ATOM      7  C   UNL     1       3.394   7.544  17.589  0.00  0.00    +0.000 C 
ATOM      8  C   UNL     1       2.883   8.949  17.884  0.00  0.00    +0.000 C 
ATOM      9  C   UNL     1       1.464   8.882  18.421  0.00  0.00    +0.000 C 
ATOM     10  C   UNL     1       1.457   8.108  19.729  0.00  0.00    +0.000 C 
ENDROOT
BRANCH   1  16
ATOM     11  C   UNL     1       6.364   5.051  18.032  0.00  0.00    +0.000 A 
ATOM     12  C   UNL     1       7.312   4.702  17.035  0.00  0.00    +0.000 A 
ATOM     13  C   UNL     1       6.931   4.212  15.791  0.00  0.00    +0.000 A 
ATOM     14  C   UNL     1       5.590   3.994  15.542  0.00  0.00    +0.000 A 
ATOM     15  C   UNL     1       4.645   4.272  16.534  0.00  0.00    +0.000 A 
ATOM     16  C   UNL     1       4.970   4.862  17.774  0.00  0.00    +0.000 A 
BRANCH  11  17
ATOM     17  C   UNL     1       6.922   5.538  19.356  0.00  0.00    +0.000 C 
BRANCH  17  18
ATOM     18  O   UNL     1       8.143   6.258  19.192  0.00  0.00    +0.000 OA
ATOM     19  H   UNL     1       8.354   6.661  20.049  0.00  0.00    +0.000 HD
ENDBRANCH  17  18
ENDBRANCH  11  17
ENDBRANCH   1  16
TORSDOF 3
ENDMDL
MODEL 9
REMARK VINA RESULT:      -6.6      2.121      2.936
REMARK  Name = 
REMARK  3 active torsions:
REMARK  status: ('A' for Active; 'I' for Inactive)
REMARK    1  A    between atoms: O_1  and  C_2
REMARK    2  A    between atoms: C_2  and  C_3
REMARK    3  A    between atoms: C_8  and  C_9
REMARK                            x       y       z     vdW  Elec       q    Type
REMARK                         _______ _______ _______ _____ _____    ______ ____
ROOT
ATOM      1  C   UNL     1       3.255   5.524  18.692  0.00  0.00    +0.000 A 
ATOM      2  C   UNL     1       2.370   6.507  18.223  0.00  0.00    +0.000 A 
ATOM      3  C   UNL     1       2.839   7.610  17.527  0.00  0.00    +0.000 A 
ATOM      4  N   UNL     1       4.126   7.793  17.204  0.00  0.00    +0.000 NA
ATOM      5  C   UNL     1       5.001   6.827  17.574  0.00  0.00    +0.000 A 
ATOM      6  C   UNL     1       4.624   5.688  18.325  0.00  0.00    +0.000 A 
ATOM      7  C   UNL     1       5.693   4.649  18.620  0.00  0.00    +0.000 C 
ATOM      8  C   UNL     1       7.135   5.126  18.489  0.00  0.00    +0.000 C 
ATOM      9  C   UNL     1       7.320   5.866  17.175  0.00  0.00    +0.000 C 
ATOM     10  C   UNL     1       6.428   7.096  17.162  0.00  0.00    +0.000 C 
ENDROOT
BRANCH   1  16
ATOM     11  C   UNL     1       2.422   3.081  19.053  0.00  0.00    +0.000 A 
ATOM     12  C   UNL     1       1.867   2.116  19.932  0.00  0.00    +0.000 A 
ATOM     13  C   UNL     1       1.573   2.406  21.259  0.00  0.00    +0.000 A 
ATOM     14  C   UNL     1       1.894   3.655  21.756  0.00  0.00    +0.000 A 
ATOM     15  C   UNL     1       2.500   4.600  20.922  0.00  0.00    +0.000 A 
ATOM     16  C   UNL     1       2.729   4.388  19.545  0.00  0.00    +0.000 A 
BRANCH  11  17
ATOM     17  C   UNL     1       2.728   2.614  17.642  0.00  0.00    +0.000 C 
BRANCH  17  18
ATOM     18  O   UNL     1       3.898   1.799  17.587  0.00  0.00    +0.000 OA
ATOM     19  H   UNL     1       4.598   2.275  18.063  0.00  0.00    +0.000 HD
ENDBRANCH  17  18
ENDBRANCH  11  17
ENDBRANCH   1  16
TORSDOF 3
ENDMDL
