MODEL 1
REMARK VINA RESULT:      -8.6      0.000      0.000
REMARK  Name = 
REMARK  4 active torsions:
REMARK  status: ('A' for Active; 'I' for Inactive)
REMARK    1  A    between atoms: C_5  and  C_6
REMARK    2  A    between atoms: C_6  and  O_7
REMARK    3  A    between atoms: C_6  and  C_17
REMARK    4  A    between atoms: O_7  and  C_8
REMARK                            x       y       z     vdW  Elec       q    Type
REMARK                         _______ _______ _______ _____ _____    ______ ____
ROOT
ATOM      1  C   UNL     1       2.813   6.011  18.620  0.00  0.00    +0.000 C 
ENDROOT
BRANCH   1   6
ATOM      2  F   UNL     1       0.473  11.094  19.597  0.00  0.00    +0.000 F 
ATOM      3  C   UNL     1       1.040   9.903  19.370  0.00  0.00    +0.000 A 
ATOM      4  C   UNL     1       1.136   8.980  20.404  0.00  0.00    +0.000 A 
ATOM      5  C   UNL     1       1.732   7.739  20.171  0.00  0.00    +0.000 A 
ATOM      6  C   UNL     1       2.182   7.389  18.885  0.00  0.00    +0.000 A 
ATOM      7  C   UNL     1       2.070   8.346  17.857  0.00  0.00    +0.000 A 
ATOM      8  C   UNL     1       1.522   9.605  18.103  0.00  0.00    +0.000 A 
ENDBRANCH   1   6
BRANCH   1   9
ATOM      9  C   UNL     1       2.134   4.974  19.560  0.00  0.00    +0.000 C 
ATOM     10  C   UNL     1       1.508   3.790  18.805  0.00  0.00    +0.000 C 
ATOM     11  C   UNL     1       0.587   3.051  19.770  0.00  0.00    +0.000 C 
ATOM     12  C   UNL     1       1.318   2.645  21.053  0.00  0.00    +0.000 C 
ATOM     13  N   UNL     1       2.129   3.710  21.646  0.00  0.00    +0.000 NA
ATOM     14  C   UNL     1       3.007   4.393  20.679  0.00  0.00    +0.000 C 
ATOM     15  H   UNL     1       2.681   3.337  22.417  0.00  0.00    +0.000 HD
ENDBRANCH   1   9
BRANCH   1  16
ATOM     16  O   UNL     1       4.226   6.041  18.921  0.00  0.00    +0.000 OA
BRANCH  16  17
ATOM     17  C   UNL     1       5.138   5.911  17.904  0.00  0.00    +0.000 A 
ATOM     18  C   UNL     1       6.457   6.392  17.932  0.00  0.00    +0.000 A 
ATOM     19  C   UNL     1       7.334   6.174  16.861  0.00  0.00    +0.000 A 
ATOM     20  C   UNL     1       6.869   5.470  15.786  0.00  0.00    +0.000 A 
ATOM     21  C   UNL     1       5.590   4.983  15.741  0.00  0.00    +0.000 A 
ATOM     22  C   UNL     1       4.701   5.183  16.788  0.00  0.00    +0.000 A 
ATOM     23  O   UNL     1       5.336   4.304  14.589  0.00  0.00    +0.000 OA
ATOM     24  C   UNL     1       6.618   4.382  13.938  0.00  0.00    +0.000 C 
ATOM     25  O   UNL     1       7.588   5.161  14.673  0.00  0.00    +0.000 OA
ENDBRANCH  16  17
ENDBRANCH   1  16
TORSDOF 4
ENDMDL
MODEL 2
REMARK VINA RESULT:      -8.4      3.057      6.724
REMARK  Name = 
REMARK  4 active torsions:
REMARK  status: ('A' for Active; 'I' for Inactive)
REMARK    1  A    between atoms: C_5  and  C_6
REMARK    2  A    between atoms: C_6  and  O_7
REMARK    3  A    between atoms: C_6  and  C_17
REMARK    4  A    between atoms: O_7  and  C_8
REMARK                            x       y       z     vdW  Elec       q    Type
REMARK                         _______ _______ _______ _____ _____    ______ ____
ROOT
ATOM      1  C   UNL     1       2.671   5.845  18.107  0.00  0.00    +0.000 C 
ENDROOT
BRANCH   1   6
ATOM      2  F   UNL     1       0.938   2.156  22.064  0.00  0.00    +0.000 F 
ATOM      3  C   UNL     1       1.360   3.016  21.129  0.00  0.00    +0.000 A 
ATOM      4  C   UNL     1       0.911   2.883  19.821  0.00  0.00    +0.000 A 
ATOM      5  C   UNL     1       1.354   3.775  18.842  0.00  0.00    +0.000 A 
ATOM      6  C   UNL     1       2.205   4.844  19.179  0.00  0.00    +0.000 A 
ATOM      7  C   UNL     1       2.643   4.953  20.513  0.00  0.00    +0.000 A 
ATOM      8  C   UNL     1       2.241   4.031  21.480  0.00  0.00    +0.000 A 
ENDBRANCH   1   6
BRANCH   1   9
ATOM      9  C   UNL     1       3.897   5.236  17.370  0.00  0.00    +0.000 C 
ATOM     10  C   UNL     1       4.690   6.271  16.555  0.00  0.00    +0.000 C 
ATOM     11  C   UNL     1       5.625   5.514  15.617  0.00  0.00    +0.000 C 
ATOM     12  C   UNL     1       6.510   4.522  16.376  0.00  0.00    +0.000 C 
ATOM     13  N   UNL     1       5.791   3.698  17.350  0.00  0.00    +0.000 NA
ATOM     14  C   UNL     1       4.904   4.469  18.238  0.00  0.00    +0.000 C 
ATOM     15  H   UNL     1       6.454   3.156  17.902  0.00  0.00    +0.000 HD
ENDBRANCH   1   9
BRANCH   1  16
ATOM     16  O   UNL     1       3.082   7.085  18.726  0.00  0.00    +0.000 OA
BRANCH  16  17
ATOM     17  C   UNL     1       2.176   8.109  18.856  0.00  0.00    +0.000 A 
ATOM     18  C   UNL     1       1.630   8.846  17.793  0.00  0.00    +0.000 A 
ATOM     19  C   UNL     1       0.674   9.846  18.017  0.00  0.00    +0.000 A 
ATOM     20  C   UNL     1       0.282  10.080  19.305  0.00  0.00    +0.000 A 
ATOM     21  C   UNL     1       0.795   9.367  20.356  0.00  0.00    +0.000 A 
ATOM     22  C   UNL     1       1.741   8.369  20.163  0.00  0.00    +0.000 A 
ATOM     23  O   UNL     1       0.262   9.750  21.549  0.00  0.00    +0.000 OA
ATOM     24  C   UNL     1      -0.676  10.754  21.118  0.00  0.00    +0.000 C 
ATOM     25  O   UNL     1      -0.638  11.003  19.696  0.00  0.00    +0.000 OA
ENDBRANCH  16  17
ENDBRANCH   1  16
TORSDOF 4
ENDMDL
MODEL 3
REMARK VINA RESULT:      -8.2      4.208      7.400
REMARK  Name = 
REMARK  4 active torsions:
REMARK  status: ('A' for Active; 'I' for Inactive)
REMARK    1  A    between atoms: C_5  and  C_6
REMARK    2  A    between atoms: C_6  and  O_7
REMARK    3  A    between atoms: C_6  and  C_17
REMARK    4  A    between atoms: O_7  and  C_8
REMARK                            x       y       z     vdW  Elec       q    Type
REMARK                         _______ _______ _______ _____ _____    ______ ____
ROOT
ATOM      1  C   UNL     1       5.365   4.822  16.156  0.00  0.00    +0.000 C 
ENDROOT
BRANCH   1   6
ATOM      2  F   UNL     1       7.385   3.660  10.975  0.00  0.00    +0.000 F 
ATOM      3  C   UNL     1       6.901   3.948  12.189  0.00  0.00    +0.000 A 
ATOM      4  C   UNL     1       5.700   3.385  12.602  0.00  0.00    +0.000 A 
ATOM      5  C   UNL     1       5.190   3.688  13.866  0.00  0.00    +0.000 A 
ATOM      6  C   UNL     1       5.910   4.511  14.751  0.00  0.00    +0.000 A 
ATOM      7  C   UNL     1       7.126   5.066  14.305  0.00  0.00    +0.000 A 
ATOM      8  C   UNL     1       7.608   4.804  13.023  0.00  0.00    +0.000 A 
ENDBRANCH   1   6
BRANCH   1   9
ATOM      9  C   UNL     1       6.510   5.456  16.996  0.00  0.00    +0.000 C 
ATOM     10  C   UNL     1       6.327   6.965  17.228  0.00  0.00    +0.000 C 
ATOM     11  C   UNL     1       7.652   7.525  17.736  0.00  0.00    +0.000 C 
ATOM     12  C   UNL     1       8.152   6.769  18.970  0.00  0.00    +0.000 C 
ATOM     13  N   UNL     1       8.089   5.311  18.849  0.00  0.00    +0.000 NA
ATOM     14  C   UNL     1       6.792   4.813  18.360  0.00  0.00    +0.000 C 
ATOM     15  H   UNL     1       8.315   4.879  19.744  0.00  0.00    +0.000 HD
ENDBRANCH   1   9
BRANCH   1  16
ATOM     16  O   UNL     1       4.941   3.604  16.809  0.00  0.00    +0.000 OA
BRANCH  16  17
ATOM     17  C   UNL     1       3.825   3.617  17.608  0.00  0.00    +0.000 A 
ATOM     18  C   UNL     1       2.545   4.030  17.205  0.00  0.00    +0.000 A 
ATOM     19  C   UNL     1       1.451   3.967  18.078  0.00  0.00    +0.000 A 
ATOM     20  C   UNL     1       1.665   3.483  19.337  0.00  0.00    +0.000 A 
ATOM     21  C   UNL     1       2.902   3.065  19.750  0.00  0.00    +0.000 A 
ATOM     22  C   UNL     1       4.003   3.115  18.905  0.00  0.00    +0.000 A 
ATOM     23  O   UNL     1       2.893   2.610  21.032  0.00  0.00    +0.000 OA
ATOM     24  C   UNL     1       1.498   2.748  21.360  0.00  0.00    +0.000 C 
ATOM     25  O   UNL     1       0.716   3.344  20.302  0.00  0.00    +0.000 OA
ENDBRANCH  16  17
ENDBRANCH   1  16
TORSDOF 4
ENDMDL
MODEL 4
REMARK VINA RESULT:      -8.1      2.627      4.468
REMARK  Name = 
REMARK  4 active torsions:
REMARK  status: ('A' for Active; 'I' for Inactive)
REMARK    1  A    between atoms: C_5  and  C_6
REMARK    2  A    between atoms: C_6  and  O_7
REMARK    3  A    between atoms: C_6  and  C_17
REMARK    4  A    between atoms: O_7  and  C_8
REMARK                            x       y       z     vdW  Elec       q    Type
REMARK                         _______ _______ _______ _____ _____    ______ ____
ROOT
ATOM      1  C   UNL     1       2.741   6.790  19.420  0.00  0.00    +0.000 C 
ENDROOT
BRANCH   1   6
ATOM      2  F   UNL     1       0.371   1.669  18.759  0.00  0.00    +0.000 F 
ATOM      3  C   UNL     1       0.945   2.868  18.916  0.00  0.00    +0.000 A 
ATOM      4  C   UNL     1       1.290   3.616  17.797  0.00  0.00    +0.000 A 
ATOM      5  C   UNL     1       1.894   4.865  17.957  0.00  0.00    +0.000 A 
ATOM      6  C   UNL     1       2.102   5.401  19.242  0.00  0.00    +0.000 A 
ATOM      7  C   UNL     1       1.742   4.619  20.356  0.00  0.00    +0.000 A 
ATOM      8  C   UNL     1       1.186   3.350  20.195  0.00  0.00    +0.000 A 
ENDBRANCH   1   6
BRANCH   1   9
ATOM      9  C   UNL     1       1.607   7.817  19.697  0.00  0.00    +0.000 C 
ATOM     10  C   UNL     1       1.475   8.188  21.184  0.00  0.00    +0.000 C 
ATOM     11  C   UNL     1       0.140   8.899  21.373  0.00  0.00    +0.000 C 
ATOM     12  C   UNL     1      -0.007  10.094  20.427  0.00  0.00    +0.000 C 
ATOM     13  N   UNL     1       0.366   9.811  19.039  0.00  0.00    +0.000 NA
ATOM     14  C   UNL     1       1.664   9.127  18.902  0.00  0.00    +0.000 C 
ATOM     15  H   UNL     1       0.365  10.674  18.497  0.00  0.00    +0.000 HD
ENDBRANCH   1   9
BRANCH   1  16
ATOM     16  O   UNL     1       3.426   7.184  18.210  0.00  0.00    +0.000 OA
BRANCH  16  17
ATOM     17  C   UNL     1       4.548   6.499  17.813  0.00  0.00    +0.000 A 
ATOM     18  C   UNL     1       5.412   5.796  18.669  0.00  0.00    +0.000 A 
ATOM     19  C   UNL     1       6.511   5.085  18.169  0.00  0.00    +0.000 A 
ATOM     20  C   UNL     1       6.716   5.090  16.818  0.00  0.00    +0.000 A 
ATOM     21  C   UNL     1       5.881   5.760  15.964  0.00  0.00    +0.000 A 
ATOM     22  C   UNL     1       4.783   6.471  16.432  0.00  0.00    +0.000 A 
ATOM     23  O   UNL     1       6.256   5.626  14.663  0.00  0.00    +0.000 OA
ATOM     24  C   UNL     1       7.397   4.757  14.796  0.00  0.00    +0.000 C 
ATOM     25  O   UNL     1       7.723   4.446  16.169  0.00  0.00    +0.000 OA
ENDBRANCH  16  17
ENDBRANCH   1  16
TORSDOF 4
ENDMDL
MODEL 5
REMARK VINA RESULT:      -8.0      3.208      6.882
REMARK  Name = 
REMARK  4 active torsions:
REMARK  status: ('A' for Active; 'I' for Inactive)
REMARK    1  A    between atoms: C_5  and  C_6
REMARK    2  A    between atoms: C_6  and  O_7
REMARK    3  A    between atoms: C_6  and  C_17
REMARK    4  A    between atoms: O_7  and  C_8
REMARK                            x       y       z     vdW  Elec       q    Type
REMARK                         _______ _______ _______ _____ _____    ______ ____
ROOT
ATOM      1  C   UNL     1       3.237   6.023  18.138  0.00  0.00    +0.000 C 
ENDROOT
BRANCH   1   6
ATOM      2  F   UNL     1       0.527   1.089  18.898  0.00  0.00    +0.000 F 
ATOM      3  C   UNL     1       1.177   2.246  18.730  0.00  0.00    +0.000 A 
ATOM      4  C   UNL     1       2.085   2.379  17.687  0.00  0.00    +0.000 A 
ATOM      5  C   UNL     1       2.770   3.584  17.513  0.00  0.00    +0.000 A 
ATOM      6  C   UNL     1       2.505   4.685  18.346  0.00  0.00    +0.000 A 
ATOM      7  C   UNL     1       1.579   4.520  19.395  0.00  0.00    +0.000 A 
ATOM      8  C   UNL     1       0.934   3.301  19.600  0.00  0.00    +0.000 A 
ENDBRANCH   1   6
BRANCH   1   9
ATOM      9  C   UNL     1       4.760   5.733  18.015  0.00  0.00    +0.000 C 
ATOM     10  C   UNL     1       5.548   6.889  17.378  0.00  0.00    +0.000 C 
ATOM     11  C   UNL     1       6.925   6.362  16.991  0.00  0.00    +0.000 C 
ATOM     12  C   UNL     1       7.640   5.712  18.179  0.00  0.00    +0.000 C 
ATOM     13  N   UNL     1       6.805   4.789  18.951  0.00  0.00    +0.000 NA
ATOM     14  C   UNL     1       5.487   5.341  19.308  0.00  0.00    +0.000 C 
ATOM     15  H   UNL     1       7.301   4.495  19.791  0.00  0.00    +0.000 HD
ENDBRANCH   1   9
BRANCH   1  16
ATOM     16  O   UNL     1       3.029   6.890  19.276  0.00  0.00    +0.000 OA
BRANCH  16  17
ATOM     17  C   UNL     1       2.200   7.976  19.157  0.00  0.00    +0.000 A 
ATOM     18  C   UNL     1       1.910   8.646  17.956  0.00  0.00    +0.000 A 
ATOM     19  C   UNL     1       1.012   9.721  17.922  0.00  0.00    +0.000 A 
ATOM     20  C   UNL     1       0.419  10.098  19.094  0.00  0.00    +0.000 A 
ATOM     21  C   UNL     1       0.679   9.454  20.274  0.00  0.00    +0.000 A 
ATOM     22  C   UNL     1       1.562   8.384  20.337  0.00  0.00    +0.000 A 
ATOM     23  O   UNL     1      -0.024   9.979  21.315  0.00  0.00    +0.000 OA
ATOM     24  C   UNL     1      -0.788  10.997  20.642  0.00  0.00    +0.000 C 
ATOM     25  O   UNL     1      -0.480  11.109  19.235  0.00  0.00    +0.000 OA
ENDBRANCH  16  17
ENDBRANCH   1  16
TORSDOF 4
ENDMDL
MODEL 6
REMARK VINA RESULT:      -8.0      3.148      6.741
REMARK  Name = 
REMARK  4 active torsions:
REMARK  status: ('A' for Active; 'I' for Inactive)
REMARK    1  A    between atoms: C_5  and  C_6
REMARK    2  A    between atoms: C_6  and  O_7
REMARK    3  A    between atoms: C_6  and  C_17
REMARK    4  A    between atoms: O_7  and  C_8
REMARK                            x       y       z     vdW  Elec       q    Type
REMARK                         _______ _______ _______ _____ _____    ______ ____
ROOT
ATOM      1  C   UNL     1       2.529   5.953  18.297  0.00  0.00    +0.000 C 
ENDROOT
BRANCH   1   6
ATOM      2  F   UNL     1       1.067   2.002  22.107  0.00  0.00    +0.000 F 
ATOM      3  C   UNL     1       1.425   2.924  21.206  0.00  0.00    +0.000 A 
ATOM      4  C   UNL     1       0.907   2.863  19.918  0.00  0.00    +0.000 A 
ATOM      5  C   UNL     1       1.284   3.820  18.973  0.00  0.00    +0.000 A 
ATOM      6  C   UNL     1       2.136   4.881  19.328  0.00  0.00    +0.000 A 
ATOM      7  C   UNL     1       2.645   4.916  20.642  0.00  0.00    +0.000 A 
ATOM      8  C   UNL     1       2.309   3.931  21.570  0.00  0.00    +0.000 A 
ENDBRANCH   1   6
BRANCH   1   9
ATOM      9  C   UNL     1       3.742   5.425  17.481  0.00  0.00    +0.000 C 
ATOM     10  C   UNL     1       4.535   6.541  16.780  0.00  0.00    +0.000 C 
ATOM     11  C   UNL     1       5.452   5.890  15.751  0.00  0.00    +0.000 C 
ATOM     12  C   UNL     1       6.338   4.811  16.380  0.00  0.00    +0.000 C 
ATOM     13  N   UNL     1       5.622   3.885  17.261  0.00  0.00    +0.000 NA
ATOM     14  C   UNL     1       4.752   4.556  18.243  0.00  0.00    +0.000 C 
ATOM     15  H   UNL     1       6.287   3.279  17.740  0.00  0.00    +0.000 HD
ENDBRANCH   1   9
BRANCH   1  16
ATOM     16  O   UNL     1       2.928   7.171  18.968  0.00  0.00    +0.000 OA
BRANCH  16  17
ATOM     17  C   UNL     1       1.967   8.036  19.427  0.00  0.00    +0.000 A 
ATOM     18  C   UNL     1       1.489   8.090  20.747  0.00  0.00    +0.000 A 
ATOM     19  C   UNL     1       0.535   9.039  21.137  0.00  0.00    +0.000 A 
ATOM     20  C   UNL     1       0.087   9.921  20.194  0.00  0.00    +0.000 A 
ATOM     21  C   UNL     1       0.545   9.894  18.904  0.00  0.00    +0.000 A 
ATOM     22  C   UNL     1       1.491   8.965  18.491  0.00  0.00    +0.000 A 
ATOM     23  O   UNL     1      -0.021  10.862  18.134  0.00  0.00    +0.000 OA
ATOM     24  C   UNL     1      -0.853  11.528  19.102  0.00  0.00    +0.000 C 
ATOM     25  O   UNL     1      -0.825  10.908  20.406  0.00  0.00    +0.000 OA
ENDBRANCH  16  17
ENDBRANCH   1  16
TORSDOF 4
ENDMDL
MODEL 7
REMARK VINA RESULT:      -7.9      3.129      6.510
REMARK  Name = 
REMARK  4 active torsions:
REMARK  status: ('A' for Active; 'I' for Inactive)
REMARK    1  A    between atoms: C_5  and  C_6
REMARK    2  A    between atoms: C_6  and  O_7
REMARK    3  A    between atoms: C_6  and  C_17
REMARK    4  A    between atoms: O_7  and  C_8
REMARK                            x       y       z     vdW  Elec       q    Type
REMARK                         _______ _______ _______ _____ _____    ______ ____
ROOT
ATOM      1  C   UNL     1       3.052   6.112  19.379  0.00  0.00    +0.000 C 
ENDROOT
BRANCH   1   6
ATOM      2  F   UNL     1       7.707   5.973  16.125  0.00  0.00    +0.000 F 
ATOM      3  C   UNL     1       6.617   6.019  16.901  0.00  0.00    +0.000 A 
ATOM      4  C   UNL     1       5.506   6.742  16.483  0.00  0.00    +0.000 A 
ATOM      5  C   UNL     1       4.369   6.796  17.292  0.00  0.00    +0.000 A 
ATOM      6  C   UNL     1       4.315   6.077  18.500  0.00  0.00    +0.000 A 
ATOM      7  C   UNL     1       5.456   5.353  18.897  0.00  0.00    +0.000 A 
ATOM      8  C   UNL     1       6.609   5.341  18.112  0.00  0.00    +0.000 A 
ENDBRANCH   1   6
BRANCH   1   9
ATOM      9  C   UNL     1       2.375   4.714  19.317  0.00  0.00    +0.000 C 
ATOM     10  C   UNL     1       1.373   4.474  20.458  0.00  0.00    +0.000 C 
ATOM     11  C   UNL     1       1.054   2.983  20.498  0.00  0.00    +0.000 C 
ATOM     12  C   UNL     1       0.571   2.469  19.139  0.00  0.00    +0.000 C 
ATOM     13  N   UNL     1       1.387   2.909  18.006  0.00  0.00    +0.000 NA
ATOM     14  C   UNL     1       1.667   4.356  18.004  0.00  0.00    +0.000 C 
ATOM     15  H   UNL     1       0.940   2.638  17.131  0.00  0.00    +0.000 HD
ENDBRANCH   1   9
BRANCH   1  16
ATOM     16  O   UNL     1       2.118   7.093  18.874  0.00  0.00    +0.000 OA
BRANCH  16  17
ATOM     17  C   UNL     1       1.661   8.083  19.707  0.00  0.00    +0.000 A 
ATOM     18  C   UNL     1       1.552   7.980  21.104  0.00  0.00    +0.000 A 
ATOM     19  C   UNL     1       1.116   9.062  21.881  0.00  0.00    +0.000 A 
ATOM     20  C   UNL     1       0.806  10.228  21.240  0.00  0.00    +0.000 A 
ATOM     21  C   UNL     1       0.914  10.354  19.880  0.00  0.00    +0.000 A 
ATOM     22  C   UNL     1       1.344   9.299  19.086  0.00  0.00    +0.000 A 
ATOM     23  O   UNL     1       0.568  11.597  19.448  0.00  0.00    +0.000 OA
ATOM     24  C   UNL     1       0.274  12.248  20.698  0.00  0.00    +0.000 C 
ATOM     25  O   UNL     1       0.380  11.371  21.841  0.00  0.00    +0.000 OA
ENDBRANCH  16  17
ENDBRANCH   1  16
TORSDOF 4
ENDMDL
MODEL 8
REMARK VINA RESULT:      -7.9      3.000      6.357
REMARK  Name = 
REMARK  4 active torsions:
REMARK  status: ('A' for Active; 'I' for Inactive)
REMARK    1  A    between atoms: C_5  and  C_6
REMARK    2  A    between atoms: C_6  and  O_7
REMARK    3  A    between atoms: C_6  and  C_17
REMARK    4  A    between atoms: O_7  and  C_8
REMARK                            x       y       z     vdW  Elec       q    Type
REMARK                         _______ _______ _______ _____ _____    ______ ____
ROOT
ATOM      1  C   UNL     1       3.528   5.924  19.049  0.00  0.00    +0.000 C 
ENDROOT
BRANCH   1   6
ATOM      2  F   UNL     1       7.741   4.679  15.447  0.00  0.00    +0.000 F 
ATOM      3  C   UNL     1       6.757   4.987  16.300  0.00  0.00    +0.000 A 
ATOM      4  C   UNL     1       5.626   5.646  15.834  0.00  0.00    +0.000 A 
ATOM      5  C   UNL     1       4.599   5.974  16.723  0.00  0.00    +0.000 A 
ATOM      6  C   UNL     1       4.671   5.590  18.074  0.00  0.00    +0.000 A 
ATOM      7  C   UNL     1       5.830   4.922  18.517  0.00  0.00    +0.000 A 
ATOM      8  C   UNL     1       6.877   4.641  17.639  0.00  0.00    +0.000 A 
ENDBRANCH   1   6
BRANCH   1   9
ATOM      9  C   UNL     1       3.018   4.597  19.677  0.00  0.00    +0.000 C 
ATOM     10  C   UNL     1       2.251   4.804  20.994  0.00  0.00    +0.000 C 
ATOM     11  C   UNL     1       2.120   3.449  21.679  0.00  0.00    +0.000 C 
ATOM     12  C   UNL     1       1.485   2.404  20.757  0.00  0.00    +0.000 C 
ATOM     13  N   UNL     1       2.047   2.375  19.405  0.00  0.00    +0.000 NA
ATOM     14  C   UNL     1       2.152   3.705  18.779  0.00  0.00    +0.000 C 
ATOM     15  H   UNL     1       1.498   1.752  18.815  0.00  0.00    +0.000 HD
ENDBRANCH   1   9
BRANCH   1  16
ATOM     16  O   UNL     1       2.431   6.543  18.339  0.00  0.00    +0.000 OA
BRANCH  16  17
ATOM     17  C   UNL     1       2.064   7.829  18.649  0.00  0.00    +0.000 A 
ATOM     18  C   UNL     1       2.064   8.910  17.753  0.00  0.00    +0.000 A 
ATOM     19  C   UNL     1       1.629  10.182  18.147  0.00  0.00    +0.000 A 
ATOM     20  C   UNL     1       1.195  10.340  19.433  0.00  0.00    +0.000 A 
ATOM     21  C   UNL     1       1.176   9.298  20.322  0.00  0.00    +0.000 A 
ATOM     22  C   UNL     1       1.600   8.027  19.957  0.00  0.00    +0.000 A 
ATOM     23  O   UNL     1       0.698   9.667  21.541  0.00  0.00    +0.000 OA
ATOM     24  C   UNL     1       0.377  11.050  21.301  0.00  0.00    +0.000 C 
ATOM     25  O   UNL     1       0.731  11.499  19.974  0.00  0.00    +0.000 OA
ENDBRANCH  16  17
ENDBRANCH   1  16
TORSDOF 4
ENDMDL
MODEL 9
REMARK VINA RESULT:      -7.8      3.002      6.339
REMARK  Name = 
REMARK  4 active torsions:
REMARK  status: ('A' for Active; 'I' for Inactive)
REMARK    1  A    between atoms: C_5  and  C_6
REMARK    2  A    between atoms: C_6  and  O_7
REMARK    3  A    between atoms: C_6  and  C_17
REMARK    4  A    between atoms: O_7  and  C_8
REMARK                            x       y       z     vdW  Elec       q    Type
REMARK                         _______ _______ _______ _____ _____    ______ ____
ROOT
ATOM      1  C   UNL     1       3.420   5.941  19.070  0.00  0.00    +0.000 C 
ENDROOT
BRANCH   1   6
ATOM      2  F   UNL     1       7.844   4.593  15.771  0.00  0.00    +0.000 F 
ATOM      3  C   UNL     1       6.795   4.895  16.546  0.00  0.00    +0.000 A 
ATOM      4  C   UNL     1       6.895   4.749  17.924  0.00  0.00    +0.000 A 
ATOM      5  C   UNL     1       5.801   5.058  18.735  0.00  0.00    +0.000 A 
ATOM      6  C   UNL     1       4.617   5.573  18.176  0.00  0.00    +0.000 A 
ATOM      7  C   UNL     1       4.546   5.710  16.776  0.00  0.00    +0.000 A 
ATOM      8  C   UNL     1       5.622   5.353  15.963  0.00  0.00    +0.000 A 
ENDBRANCH   1   6
BRANCH   1   9
ATOM      9  C   UNL     1       2.811   4.628  19.637  0.00  0.00    +0.000 C 
ATOM     10  C   UNL     1       2.380   4.745  21.109  0.00  0.00    +0.000 C 
ATOM     11  C   UNL     1       2.142   3.336  21.641  0.00  0.00    +0.000 C 
ATOM     12  C   UNL     1       1.150   2.559  20.771  0.00  0.00    +0.000 C 
ATOM     13  N   UNL     1       1.411   2.654  19.333  0.00  0.00    +0.000 NA
ATOM     14  C   UNL     1       1.630   4.032  18.860  0.00  0.00    +0.000 C 
ATOM     15  H   UNL     1       0.647   2.223  18.813  0.00  0.00    +0.000 HD
ENDBRANCH   1   9
BRANCH   1  16
ATOM     16  O   UNL     1       2.404   6.616  18.294  0.00  0.00    +0.000 OA
BRANCH  16  17
ATOM     17  C   UNL     1       2.009   7.881  18.651  0.00  0.00    +0.000 A 
ATOM     18  C   UNL     1       1.937   8.982  17.782  0.00  0.00    +0.000 A 
ATOM     19  C   UNL     1       1.477  10.229  18.225  0.00  0.00    +0.000 A 
ATOM     20  C   UNL     1       1.092  10.342  19.532  0.00  0.00    +0.000 A 
ATOM     21  C   UNL     1       1.144   9.279  20.394  0.00  0.00    +0.000 A 
ATOM     22  C   UNL     1       1.594   8.032  19.981  0.00  0.00    +0.000 A 
ATOM     23  O   UNL     1       0.706   9.604  21.641  0.00  0.00    +0.000 OA
ATOM     24  C   UNL     1       0.330  10.980  21.448  0.00  0.00    +0.000 C 
ATOM     25  O   UNL     1       0.614  11.472  20.120  0.00  0.00    +0.000 OA
ENDBRANCH  16  17
ENDBRANCH   1  16
TORSDOF 4
ENDMDL
