MODEL 1
REMARK VINA RESULT:      -7.9      0.000      0.000
REMARK  Name = 
REMARK  5 active torsions:
REMARK  status: ('A' for Active; 'I' for Inactive)
REMARK    1  A    between atoms: C_1  and  O_2
REMARK    2  A    between atoms: O_2  and  C_3
REMARK    3  A    between atoms: C_3  and  C_5
REMARK    4  A    between atoms: C_8  and  C_9
REMARK    5  A    between atoms: C_15  and  C_16
REMARK                            x       y       z     vdW  Elec       q    Type
REMARK                         _______ _______ _______ _____ _____    ______ ____
ROOT
ATOM      1  C   UNL     1       3.542   6.114  18.891  0.00  0.00    +0.000 C 
ATOM      2  O   UNL     1       4.663   6.210  19.387  0.00  0.00    +0.000 OA
ATOM      3  N   UNL     1       3.148   4.986  18.180  0.00  0.00    +0.000 N 
ATOM      4  C   UNL     1       1.807   4.586  17.786  0.00  0.00    +0.000 C 
ATOM      5  C   UNL     1       1.791   3.081  17.963  0.00  0.00    +0.000 C 
ATOM      6  C   UNL     1       3.218   2.652  17.657  0.00  0.00    +0.000 C 
ATOM      7  C   UNL     1       4.088   3.879  17.997  0.00  0.00    +0.000 C 
ENDROOT
BRANCH   7   8
ATOM      8  C   UNL     1       5.106   4.158  16.902  0.00  0.00    +0.000 A 
ATOM      9  C   UNL     1       6.456   4.419  17.206  0.00  0.00    +0.000 A 
ATOM     10  C   UNL     1       7.371   4.710  16.194  0.00  0.00    +0.000 A 
ATOM     11  C   UNL     1       6.946   4.734  14.874  0.00  0.00    +0.000 A 
ATOM     12  F   UNL     1       7.824   5.022  13.904  0.00  0.00    +0.000 F 
ATOM     13  C   UNL     1       5.622   4.467  14.545  0.00  0.00    +0.000 A 
ATOM     14  C   UNL     1       4.704   4.177  15.556  0.00  0.00    +0.000 A 
ENDBRANCH   7   8
BRANCH   1  18
ATOM     15  C   UNL     1       0.832   9.431  19.444  0.00  0.00    +0.000 A 
ATOM     16  C   UNL     1       1.058   8.534  20.495  0.00  0.00    +0.000 A 
ATOM     17  C   UNL     1       1.902   7.433  20.323  0.00  0.00    +0.000 A 
ATOM     18  C   UNL     1       2.593   7.249  19.122  0.00  0.00    +0.000 A 
ATOM     19  C   UNL     1       2.349   8.138  18.062  0.00  0.00    +0.000 A 
ATOM     20  C   UNL     1       1.472   9.220  18.217  0.00  0.00    +0.000 A 
BRANCH  15  21
ATOM     21  C   UNL     1      -0.103  10.563  19.683  0.00  0.00    +0.000 C 
ATOM     22  O   UNL     1      -0.312  11.031  20.795  0.00  0.00    +0.000 OA
BRANCH  21  24
ATOM     23  C   UNL     1      -1.976  10.420  18.308  0.00  0.00    +0.000 C 
ATOM     24  O   UNL     1      -0.678  10.975  18.532  0.00  0.00    +0.000 OA
ENDBRANCH  21  24
ENDBRANCH  15  21
ENDBRANCH   1  18
TORSDOF 4
ENDMDL
MODEL 2
REMARK VINA RESULT:      -7.9      0.554      1.093
REMARK  Name = 
REMARK  5 active torsions:
REMARK  status: ('A' for Active; 'I' for Inactive)
REMARK    1  A    between atoms: C_1  and  O_2
REMARK    2  A    between atoms: O_2  and  C_3
REMARK    3  A    between atoms: C_3  and  C_5
REMARK    4  A    between atoms: C_8  and  C_9
REMARK    5  A    between atoms: C_15  and  C_16
REMARK                            x       y       z     vdW  Elec       q    Type
REMARK                         _______ _______ _______ _____ _____    ______ ____
ROOT
ATOM      1  C   UNL     1       3.546   5.988  18.968  0.00  0.00    +0.000 C 
ATOM      2  O   UNL     1       4.666   6.084  19.464  0.00  0.00    +0.000 OA
ATOM      3  N   UNL     1       3.164   4.874  18.227  0.00  0.00    +0.000 N 
ATOM      4  C   UNL     1       1.828   4.468  17.825  0.00  0.00    +0.000 C 
ATOM      5  C   UNL     1       1.831   2.959  17.961  0.00  0.00    +0.000 C 
ATOM      6  C   UNL     1       3.263   2.556  17.641  0.00  0.00    +0.000 C 
ATOM      7  C   UNL     1       4.117   3.784  18.012  0.00  0.00    +0.000 C 
ENDROOT
BRANCH   7   8
ATOM      8  C   UNL     1       5.131   4.106  16.924  0.00  0.00    +0.000 A 
ATOM      9  C   UNL     1       6.470   4.409  17.236  0.00  0.00    +0.000 A 
ATOM     10  C   UNL     1       7.379   4.738  16.230  0.00  0.00    +0.000 A 
ATOM     11  C   UNL     1       6.958   4.758  14.908  0.00  0.00    +0.000 A 
ATOM     12  F   UNL     1       7.830   5.083  13.945  0.00  0.00    +0.000 F 
ATOM     13  C   UNL     1       5.645   4.451  14.572  0.00  0.00    +0.000 A 
ATOM     14  C   UNL     1       4.733   4.122  15.577  0.00  0.00    +0.000 A 
ENDBRANCH   7   8
BRANCH   1  18
ATOM     15  C   UNL     1       0.798   9.255  19.615  0.00  0.00    +0.000 A 
ATOM     16  C   UNL     1       1.016   8.317  20.632  0.00  0.00    +0.000 A 
ATOM     17  C   UNL     1       1.873   7.232  20.428  0.00  0.00    +0.000 A 
ATOM     18  C   UNL     1       2.583   7.104  19.231  0.00  0.00    +0.000 A 
ATOM     19  C   UNL     1       2.346   8.033  18.205  0.00  0.00    +0.000 A 
ATOM     20  C   UNL     1       1.457   9.100  18.391  0.00  0.00    +0.000 A 
BRANCH  15  21
ATOM     21  C   UNL     1      -0.152  10.368  19.887  0.00  0.00    +0.000 C 
ATOM     22  O   UNL     1      -1.117  10.609  19.174  0.00  0.00    +0.000 OA
BRANCH  21  24
ATOM     23  C   UNL     1       1.004  12.211  20.717  0.00  0.00    +0.000 C 
ATOM     24  O   UNL     1       0.206  11.058  20.993  0.00  0.00    +0.000 OA
ENDBRANCH  21  24
ENDBRANCH  15  21
ENDBRANCH   1  18
TORSDOF 4
ENDMDL
MODEL 3
REMARK VINA RESULT:      -7.9      0.412      1.066
REMARK  Name = 
REMARK  5 active torsions:
REMARK  status: ('A' for Active; 'I' for Inactive)
REMARK    1  A    between atoms: C_1  and  O_2
REMARK    2  A    between atoms: O_2  and  C_3
REMARK    3  A    between atoms: C_3  and  C_5
REMARK    4  A    between atoms: C_8  and  C_9
REMARK    5  A    between atoms: C_15  and  C_16
REMARK                            x       y       z     vdW  Elec       q    Type
REMARK                         _______ _______ _______ _____ _____    ______ ____
ROOT
ATOM      1  C   UNL     1       3.433   6.165  18.915  0.00  0.00    +0.000 C 
ATOM      2  O   UNL     1       4.544   6.260  19.433  0.00  0.00    +0.000 OA
ATOM      3  N   UNL     1       3.045   5.029  18.213  0.00  0.00    +0.000 N 
ATOM      4  C   UNL     1       1.710   4.632  17.798  0.00  0.00    +0.000 C 
ATOM      5  C   UNL     1       1.679   3.130  17.997  0.00  0.00    +0.000 C 
ATOM      6  C   UNL     1       3.109   2.687  17.727  0.00  0.00    +0.000 C 
ATOM      7  C   UNL     1       3.980   3.912  18.067  0.00  0.00    +0.000 C 
ENDROOT
BRANCH   7   8
ATOM      8  C   UNL     1       5.024   4.168  16.989  0.00  0.00    +0.000 A 
ATOM      9  C   UNL     1       6.369   4.420  17.318  0.00  0.00    +0.000 A 
ATOM     10  C   UNL     1       7.308   4.689  16.321  0.00  0.00    +0.000 A 
ATOM     11  C   UNL     1       6.910   4.699  14.992  0.00  0.00    +0.000 A 
ATOM     12  F   UNL     1       7.810   4.966  14.037  0.00  0.00    +0.000 F 
ATOM     13  C   UNL     1       5.591   4.441  14.640  0.00  0.00    +0.000 A 
ATOM     14  C   UNL     1       4.650   4.173  15.636  0.00  0.00    +0.000 A 
ENDBRANCH   7   8
BRANCH   1  18
ATOM     15  C   UNL     1       0.684   9.427  19.590  0.00  0.00    +0.000 A 
ATOM     16  C   UNL     1       1.277   9.265  18.332  0.00  0.00    +0.000 A 
ATOM     17  C   UNL     1       2.197   8.237  18.105  0.00  0.00    +0.000 A 
ATOM     18  C   UNL     1       2.488   7.310  19.109  0.00  0.00    +0.000 A 
ATOM     19  C   UNL     1       1.909   7.487  20.377  0.00  0.00    +0.000 A 
ATOM     20  C   UNL     1       1.017   8.540  20.620  0.00  0.00    +0.000 A 
BRANCH  15  21
ATOM     21  C   UNL     1      -0.263  10.560  19.773  0.00  0.00    +0.000 C 
ATOM     22  O   UNL     1      -0.321  11.219  20.803  0.00  0.00    +0.000 OA
BRANCH  21  24
ATOM     23  C   UNL     1      -1.239  12.110  18.338  0.00  0.00    +0.000 C 
ATOM     24  O   UNL     1      -1.031  10.738  18.676  0.00  0.00    +0.000 OA
ENDBRANCH  21  24
ENDBRANCH  15  21
ENDBRANCH   1  18
TORSDOF 4
ENDMDL
MODEL 4
REMARK VINA RESULT:      -7.8      0.390      1.061
REMARK  Name = 
REMARK  5 active torsions:
REMARK  status: ('A' for Active; 'I' for Inactive)
REMARK    1  A    between atoms: C_1  and  O_2
REMARK    2  A    between atoms: O_2  and  C_3
REMARK    3  A    between atoms: C_3  and  C_5
REMARK    4  A    between atoms: C_8  and  C_9
REMARK    5  A    between atoms: C_15  and  C_16
REMARK                            x       y       z     vdW  Elec       q    Type
REMARK                         _______ _______ _______ _____ _____    ______ ____
ROOT
ATOM      1  C   UNL     1       3.530   6.086  18.948  0.00  0.00    +0.000 C 
ATOM      2  O   UNL     1       4.660   6.199  19.420  0.00  0.00    +0.000 OA
ATOM      3  N   UNL     1       3.147   4.963  18.222  0.00  0.00    +0.000 N 
ATOM      4  C   UNL     1       1.808   4.537  17.851  0.00  0.00    +0.000 C 
ATOM      5  C   UNL     1       1.834   3.028  17.996  0.00  0.00    +0.000 C 
ATOM      6  C   UNL     1       3.264   2.643  17.647  0.00  0.00    +0.000 C 
ATOM      7  C   UNL     1       4.110   3.884  17.993  0.00  0.00    +0.000 C 
ENDROOT
BRANCH   7   8
ATOM      8  C   UNL     1       5.095   4.212  16.881  0.00  0.00    +0.000 A 
ATOM      9  C   UNL     1       4.692   4.252  15.533  0.00  0.00    +0.000 A 
ATOM     10  C   UNL     1       5.614   4.519  14.520  0.00  0.00    +0.000 A 
ATOM     11  C   UNL     1       6.941   4.754  14.850  0.00  0.00    +0.000 A 
ATOM     12  F   UNL     1       7.827   5.001  13.876  0.00  0.00    +0.000 F 
ATOM     13  C   UNL     1       7.363   4.734  16.173  0.00  0.00    +0.000 A 
ATOM     14  C   UNL     1       6.442   4.466  17.188  0.00  0.00    +0.000 A 
ENDBRANCH   7   8
BRANCH   1  18
ATOM     15  C   UNL     1       0.753   9.321  19.637  0.00  0.00    +0.000 A 
ATOM     16  C   UNL     1       1.005   8.391  20.653  0.00  0.00    +0.000 A 
ATOM     17  C   UNL     1       1.871   7.316  20.437  0.00  0.00    +0.000 A 
ATOM     18  C   UNL     1       2.558   7.191  19.226  0.00  0.00    +0.000 A 
ATOM     19  C   UNL     1       2.288   8.112  18.200  0.00  0.00    +0.000 A 
ATOM     20  C   UNL     1       1.389   9.168  18.399  0.00  0.00    +0.000 A 
BRANCH  15  21
ATOM     21  C   UNL     1      -0.204  10.423  19.922  0.00  0.00    +0.000 C 
ATOM     22  O   UNL     1      -0.163  11.092  20.947  0.00  0.00    +0.000 OA
BRANCH  21  24
ATOM     23  C   UNL     1      -1.255  11.909  18.470  0.00  0.00    +0.000 C 
ATOM     24  O   UNL     1      -1.104  10.562  18.923  0.00  0.00    +0.000 OA
ENDBRANCH  21  24
ENDBRANCH  15  21
ENDBRANCH   1  18
TORSDOF 4
ENDMDL
MODEL 5
REMARK VINA RESULT:      -7.7      0.589      1.779
REMARK  Name = 
REMARK  5 active torsions:
REMARK  status: ('A' for Active; 'I' for Inactive)
REMARK    1  A    between atoms: C_1  and  O_2
REMARK    2  A    between atoms: O_2  and  C_3
REMARK    3  A    between atoms: C_3  and  C_5
REMARK    4  A    between atoms: C_8  and  C_9
REMARK    5  A    between atoms: C_15  and  C_16
REMARK                            x       y       z     vdW  Elec       q    Type
REMARK                         _______ _______ _______ _____ _____    ______ ____
ROOT
ATOM      1  C   UNL     1       3.451   6.110  18.941  0.00  0.00    +0.000 C 
ATOM      2  O   UNL     1       4.574   6.190  19.437  0.00  0.00    +0.000 OA
ATOM      3  N   UNL     1       3.053   5.001  18.202  0.00  0.00    +0.000 N 
ATOM      4  C   UNL     1       1.711   4.614  17.802  0.00  0.00    +0.000 C 
ATOM      5  C   UNL     1       1.692   3.105  17.939  0.00  0.00    +0.000 C 
ATOM      6  C   UNL     1       3.117   2.681  17.618  0.00  0.00    +0.000 C 
ATOM      7  C   UNL     1       3.990   3.897  17.987  0.00  0.00    +0.000 C 
ENDROOT
BRANCH   7   8
ATOM      8  C   UNL     1       5.006   4.203  16.898  0.00  0.00    +0.000 A 
ATOM      9  C   UNL     1       4.636   4.245  15.540  0.00  0.00    +0.000 A 
ATOM     10  C   UNL     1       5.585   4.490  14.549  0.00  0.00    +0.000 A 
ATOM     11  C   UNL     1       6.909   4.702  14.908  0.00  0.00    +0.000 A 
ATOM     12  F   UNL     1       7.822   4.929  13.954  0.00  0.00    +0.000 F 
ATOM     13  C   UNL     1       7.300   4.679  16.241  0.00  0.00    +0.000 A 
ATOM     14  C   UNL     1       6.350   4.432  17.235  0.00  0.00    +0.000 A 
ENDBRANCH   7   8
BRANCH   1  18
ATOM     15  C   UNL     1       0.700   9.322  19.813  0.00  0.00    +0.000 A 
ATOM     16  C   UNL     1       1.299   9.242  18.549  0.00  0.00    +0.000 A 
ATOM     17  C   UNL     1       2.220   8.231  18.261  0.00  0.00    +0.000 A 
ATOM     18  C   UNL     1       2.506   7.240  19.204  0.00  0.00    +0.000 A 
ATOM     19  C   UNL     1       1.921   7.335  20.478  0.00  0.00    +0.000 A 
ATOM     20  C   UNL     1       1.028   8.370  20.785  0.00  0.00    +0.000 A 
BRANCH  15  21
ATOM     21  C   UNL     1      -0.247  10.441  20.064  0.00  0.00    +0.000 C 
ATOM     22  O   UNL     1      -1.223  10.659  19.358  0.00  0.00    +0.000 OA
BRANCH  21  24
ATOM     23  C   UNL     1       0.859  12.347  20.815  0.00  0.00    +0.000 C 
ATOM     24  O   UNL     1       0.125  11.165  21.143  0.00  0.00    +0.000 OA
ENDBRANCH  21  24
ENDBRANCH  15  21
ENDBRANCH   1  18
TORSDOF 4
ENDMDL
MODEL 6
REMARK VINA RESULT:      -7.7      0.745      1.521
REMARK  Name = 
REMARK  5 active torsions:
REMARK  status: ('A' for Active; 'I' for Inactive)
REMARK    1  A    between atoms: C_1  and  O_2
REMARK    2  A    between atoms: O_2  and  C_3
REMARK    3  A    between atoms: C_3  and  C_5
REMARK    4  A    between atoms: C_8  and  C_9
REMARK    5  A    between atoms: C_15  and  C_16
REMARK                            x       y       z     vdW  Elec       q    Type
REMARK                         _______ _______ _______ _____ _____    ______ ____
ROOT
ATOM      1  C   UNL     1       3.518   5.878  19.092  0.00  0.00    +0.000 C 
ATOM      2  O   UNL     1       4.659   5.949  19.545  0.00  0.00    +0.000 OA
ATOM      3  N   UNL     1       3.103   4.804  18.312  0.00  0.00    +0.000 N 
ATOM      4  C   UNL     1       1.750   4.418  17.947  0.00  0.00    +0.000 C 
ATOM      5  C   UNL     1       1.755   2.904  18.007  0.00  0.00    +0.000 C 
ATOM      6  C   UNL     1       3.172   2.518  17.606  0.00  0.00    +0.000 C 
ATOM      7  C   UNL     1       4.044   3.726  18.003  0.00  0.00    +0.000 C 
ENDROOT
BRANCH   7   8
ATOM      8  C   UNL     1       5.011   4.102  16.890  0.00  0.00    +0.000 A 
ATOM      9  C   UNL     1       4.595   4.161  15.547  0.00  0.00    +0.000 A 
ATOM     10  C   UNL     1       5.501   4.472  14.533  0.00  0.00    +0.000 A 
ATOM     11  C   UNL     1       6.825   4.733  14.856  0.00  0.00    +0.000 A 
ATOM     12  F   UNL     1       7.696   5.022  13.880  0.00  0.00    +0.000 F 
ATOM     13  C   UNL     1       7.259   4.695  16.175  0.00  0.00    +0.000 A 
ATOM     14  C   UNL     1       6.353   4.383  17.191  0.00  0.00    +0.000 A 
ENDBRANCH   7   8
BRANCH   1  18
ATOM     15  C   UNL     1       0.814   9.114  20.025  0.00  0.00    +0.000 A 
ATOM     16  C   UNL     1       0.992   8.069  20.941  0.00  0.00    +0.000 A 
ATOM     17  C   UNL     1       1.834   6.994  20.641  0.00  0.00    +0.000 A 
ATOM     18  C   UNL     1       2.569   6.979  19.452  0.00  0.00    +0.000 A 
ATOM     19  C   UNL     1       2.373   8.017  18.526  0.00  0.00    +0.000 A 
ATOM     20  C   UNL     1       1.499   9.076  18.805  0.00  0.00    +0.000 A 
BRANCH  15  21
ATOM     21  C   UNL     1      -0.121  10.211  20.394  0.00  0.00    +0.000 C 
ATOM     22  O   UNL     1      -0.705  10.894  19.564  0.00  0.00    +0.000 OA
BRANCH  21  24
ATOM     23  C   UNL     1      -1.064  11.417  22.147  0.00  0.00    +0.000 C 
ATOM     24  O   UNL     1      -0.214  10.344  21.735  0.00  0.00    +0.000 OA
ENDBRANCH  21  24
ENDBRANCH  15  21
ENDBRANCH   1  18
TORSDOF 4
ENDMDL
MODEL 7
REMARK VINA RESULT:      -6.8      3.558      8.466
REMARK  Name = 
REMARK  5 active torsions:
REMARK  status: ('A' for Active; 'I' for Inactive)
REMARK    1  A    between atoms: C_1  and  O_2
REMARK    2  A    between atoms: O_2  and  C_3
REMARK    3  A    between atoms: C_3  and  C_5
REMARK    4  A    between atoms: C_8  and  C_9
REMARK    5  A    between atoms: C_15  and  C_16
REMARK                            x       y       z     vdW  Elec       q    Type
REMARK                         _______ _______ _______ _____ _____    ______ ____
ROOT
ATOM      1  C   UNL     1       1.177   9.019  19.545  0.00  0.00    +0.000 C 
ATOM      2  O   UNL     1       0.415   8.835  20.493  0.00  0.00    +0.000 OA
ATOM      3  N   UNL     1       1.218  10.229  18.861  0.00  0.00    +0.000 N 
ATOM      4  C   UNL     1       2.227  10.712  17.934  0.00  0.00    +0.000 C 
ATOM      5  C   UNL     1       2.357  12.189  18.247  0.00  0.00    +0.000 C 
ATOM      6  C   UNL     1       0.962  12.602  18.690  0.00  0.00    +0.000 C 
ATOM      7  C   UNL     1       0.325  11.318  19.260  0.00  0.00    +0.000 C 
ENDROOT
BRANCH   7   8
ATOM      8  C   UNL     1      -1.093  11.125  18.743  0.00  0.00    +0.000 A 
ATOM      9  C   UNL     1      -1.385  10.180  17.741  0.00  0.00    +0.000 A 
ATOM     10  C   UNL     1      -2.684  10.039  17.251  0.00  0.00    +0.000 A 
ATOM     11  C   UNL     1      -3.698  10.836  17.764  0.00  0.00    +0.000 A 
ATOM     12  F   UNL     1      -4.942  10.707  17.286  0.00  0.00    +0.000 F 
ATOM     13  C   UNL     1      -3.439  11.767  18.762  0.00  0.00    +0.000 A 
ATOM     14  C   UNL     1      -2.139  11.910  19.253  0.00  0.00    +0.000 A 
ENDBRANCH   7   8
BRANCH   1  18
ATOM     15  C   UNL     1       3.814   5.731  18.607  0.00  0.00    +0.000 A 
ATOM     16  C   UNL     1       3.676   6.792  17.704  0.00  0.00    +0.000 A 
ATOM     17  C   UNL     1       2.799   7.847  17.973  0.00  0.00    +0.000 A 
ATOM     18  C   UNL     1       2.099   7.897  19.182  0.00  0.00    +0.000 A 
ATOM     19  C   UNL     1       2.222   6.821  20.076  0.00  0.00    +0.000 A 
ATOM     20  C   UNL     1       3.069   5.741  19.792  0.00  0.00    +0.000 A 
BRANCH  15  21
ATOM     21  C   UNL     1       4.740   4.624  18.245  0.00  0.00    +0.000 C 
ATOM     22  O   UNL     1       5.586   4.185  19.013  0.00  0.00    +0.000 OA
BRANCH  21  24
ATOM     23  C   UNL     1       5.717   4.101  16.197  0.00  0.00    +0.000 C 
ATOM     24  O   UNL     1       4.525   4.200  16.980  0.00  0.00    +0.000 OA
ENDBRANCH  21  24
ENDBRANCH  15  21
ENDBRANCH   1  18
TORSDOF 4
ENDMDL
MODEL 8
REMARK VINA RESULT:      -6.7      3.751      8.424
REMARK  Name = 
REMARK  5 active torsions:
REMARK  status: ('A' for Active; 'I' for Inactive)
REMARK    1  A    between atoms: C_1  and  O_2
REMARK    2  A    between atoms: O_2  and  C_3
REMARK    3  A    between atoms: C_3  and  C_5
REMARK    4  A    between atoms: C_8  and  C_9
REMARK    5  A    between atoms: C_15  and  C_16
REMARK                            x       y       z     vdW  Elec       q    Type
REMARK                         _______ _______ _______ _____ _____    ______ ____
ROOT
ATOM      1  C   UNL     1       1.114   9.104  19.607  0.00  0.00    +0.000 C 
ATOM      2  O   UNL     1       0.345   8.965  20.556  0.00  0.00    +0.000 OA
ATOM      3  N   UNL     1       1.183  10.291  18.886  0.00  0.00    +0.000 N 
ATOM      4  C   UNL     1       2.206  10.725  17.949  0.00  0.00    +0.000 C 
ATOM      5  C   UNL     1       2.366  12.208  18.218  0.00  0.00    +0.000 C 
ATOM      6  C   UNL     1       0.977  12.663  18.643  0.00  0.00    +0.000 C 
ATOM      7  C   UNL     1       0.312  11.411  19.248  0.00  0.00    +0.000 C 
ENDROOT
BRANCH   7   8
ATOM      8  C   UNL     1      -1.108  11.232  18.732  0.00  0.00    +0.000 A 
ATOM      9  C   UNL     1      -2.172  12.007  19.231  0.00  0.00    +0.000 A 
ATOM     10  C   UNL     1      -3.475  11.808  18.775  0.00  0.00    +0.000 A 
ATOM     11  C   UNL     1      -3.721  10.838  17.813  0.00  0.00    +0.000 A 
ATOM     12  F   UNL     1      -4.974  10.640  17.383  0.00  0.00    +0.000 F 
ATOM     13  C   UNL     1      -2.687  10.068  17.295  0.00  0.00    +0.000 A 
ATOM     14  C   UNL     1      -1.382  10.266  17.751  0.00  0.00    +0.000 A 
ENDBRANCH   7   8
BRANCH   1  18
ATOM     15  C   UNL     1       3.685   5.735  18.779  0.00  0.00    +0.000 A 
ATOM     16  C   UNL     1       3.565   6.766  17.839  0.00  0.00    +0.000 A 
ATOM     17  C   UNL     1       2.709   7.846  18.072  0.00  0.00    +0.000 A 
ATOM     18  C   UNL     1       2.013   7.952  19.280  0.00  0.00    +0.000 A 
ATOM     19  C   UNL     1       2.119   6.906  20.212  0.00  0.00    +0.000 A 
ATOM     20  C   UNL     1       2.944   5.801  19.964  0.00  0.00    +0.000 A 
BRANCH  15  21
ATOM     21  C   UNL     1       4.589   4.598  18.453  0.00  0.00    +0.000 C 
ATOM     22  O   UNL     1       5.585   4.330  19.112  0.00  0.00    +0.000 OA
BRANCH  21  24
ATOM     23  C   UNL     1       3.317   2.826  17.640  0.00  0.00    +0.000 C 
ATOM     24  O   UNL     1       4.168   3.938  17.352  0.00  0.00    +0.000 OA
ENDBRANCH  21  24
ENDBRANCH  15  21
ENDBRANCH   1  18
TORSDOF 4
ENDMDL
MODEL 9
REMARK VINA RESULT:      -6.7      3.399      6.041
REMARK  Name = 
REMARK  5 active torsions:
REMARK  status: ('A' for Active; 'I' for Inactive)
REMARK    1  A    between atoms: C_1  and  O_2
REMARK    2  A    between atoms: O_2  and  C_3
REMARK    3  A    between atoms: C_3  and  C_5
REMARK    4  A    between atoms: C_8  and  C_9
REMARK    5  A    between atoms: C_15  and  C_16
REMARK                            x       y       z     vdW  Elec       q    Type
REMARK                         _______ _______ _______ _____ _____    ______ ____
ROOT
ATOM      1  C   UNL     1      -0.137  10.025  19.048  0.00  0.00    +0.000 C 
ATOM      2  O   UNL     1       0.751  10.207  18.217  0.00  0.00    +0.000 OA
ATOM      3  N   UNL     1       0.124   9.453  20.288  0.00  0.00    +0.000 N 
ATOM      4  C   UNL     1      -0.718   9.430  21.471  0.00  0.00    +0.000 C 
ATOM      5  C   UNL     1       0.242   9.618  22.628  0.00  0.00    +0.000 C 
ATOM      6  C   UNL     1       1.526   8.948  22.160  0.00  0.00    +0.000 C 
ATOM      7  C   UNL     1       1.488   9.037  20.622  0.00  0.00    +0.000 C 
ENDROOT
BRANCH   7   8
ATOM      8  C   UNL     1       1.863   7.710  19.980  0.00  0.00    +0.000 A 
ATOM      9  C   UNL     1       1.596   6.485  20.620  0.00  0.00    +0.000 A 
ATOM     10  C   UNL     1       1.978   5.277  20.036  0.00  0.00    +0.000 A 
ATOM     11  C   UNL     1       2.623   5.286  18.807  0.00  0.00    +0.000 A 
ATOM     12  F   UNL     1       2.998   4.126  18.251  0.00  0.00    +0.000 F 
ATOM     13  C   UNL     1       2.887   6.480  18.148  0.00  0.00    +0.000 A 
ATOM     14  C   UNL     1       2.505   7.690  18.731  0.00  0.00    +0.000 A 
ENDBRANCH   7   8
BRANCH   1  18
ATOM     15  C   UNL     1      -4.117  11.273  17.929  0.00  0.00    +0.000 A 
ATOM     16  C   UNL     1      -3.394  12.015  18.872  0.00  0.00    +0.000 A 
ATOM     17  C   UNL     1      -2.119  11.606  19.274  0.00  0.00    +0.000 A 
ATOM     18  C   UNL     1      -1.514  10.490  18.689  0.00  0.00    +0.000 A 
ATOM     19  C   UNL     1      -2.249   9.735  17.760  0.00  0.00    +0.000 A 
ATOM     20  C   UNL     1      -3.544  10.119  17.384  0.00  0.00    +0.000 A 
BRANCH  15  21
ATOM     21  C   UNL     1      -5.481  11.746  17.568  0.00  0.00    +0.000 C 
ATOM     22  O   UNL     1      -5.681  12.733  16.873  0.00  0.00    +0.000 OA
BRANCH  21  24
ATOM     23  C   UNL     1      -7.188  11.602  19.144  0.00  0.00    +0.000 C 
ATOM     24  O   UNL     1      -6.432  10.958  18.116  0.00  0.00    +0.000 OA
ENDBRANCH  21  24
ENDBRANCH  15  21
ENDBRANCH   1  18
TORSDOF 4
ENDMDL
