MODEL 1
REMARK VINA RESULT:      -6.7      0.000      0.000
REMARK  Name = 
REMARK  9 active torsions:
REMARK  status: ('A' for Active; 'I' for Inactive)
REMARK    1  A    between atoms: C_1  and  O_2
REMARK    2  A    between atoms: O_2  and  C_3
REMARK    3  A    between atoms: C_3  and  C_5
REMARK    4  A    between atoms: C_5  and  C_6
REMARK    5  A    between atoms: C_5  and  C_8
REMARK    6  A    between atoms: C_6  and  N_7
REMARK    7  A    between atoms: N_10  and  C_11
REMARK    8  A    between atoms: C_15  and  O_16
REMARK    9  A    between atoms: O_16  and  C_17
REMARK                            x       y       z     vdW  Elec       q    Type
REMARK                         _______ _______ _______ _____ _____    ______ ____
ROOT
ATOM      1  C   UNL     1       4.619   4.948  17.094  0.00  0.00    +0.000 A 
ATOM      2  C   UNL     1       4.581   3.565  17.044  0.00  0.00    +0.000 A 
ATOM      3  N   UNL     1       3.677   3.125  17.971  0.00  0.00    +0.000 N 
ATOM      4  C   UNL     1       3.341   1.737  18.196  0.00  0.00    +0.000 C 
ATOM      5  C   UNL     1       3.124   4.190  18.646  0.00  0.00    +0.000 A 
ATOM      6  C   UNL     1       2.160   4.237  19.663  0.00  0.00    +0.000 A 
ATOM      7  C   UNL     1       1.785   5.489  20.168  0.00  0.00    +0.000 A 
ATOM      8  C   UNL     1       2.357   6.663  19.678  0.00  0.00    +0.000 A 
ATOM      9  C   UNL     1       3.311   6.596  18.653  0.00  0.00    +0.000 A 
ATOM     10  C   UNL     1       3.707   5.348  18.124  0.00  0.00    +0.000 A 
ENDROOT
BRANCH   8  11
ATOM     11  O   UNL     1       2.070   7.931  20.104  0.00  0.00    +0.000 OA
ATOM     12  C   UNL     1       1.119   8.061  21.153  0.00  0.00    +0.000 C 
ENDBRANCH   8  11
BRANCH   1  13
ATOM     13  C   UNL     1       5.442   5.862  16.214  0.00  0.00    +0.000 C 
BRANCH  13  14
ATOM     14  C   UNL     1       6.633   6.425  16.981  0.00  0.00    +0.000 C 
ATOM     15  O   UNL     1       7.014   7.591  16.935  0.00  0.00    +0.000 OA
BRANCH  14  17
ATOM     16  C   UNL     1       7.743   5.918  18.986  0.00  0.00    +0.000 C 
ATOM     17  O   UNL     1       7.225   5.455  17.739  0.00  0.00    +0.000 OA
ENDBRANCH  14  17
ENDBRANCH  13  14
BRANCH  13  18
ATOM     18  C   UNL     1       5.941   5.147  14.937  0.00  0.00    +0.000 C 
BRANCH  18  19
ATOM     19  N   UNL     1       7.387   5.285  14.710  0.00  0.00    +0.000 NA
ATOM     20  H   UNL     1       7.804   4.352  14.654  0.00  0.00    +0.000 HD
ATOM     21  H   UNL     1       7.811   5.731  15.523  0.00  0.00    +0.000 HD
ENDBRANCH  18  19
ENDBRANCH  13  18
ENDBRANCH   1  13
TORSDOF 6
ENDMDL
MODEL 2
REMARK VINA RESULT:      -6.6      1.123      1.430
REMARK  Name = 
REMARK  9 active torsions:
REMARK  status: ('A' for Active; 'I' for Inactive)
REMARK    1  A    between atoms: C_1  and  O_2
REMARK    2  A    between atoms: O_2  and  C_3
REMARK    3  A    between atoms: C_3  and  C_5
REMARK    4  A    between atoms: C_5  and  C_6
REMARK    5  A    between atoms: C_5  and  C_8
REMARK    6  A    between atoms: C_6  and  N_7
REMARK    7  A    between atoms: N_10  and  C_11
REMARK    8  A    between atoms: C_15  and  O_16
REMARK    9  A    between atoms: O_16  and  C_17
REMARK                            x       y       z     vdW  Elec       q    Type
REMARK                         _______ _______ _______ _____ _____    ______ ____
ROOT
ATOM      1  C   UNL     1       4.786   4.567  16.875  0.00  0.00    +0.000 A 
ATOM      2  C   UNL     1       4.703   3.209  17.125  0.00  0.00    +0.000 A 
ATOM      3  N   UNL     1       3.764   3.007  18.099  0.00  0.00    +0.000 N 
ATOM      4  C   UNL     1       3.377   1.711  18.610  0.00  0.00    +0.000 C 
ATOM      5  C   UNL     1       3.232   4.209  18.510  0.00  0.00    +0.000 A 
ATOM      6  C   UNL     1       2.248   4.503  19.464  0.00  0.00    +0.000 A 
ATOM      7  C   UNL     1       1.904   5.845  19.674  0.00  0.00    +0.000 A 
ATOM      8  C   UNL     1       2.526   6.867  18.958  0.00  0.00    +0.000 A 
ATOM      9  C   UNL     1       3.500   6.551  18.000  0.00  0.00    +0.000 A 
ATOM     10  C   UNL     1       3.865   5.208  17.766  0.00  0.00    +0.000 A 
ENDROOT
BRANCH   8  11
ATOM     11  O   UNL     1       2.273   8.206  19.090  0.00  0.00    +0.000 OA
ATOM     12  C   UNL     1       2.068   8.945  17.893  0.00  0.00    +0.000 C 
ENDBRANCH   8  11
BRANCH   1  13
ATOM     13  C   UNL     1       5.659   5.245  15.842  0.00  0.00    +0.000 C 
BRANCH  13  14
ATOM     14  C   UNL     1       7.096   5.362  16.338  0.00  0.00    +0.000 C 
ATOM     15  O   UNL     1       7.790   4.424  16.717  0.00  0.00    +0.000 OA
BRANCH  14  17
ATOM     16  C   UNL     1       7.457   7.333  17.560  0.00  0.00    +0.000 C 
ATOM     17  O   UNL     1       7.517   6.661  16.302  0.00  0.00    +0.000 OA
ENDBRANCH  14  17
ENDBRANCH  13  14
BRANCH  13  18
ATOM     18  C   UNL     1       5.640   4.501  14.487  0.00  0.00    +0.000 C 
BRANCH  18  19
ATOM     19  N   UNL     1       6.905   4.597  13.742  0.00  0.00    +0.000 NA
ATOM     20  H   UNL     1       7.609   5.036  14.341  0.00  0.00    +0.000 HD
ATOM     21  H   UNL     1       6.779   5.227  12.951  0.00  0.00    +0.000 HD
ENDBRANCH  18  19
ENDBRANCH  13  18
ENDBRANCH   1  13
TORSDOF 6
ENDMDL
MODEL 3
REMARK VINA RESULT:      -6.4      2.492      3.634
REMARK  Name = 
REMARK  9 active torsions:
REMARK  status: ('A' for Active; 'I' for Inactive)
REMARK    1  A    between atoms: C_1  and  O_2
REMARK    2  A    between atoms: O_2  and  C_3
REMARK    3  A    between atoms: C_3  and  C_5
REMARK    4  A    between atoms: C_5  and  C_6
REMARK    5  A    between atoms: C_5  and  C_8
REMARK    6  A    between atoms: C_6  and  N_7
REMARK    7  A    between atoms: N_10  and  C_11
REMARK    8  A    between atoms: C_15  and  O_16
REMARK    9  A    between atoms: O_16  and  C_17
REMARK                            x       y       z     vdW  Elec       q    Type
REMARK                         _______ _______ _______ _____ _____    ______ ____
ROOT
ATOM      1  C   UNL     1       5.197   5.712  18.042  0.00  0.00    +0.000 A 
ATOM      2  C   UNL     1       4.756   6.900  17.486  0.00  0.00    +0.000 A 
ATOM      3  N   UNL     1       3.510   7.172  17.982  0.00  0.00    +0.000 N 
ATOM      4  C   UNL     1       2.734   8.346  17.653  0.00  0.00    +0.000 C 
ATOM      5  C   UNL     1       3.111   6.178  18.848  0.00  0.00    +0.000 A 
ATOM      6  C   UNL     1       1.935   6.026  19.596  0.00  0.00    +0.000 A 
ATOM      7  C   UNL     1       1.804   4.891  20.406  0.00  0.00    +0.000 A 
ATOM      8  C   UNL     1       2.813   3.930  20.467  0.00  0.00    +0.000 A 
ATOM      9  C   UNL     1       3.986   4.106  19.719  0.00  0.00    +0.000 A 
ATOM     10  C   UNL     1       4.146   5.241  18.896  0.00  0.00    +0.000 A 
ENDROOT
BRANCH   8  11
ATOM     11  O   UNL     1       2.784   2.785  21.216  0.00  0.00    +0.000 OA
ATOM     12  C   UNL     1       1.551   2.454  21.842  0.00  0.00    +0.000 C 
ENDBRANCH   8  11
BRANCH   1  13
ATOM     13  C   UNL     1       6.538   5.051  17.817  0.00  0.00    +0.000 C 
BRANCH  13  14
ATOM     14  C   UNL     1       6.871   4.990  16.331  0.00  0.00    +0.000 C 
ATOM     15  O   UNL     1       7.578   5.796  15.733  0.00  0.00    +0.000 OA
BRANCH  14  17
ATOM     16  C   UNL     1       6.168   3.997  14.324  0.00  0.00    +0.000 C 
ATOM     17  O   UNL     1       6.277   3.909  15.744  0.00  0.00    +0.000 OA
ENDBRANCH  14  17
ENDBRANCH  13  14
BRANCH  13  18
ATOM     18  C   UNL     1       7.677   5.775  18.572  0.00  0.00    +0.000 C 
BRANCH  18  19
ATOM     19  N   UNL     1       7.681   5.521  20.020  0.00  0.00    +0.000 NA
ATOM     20  H   UNL     1       8.452   4.888  20.244  0.00  0.00    +0.000 HD
ATOM     21  H   UNL     1       6.828   5.024  20.274  0.00  0.00    +0.000 HD
ENDBRANCH  18  19
ENDBRANCH  13  18
ENDBRANCH   1  13
TORSDOF 6
ENDMDL
MODEL 4
REMARK VINA RESULT:      -6.4      2.620      5.938
REMARK  Name = 
REMARK  9 active torsions:
REMARK  status: ('A' for Active; 'I' for Inactive)
REMARK    1  A    between atoms: C_1  and  O_2
REMARK    2  A    between atoms: O_2  and  C_3
REMARK    3  A    between atoms: C_3  and  C_5
REMARK    4  A    between atoms: C_5  and  C_6
REMARK    5  A    between atoms: C_5  and  C_8
REMARK    6  A    between atoms: C_6  and  N_7
REMARK    7  A    between atoms: N_10  and  C_11
REMARK    8  A    between atoms: C_15  and  O_16
REMARK    9  A    between atoms: O_16  and  C_17
REMARK                            x       y       z     vdW  Elec       q    Type
REMARK                         _______ _______ _______ _____ _____    ______ ____
ROOT
ATOM      1  C   UNL     1       4.275   5.164  18.321  0.00  0.00    +0.000 A 
ATOM      2  C   UNL     1       5.185   5.434  19.328  0.00  0.00    +0.000 A 
ATOM      3  N   UNL     1       6.445   5.358  18.802  0.00  0.00    +0.000 N 
ATOM      4  C   UNL     1       7.661   5.605  19.545  0.00  0.00    +0.000 C 
ATOM      5  C   UNL     1       6.389   5.029  17.466  0.00  0.00    +0.000 A 
ATOM      6  C   UNL     1       7.406   4.848  16.518  0.00  0.00    +0.000 A 
ATOM      7  C   UNL     1       7.042   4.510  15.208  0.00  0.00    +0.000 A 
ATOM      8  C   UNL     1       5.704   4.350  14.852  0.00  0.00    +0.000 A 
ATOM      9  C   UNL     1       4.701   4.545  15.812  0.00  0.00    +0.000 A 
ATOM     10  C   UNL     1       5.038   4.889  17.139  0.00  0.00    +0.000 A 
ENDROOT
BRANCH   8  11
ATOM     11  O   UNL     1       5.241   4.013  13.608  0.00  0.00    +0.000 OA
ATOM     12  C   UNL     1       6.194   3.518  12.677  0.00  0.00    +0.000 C 
ENDBRANCH   8  11
BRANCH   1  13
ATOM     13  C   UNL     1       2.767   5.183  18.435  0.00  0.00    +0.000 C 
BRANCH  13  14
ATOM     14  C   UNL     1       2.196   3.775  18.317  0.00  0.00    +0.000 C 
ATOM     15  O   UNL     1       1.181   3.476  17.697  0.00  0.00    +0.000 OA
BRANCH  14  17
ATOM     16  C   UNL     1       3.272   1.690  18.260  0.00  0.00    +0.000 C 
ATOM     17  O   UNL     1       2.973   2.878  18.993  0.00  0.00    +0.000 OA
ENDBRANCH  14  17
ENDBRANCH  13  14
BRANCH  13  18
ATOM     18  C   UNL     1       2.292   5.824  19.759  0.00  0.00    +0.000 C 
BRANCH  18  19
ATOM     19  N   UNL     1       1.486   4.922  20.596  0.00  0.00    +0.000 NA
ATOM     20  H   UNL     1       0.916   4.329  19.989  0.00  0.00    +0.000 HD
ATOM     21  H   UNL     1       0.828   5.475  21.144  0.00  0.00    +0.000 HD
ENDBRANCH  18  19
ENDBRANCH  13  18
ENDBRANCH   1  13
TORSDOF 6
ENDMDL
MODEL 5
REMARK VINA RESULT:      -6.4      1.559      1.911
REMARK  Name = 
REMARK  9 active torsions:
REMARK  status: ('A' for Active; 'I' for Inactive)
REMARK    1  A    between atoms: C_1  and  O_2
REMARK    2  A    between atoms: O_2  and  C_3
REMARK    3  A    between atoms: C_3  and  C_5
REMARK    4  A    between atoms: C_5  and  C_6
REMARK    5  A    between atoms: C_5  and  C_8
REMARK    6  A    between atoms: C_6  and  N_7
REMARK    7  A    between atoms: N_10  and  C_11
REMARK    8  A    between atoms: C_15  and  O_16
REMARK    9  A    between atoms: O_16  and  C_17
REMARK                            x       y       z     vdW  Elec       q    Type
REMARK                         _______ _______ _______ _____ _____    ______ ____
ROOT
ATOM      1  C   UNL     1       4.712   4.811  17.435  0.00  0.00    +0.000 A 
ATOM      2  C   UNL     1       4.597   3.719  18.277  0.00  0.00    +0.000 A 
ATOM      3  N   UNL     1       3.715   4.034  19.274  0.00  0.00    +0.000 N 
ATOM      4  C   UNL     1       3.315   3.133  20.332  0.00  0.00    +0.000 C 
ATOM      5  C   UNL     1       3.252   5.321  19.116  0.00  0.00    +0.000 A 
ATOM      6  C   UNL     1       2.340   6.072  19.872  0.00  0.00    +0.000 A 
ATOM      7  C   UNL     1       2.056   7.382  19.464  0.00  0.00    +0.000 A 
ATOM      8  C   UNL     1       2.667   7.932  18.338  0.00  0.00    +0.000 A 
ATOM      9  C   UNL     1       3.568   7.162  17.589  0.00  0.00    +0.000 A 
ATOM     10  C   UNL     1       3.871   5.838  17.975  0.00  0.00    +0.000 A 
ENDROOT
BRANCH   8  11
ATOM     11  O   UNL     1       2.469   9.199  17.858  0.00  0.00    +0.000 OA
ATOM     12  C   UNL     1       1.370   9.926  18.390  0.00  0.00    +0.000 C 
ENDBRANCH   8  11
BRANCH   1  13
ATOM     13  C   UNL     1       5.542   4.897  16.174  0.00  0.00    +0.000 C 
BRANCH  13  14
ATOM     14  C   UNL     1       6.955   5.376  16.485  0.00  0.00    +0.000 C 
ATOM     15  O   UNL     1       7.907   4.645  16.738  0.00  0.00    +0.000 OA
BRANCH  14  17
ATOM     16  C   UNL     1       7.590   7.337  17.608  0.00  0.00    +0.000 C 
ATOM     17  O   UNL     1       7.026   6.740  16.441  0.00  0.00    +0.000 OA
ENDBRANCH  14  17
ENDBRANCH  13  14
BRANCH  13  18
ATOM     18  C   UNL     1       5.608   3.545  15.428  0.00  0.00    +0.000 C 
BRANCH  18  19
ATOM     19  N   UNL     1       6.413   3.587  14.198  0.00  0.00    +0.000 NA
ATOM     20  H   UNL     1       5.802   3.810  13.409  0.00  0.00    +0.000 HD
ATOM     21  H   UNL     1       6.784   2.656  14.011  0.00  0.00    +0.000 HD
ENDBRANCH  18  19
ENDBRANCH  13  18
ENDBRANCH   1  13
TORSDOF 6
ENDMDL
MODEL 6
REMARK VINA RESULT:      -6.3      2.623      5.894
REMARK  Name = 
REMARK  9 active torsions:
REMARK  status: ('A' for Active; 'I' for Inactive)
REMARK    1  A    between atoms: C_1  and  O_2
REMARK    2  A    between atoms: O_2  and  C_3
REMARK    3  A    between atoms: C_3  and  C_5
REMARK    4  A    between atoms: C_5  and  C_6
REMARK    5  A    between atoms: C_5  and  C_8
REMARK    6  A    between atoms: C_6  and  N_7
REMARK    7  A    between atoms: N_10  and  C_11
REMARK    8  A    between atoms: C_15  and  O_16
REMARK    9  A    between atoms: O_16  and  C_17
REMARK                            x       y       z     vdW  Elec       q    Type
REMARK                         _______ _______ _______ _____ _____    ______ ____
ROOT
ATOM      1  C   UNL     1       2.903   4.274  18.625  0.00  0.00    +0.000 A 
ATOM      2  C   UNL     1       2.286   5.419  19.098  0.00  0.00    +0.000 A 
ATOM      3  N   UNL     1       2.804   6.494  18.430  0.00  0.00    +0.000 N 
ATOM      4  C   UNL     1       2.387   7.864  18.631  0.00  0.00    +0.000 C 
ATOM      5  C   UNL     1       3.764   6.085  17.531  0.00  0.00    +0.000 A 
ATOM      6  C   UNL     1       4.553   6.813  16.630  0.00  0.00    +0.000 A 
ATOM      7  C   UNL     1       5.463   6.114  15.826  0.00  0.00    +0.000 A 
ATOM      8  C   UNL     1       5.589   4.728  15.920  0.00  0.00    +0.000 A 
ATOM      9  C   UNL     1       4.783   4.017  16.820  0.00  0.00    +0.000 A 
ATOM     10  C   UNL     1       3.856   4.695  17.641  0.00  0.00    +0.000 A 
ENDROOT
BRANCH   8  11
ATOM     11  O   UNL     1       6.448   3.951  15.192  0.00  0.00    +0.000 OA
ATOM     12  C   UNL     1       6.206   3.856  13.794  0.00  0.00    +0.000 C 
ENDBRANCH   8  11
BRANCH   1  13
ATOM     13  C   UNL     1       2.609   2.850  19.043  0.00  0.00    +0.000 C 
BRANCH  13  14
ATOM     14  C   UNL     1       1.127   2.669  19.349  0.00  0.00    +0.000 C 
ATOM     15  O   UNL     1       0.279   2.309  18.539  0.00  0.00    +0.000 OA
BRANCH  14  17
ATOM     16  C   UNL     1       1.882   2.546  21.568  0.00  0.00    +0.000 C 
ATOM     17  O   UNL     1       0.863   2.958  20.658  0.00  0.00    +0.000 OA
ENDBRANCH  14  17
ENDBRANCH  13  14
BRANCH  13  18
ATOM     18  C   UNL     1       3.044   1.827  17.969  0.00  0.00    +0.000 C 
BRANCH  18  19
ATOM     19  N   UNL     1       3.990   0.816  18.465  0.00  0.00    +0.000 NA
ATOM     20  H   UNL     1       4.673   1.272  19.073  0.00  0.00    +0.000 HD
ATOM     21  H   UNL     1       4.520   0.442  17.678  0.00  0.00    +0.000 HD
ENDBRANCH  18  19
ENDBRANCH  13  18
ENDBRANCH   1  13
TORSDOF 6
ENDMDL
MODEL 7
REMARK VINA RESULT:      -6.3      2.417      5.867
REMARK  Name = 
REMARK  9 active torsions:
REMARK  status: ('A' for Active; 'I' for Inactive)
REMARK    1  A    between atoms: C_1  and  O_2
REMARK    2  A    between atoms: O_2  and  C_3
REMARK    3  A    between atoms: C_3  and  C_5
REMARK    4  A    between atoms: C_5  and  C_6
REMARK    5  A    between atoms: C_5  and  C_8
REMARK    6  A    between atoms: C_6  and  N_7
REMARK    7  A    between atoms: N_10  and  C_11
REMARK    8  A    between atoms: C_15  and  O_16
REMARK    9  A    between atoms: O_16  and  C_17
REMARK                            x       y       z     vdW  Elec       q    Type
REMARK                         _______ _______ _______ _____ _____    ______ ____
ROOT
ATOM      1  C   UNL     1       4.672   4.185  18.410  0.00  0.00    +0.000 A 
ATOM      2  C   UNL     1       5.569   4.717  19.319  0.00  0.00    +0.000 A 
ATOM      3  N   UNL     1       6.652   5.190  18.631  0.00  0.00    +0.000 N 
ATOM      4  C   UNL     1       7.789   5.844  19.238  0.00  0.00    +0.000 C 
ATOM      5  C   UNL     1       6.496   4.969  17.280  0.00  0.00    +0.000 A 
ATOM      6  C   UNL     1       7.325   5.281  16.194  0.00  0.00    +0.000 A 
ATOM      7  C   UNL     1       6.899   4.926  14.907  0.00  0.00    +0.000 A 
ATOM      8  C   UNL     1       5.683   4.274  14.707  0.00  0.00    +0.000 A 
ATOM      9  C   UNL     1       4.863   3.979  15.806  0.00  0.00    +0.000 A 
ATOM     10  C   UNL     1       5.266   4.327  17.113  0.00  0.00    +0.000 A 
ENDROOT
BRANCH   8  11
ATOM     11  O   UNL     1       5.177   3.876  13.499  0.00  0.00    +0.000 OA
ATOM     12  C   UNL     1       6.112   3.446  12.518  0.00  0.00    +0.000 C 
ENDBRANCH   8  11
BRANCH   1  13
ATOM     13  C   UNL     1       3.315   3.593  18.718  0.00  0.00    +0.000 C 
BRANCH  13  14
ATOM     14  C   UNL     1       2.199   4.511  18.232  0.00  0.00    +0.000 C 
ATOM     15  O   UNL     1       1.423   4.254  17.316  0.00  0.00    +0.000 OA
BRANCH  14  17
ATOM     16  C   UNL     1       1.912   5.482  20.349  0.00  0.00    +0.000 C 
ATOM     17  O   UNL     1       2.172   5.667  18.958  0.00  0.00    +0.000 OA
ENDBRANCH  14  17
ENDBRANCH  13  14
BRANCH  13  18
ATOM     18  C   UNL     1       3.137   2.189  18.095  0.00  0.00    +0.000 C 
BRANCH  18  19
ATOM     19  N   UNL     1       1.850   1.557  18.420  0.00  0.00    +0.000 NA
ATOM     20  H   UNL     1       1.906   1.156  19.359  0.00  0.00    +0.000 HD
ATOM     21  H   UNL     1       1.696   0.770  17.790  0.00  0.00    +0.000 HD
ENDBRANCH  18  19
ENDBRANCH  13  18
ENDBRANCH   1  13
TORSDOF 6
ENDMDL
MODEL 8
REMARK VINA RESULT:      -6.2      2.116      2.748
REMARK  Name = 
REMARK  9 active torsions:
REMARK  status: ('A' for Active; 'I' for Inactive)
REMARK    1  A    between atoms: C_1  and  O_2
REMARK    2  A    between atoms: O_2  and  C_3
REMARK    3  A    between atoms: C_3  and  C_5
REMARK    4  A    between atoms: C_5  and  C_6
REMARK    5  A    between atoms: C_5  and  C_8
REMARK    6  A    between atoms: C_6  and  N_7
REMARK    7  A    between atoms: N_10  and  C_11
REMARK    8  A    between atoms: C_15  and  O_16
REMARK    9  A    between atoms: O_16  and  C_17
REMARK                            x       y       z     vdW  Elec       q    Type
REMARK                         _______ _______ _______ _____ _____    ______ ____
ROOT
ATOM      1  C   UNL     1       5.612   4.487  18.532  0.00  0.00    +0.000 A 
ATOM      2  C   UNL     1       5.150   3.344  19.160  0.00  0.00    +0.000 A 
ATOM      3  N   UNL     1       3.809   3.489  19.386  0.00  0.00    +0.000 N 
ATOM      4  C   UNL     1       2.967   2.487  20.001  0.00  0.00    +0.000 C 
ATOM      5  C   UNL     1       3.374   4.713  18.930  0.00  0.00    +0.000 A 
ATOM      6  C   UNL     1       2.100   5.299  18.933  0.00  0.00    +0.000 A 
ATOM      7  C   UNL     1       1.957   6.583  18.391  0.00  0.00    +0.000 A 
ATOM      8  C   UNL     1       3.051   7.268  17.865  0.00  0.00    +0.000 A 
ATOM      9  C   UNL     1       4.315   6.661  17.862  0.00  0.00    +0.000 A 
ATOM     10  C   UNL     1       4.489   5.368  18.399  0.00  0.00    +0.000 A 
ENDROOT
BRANCH   8  11
ATOM     11  O   UNL     1       3.023   8.524  17.322  0.00  0.00    +0.000 OA
ATOM     12  C   UNL     1       2.024   9.414  17.803  0.00  0.00    +0.000 C 
ENDBRANCH   8  11
BRANCH   1  13
ATOM     13  C   UNL     1       7.022   4.748  18.051  0.00  0.00    +0.000 C 
BRANCH  13  14
ATOM     14  C   UNL     1       7.033   5.101  16.568  0.00  0.00    +0.000 C 
ATOM     15  O   UNL     1       7.431   6.162  16.099  0.00  0.00    +0.000 OA
BRANCH  14  17
ATOM     16  C   UNL     1       6.443   4.350  14.424  0.00  0.00    +0.000 C 
ATOM     17  O   UNL     1       6.542   4.069  15.820  0.00  0.00    +0.000 OA
ENDBRANCH  14  17
ENDBRANCH  13  14
BRANCH  13  18
ATOM     18  C   UNL     1       7.712   5.874  18.855  0.00  0.00    +0.000 C 
BRANCH  18  19
ATOM     19  N   UNL     1       7.940   5.537  20.268  0.00  0.00    +0.000 NA
ATOM     20  H   UNL     1       8.715   4.873  20.329  0.00  0.00    +0.000 HD
ATOM     21  H   UNL     1       7.122   5.047  20.630  0.00  0.00    +0.000 HD
ENDBRANCH  18  19
ENDBRANCH  13  18
ENDBRANCH   1  13
TORSDOF 6
ENDMDL
MODEL 9
REMARK VINA RESULT:      -6.2      2.697      6.138
REMARK  Name = 
REMARK  9 active torsions:
REMARK  status: ('A' for Active; 'I' for Inactive)
REMARK    1  A    between atoms: C_1  and  O_2
REMARK    2  A    between atoms: O_2  and  C_3
REMARK    3  A    between atoms: C_3  and  C_5
REMARK    4  A    between atoms: C_5  and  C_6
REMARK    5  A    between atoms: C_5  and  C_8
REMARK    6  A    between atoms: C_6  and  N_7
REMARK    7  A    between atoms: N_10  and  C_11
REMARK    8  A    between atoms: C_15  and  O_16
REMARK    9  A    between atoms: O_16  and  C_17
REMARK                            x       y       z     vdW  Elec       q    Type
REMARK                         _______ _______ _______ _____ _____    ______ ____
ROOT
ATOM      1  C   UNL     1       4.439   4.953  18.271  0.00  0.00    +0.000 A 
ATOM      2  C   UNL     1       5.373   5.323  19.223  0.00  0.00    +0.000 A 
ATOM      3  N   UNL     1       6.597   5.402  18.618  0.00  0.00    +0.000 N 
ATOM      4  C   UNL     1       7.820   5.789  19.287  0.00  0.00    +0.000 C 
ATOM      5  C   UNL     1       6.495   5.077  17.284  0.00  0.00    +0.000 A 
ATOM      6  C   UNL     1       7.464   5.026  16.271  0.00  0.00    +0.000 A 
ATOM      7  C   UNL     1       7.060   4.654  14.982  0.00  0.00    +0.000 A 
ATOM      8  C   UNL     1       5.730   4.338  14.708  0.00  0.00    +0.000 A 
ATOM      9  C   UNL     1       4.775   4.405  15.732  0.00  0.00    +0.000 A 
ATOM     10  C   UNL     1       5.152   4.779  17.040  0.00  0.00    +0.000 A 
ENDROOT
BRANCH   8  11
ATOM     11  O   UNL     1       5.232   3.956  13.492  0.00  0.00    +0.000 OA
ATOM     12  C   UNL     1       6.166   3.471  12.536  0.00  0.00    +0.000 C 
ENDBRANCH   8  11
BRANCH   1  13
ATOM     13  C   UNL     1       2.950   4.791  18.479  0.00  0.00    +0.000 C 
BRANCH  13  14
ATOM     14  C   UNL     1       2.568   3.316  18.537  0.00  0.00    +0.000 C 
ATOM     15  O   UNL     1       3.286   2.418  18.964  0.00  0.00    +0.000 OA
BRANCH  14  17
ATOM     16  C   UNL     1       0.507   2.232  18.829  0.00  0.00    +0.000 C 
ATOM     17  O   UNL     1       1.306   3.123  18.051  0.00  0.00    +0.000 OA
ENDBRANCH  14  17
ENDBRANCH  13  14
BRANCH  13  18
ATOM     18  C   UNL     1       2.461   5.501  19.762  0.00  0.00    +0.000 C 
BRANCH  18  19
ATOM     19  N   UNL     1       2.158   4.581  20.869  0.00  0.00    +0.000 NA
ATOM     20  H   UNL     1       1.452   5.009  21.472  0.00  0.00    +0.000 HD
ATOM     21  H   UNL     1       2.990   4.470  21.447  0.00  0.00    +0.000 HD
ENDBRANCH  18  19
ENDBRANCH  13  18
ENDBRANCH   1  13
TORSDOF 6
ENDMDL
