MODEL 1
REMARK VINA RESULT:      -9.3      0.000      0.000
REMARK  Name = 
REMARK  6 active torsions:
REMARK  status: ('A' for Active; 'I' for Inactive)
REMARK    1  A    between atoms: C_1  and  P_2
REMARK    2  A    between atoms: P_2  and  C_3
REMARK    3  A    between atoms: P_2  and  N_5
REMARK    4  A    between atoms: N_5  and  C_6
REMARK    5  A    between atoms: C_9  and  N_10
REMARK    6  A    between atoms: N_10  and  C_11
REMARK                            x       y       z     vdW  Elec       q    Type
REMARK                         _______ _______ _______ _____ _____    ______ ____
ROOT
ATOM      1  N   UNL     1       3.317   6.354  19.917  0.00  0.00    +0.000 N 
ATOM      2  H   UNL     1       3.098   6.132  20.883  0.00  0.00    +0.000 HD
ENDROOT
BRANCH   1   3
ATOM      3  C   UNL     1       3.695   5.167  19.201  0.00  0.00    +0.000 A 
ATOM      4  C   UNL     1       4.481   5.206  18.015  0.00  0.00    +0.000 A 
ATOM      5  C   UNL     1       5.225   6.288  17.504  0.00  0.00    +0.000 A 
ATOM      6  C   UNL     1       6.000   6.171  16.348  0.00  0.00    +0.000 A 
ATOM      7  C   UNL     1       6.128   4.938  15.713  0.00  0.00    +0.000 A 
ATOM      8  C   UNL     1       5.350   3.872  16.175  0.00  0.00    +0.000 A 
ATOM      9  C   UNL     1       4.450   4.024  17.222  0.00  0.00    +0.000 A 
ATOM     10  N   UNL     1       3.487   3.127  17.391  0.00  0.00    +0.000 NA
ATOM     11  C   UNL     1       2.683   3.235  18.459  0.00  0.00    +0.000 A 
ATOM     12  C   UNL     1       1.337   2.931  18.422  0.00  0.00    +0.000 A 
ATOM     13  C   UNL     1       0.548   3.003  19.570  0.00  0.00    +0.000 A 
ATOM     14  C   UNL     1       1.178   3.155  20.798  0.00  0.00    +0.000 A 
ATOM     15  C   UNL     1       2.485   3.597  20.802  0.00  0.00    +0.000 A 
ATOM     16  C   UNL     1       3.074   3.949  19.567  0.00  0.00    +0.000 A 
ENDBRANCH   1   3
BRANCH   1  20
ATOM     17  C   UNL     1       0.879   9.689  18.790  0.00  0.00    +0.000 A 
ATOM     18  C   UNL     1       1.487   8.916  17.804  0.00  0.00    +0.000 A 
ATOM     19  C   UNL     1       2.250   7.760  18.133  0.00  0.00    +0.000 A 
ATOM     20  C   UNL     1       2.407   7.375  19.469  0.00  0.00    +0.000 A 
ATOM     21  C   UNL     1       1.641   8.056  20.429  0.00  0.00    +0.000 A 
ATOM     22  C   UNL     1       0.892   9.197  20.097  0.00  0.00    +0.000 A 
BRANCH  17  23
ATOM     23  N   UNL     1       0.494  11.038  18.538  0.00  0.00    +0.000 N 
ATOM     24  H   UNL     1       0.688  11.174  17.541  0.00  0.00    +0.000 HD
BRANCH  23  26
ATOM     25  C   UNL     1      -2.028  11.575  17.584  0.00  0.00    +0.000 C 
ATOM     26  P   UNL     1      -0.828  11.968  18.845  0.00  0.00    +0.000 P 
ATOM     27  C   UNL     1      -0.315  13.625  18.494  0.00  0.00    +0.000 C 
ATOM     28  O   UNL     1      -1.445  11.852  20.210  0.00  0.00    +0.000 OA
ENDBRANCH  23  26
ENDBRANCH  17  23
ENDBRANCH   1  20
TORSDOF 4
ENDMDL
MODEL 2
REMARK VINA RESULT:      -9.2      0.845      1.068
REMARK  Name = 
REMARK  6 active torsions:
REMARK  status: ('A' for Active; 'I' for Inactive)
REMARK    1  A    between atoms: C_1  and  P_2
REMARK    2  A    between atoms: P_2  and  C_3
REMARK    3  A    between atoms: P_2  and  N_5
REMARK    4  A    between atoms: N_5  and  C_6
REMARK    5  A    between atoms: C_9  and  N_10
REMARK    6  A    between atoms: N_10  and  C_11
REMARK                            x       y       z     vdW  Elec       q    Type
REMARK                         _______ _______ _______ _____ _____    ______ ____
ROOT
ATOM      1  N   UNL     1       3.281   6.333  19.988  0.00  0.00    +0.000 N 
ATOM      2  H   UNL     1       3.126   6.047  20.949  0.00  0.00    +0.000 HD
ENDROOT
BRANCH   1   3
ATOM      3  C   UNL     1       3.602   5.197  19.170  0.00  0.00    +0.000 A 
ATOM      4  C   UNL     1       4.267   5.317  17.917  0.00  0.00    +0.000 A 
ATOM      5  C   UNL     1       4.941   6.441  17.399  0.00  0.00    +0.000 A 
ATOM      6  C   UNL     1       5.600   6.405  16.169  0.00  0.00    +0.000 A 
ATOM      7  C   UNL     1       5.680   5.213  15.453  0.00  0.00    +0.000 A 
ATOM      8  C   UNL     1       4.967   4.107  15.926  0.00  0.00    +0.000 A 
ATOM      9  C   UNL     1       4.173   4.182  17.063  0.00  0.00    +0.000 A 
ATOM     10  N   UNL     1       3.243   3.259  17.273  0.00  0.00    +0.000 NA
ATOM     11  C   UNL     1       2.548   3.291  18.419  0.00  0.00    +0.000 A 
ATOM     12  C   UNL     1       1.209   2.963  18.496  0.00  0.00    +0.000 A 
ATOM     13  C   UNL     1       0.536   2.955  19.718  0.00  0.00    +0.000 A 
ATOM     14  C   UNL     1       1.283   3.049  20.886  0.00  0.00    +0.000 A 
ATOM     15  C   UNL     1       2.578   3.515  20.788  0.00  0.00    +0.000 A 
ATOM     16  C   UNL     1       3.038   3.948  19.523  0.00  0.00    +0.000 A 
ENDBRANCH   1   3
BRANCH   1  20
ATOM     17  C   UNL     1       0.764   9.729  19.305  0.00  0.00    +0.000 A 
ATOM     18  C   UNL     1       1.425   9.135  18.233  0.00  0.00    +0.000 A 
ATOM     19  C   UNL     1       2.216   7.965  18.405  0.00  0.00    +0.000 A 
ATOM     20  C   UNL     1       2.350   7.384  19.671  0.00  0.00    +0.000 A 
ATOM     21  C   UNL     1       1.535   7.887  20.699  0.00  0.00    +0.000 A 
ATOM     22  C   UNL     1       0.757   9.043  20.521  0.00  0.00    +0.000 A 
BRANCH  17  23
ATOM     23  N   UNL     1       0.341  11.089  19.249  0.00  0.00    +0.000 N 
ATOM     24  H   UNL     1       1.131  11.582  18.820  0.00  0.00    +0.000 HD
BRANCH  23  26
ATOM     25  C   UNL     1      -1.934  12.323  20.181  0.00  0.00    +0.000 C 
ATOM     26  P   UNL     1      -0.996  11.892  18.725  0.00  0.00    +0.000 P 
ATOM     27  C   UNL     1      -1.969  10.670  17.894  0.00  0.00    +0.000 C 
ATOM     28  O   UNL     1      -0.773  13.105  17.867  0.00  0.00    +0.000 OA
ENDBRANCH  23  26
ENDBRANCH  17  23
ENDBRANCH   1  20
TORSDOF 4
ENDMDL
MODEL 3
REMARK VINA RESULT:      -9.2      0.887      1.053
REMARK  Name = 
REMARK  6 active torsions:
REMARK  status: ('A' for Active; 'I' for Inactive)
REMARK    1  A    between atoms: C_1  and  P_2
REMARK    2  A    between atoms: P_2  and  C_3
REMARK    3  A    between atoms: P_2  and  N_5
REMARK    4  A    between atoms: N_5  and  C_6
REMARK    5  A    between atoms: C_9  and  N_10
REMARK    6  A    between atoms: N_10  and  C_11
REMARK                            x       y       z     vdW  Elec       q    Type
REMARK                         _______ _______ _______ _____ _____    ______ ____
ROOT
ATOM      1  N   UNL     1       3.307   6.255  19.946  0.00  0.00    +0.000 N 
ATOM      2  H   UNL     1       3.037   6.014  20.894  0.00  0.00    +0.000 HD
ENDROOT
BRANCH   1   3
ATOM      3  C   UNL     1       3.706   5.080  19.223  0.00  0.00    +0.000 A 
ATOM      4  C   UNL     1       4.498   5.139  18.042  0.00  0.00    +0.000 A 
ATOM      5  C   UNL     1       5.227   6.236  17.542  0.00  0.00    +0.000 A 
ATOM      6  C   UNL     1       6.010   6.141  16.390  0.00  0.00    +0.000 A 
ATOM      7  C   UNL     1       6.160   4.915  15.746  0.00  0.00    +0.000 A 
ATOM      8  C   UNL     1       5.396   3.833  16.196  0.00  0.00    +0.000 A 
ATOM      9  C   UNL     1       4.489   3.963  17.240  0.00  0.00    +0.000 A 
ATOM     10  N   UNL     1       3.539   3.050  17.397  0.00  0.00    +0.000 NA
ATOM     11  C   UNL     1       2.728   3.138  18.461  0.00  0.00    +0.000 A 
ATOM     12  C   UNL     1       1.388   2.812  18.415  0.00  0.00    +0.000 A 
ATOM     13  C   UNL     1       0.592   2.863  19.560  0.00  0.00    +0.000 A 
ATOM     14  C   UNL     1       1.213   3.017  20.792  0.00  0.00    +0.000 A 
ATOM     15  C   UNL     1       2.514   3.479  20.807  0.00  0.00    +0.000 A 
ATOM     16  C   UNL     1       3.103   3.849  19.577  0.00  0.00    +0.000 A 
ENDBRANCH   1   3
BRANCH   1  20
ATOM     17  C   UNL     1       0.980   9.646  18.756  0.00  0.00    +0.000 A 
ATOM     18  C   UNL     1       1.582   8.850  17.786  0.00  0.00    +0.000 A 
ATOM     19  C   UNL     1       2.307   7.676  18.135  0.00  0.00    +0.000 A 
ATOM     20  C   UNL     1       2.432   7.297  19.476  0.00  0.00    +0.000 A 
ATOM     21  C   UNL     1       1.670   8.006  20.418  0.00  0.00    +0.000 A 
ATOM     22  C   UNL     1       0.958   9.164  20.066  0.00  0.00    +0.000 A 
BRANCH  17  23
ATOM     23  N   UNL     1       0.636  11.004  18.488  0.00  0.00    +0.000 N 
ATOM     24  H   UNL     1      -0.389  11.005  18.464  0.00  0.00    +0.000 HD
BRANCH  23  26
ATOM     25  C   UNL     1      -0.229  13.612  18.597  0.00  0.00    +0.000 C 
ATOM     26  P   UNL     1       1.047  12.472  19.106  0.00  0.00    +0.000 P 
ATOM     27  C   UNL     1       2.489  12.962  18.205  0.00  0.00    +0.000 C 
ATOM     28  O   UNL     1       1.261  12.555  20.591  0.00  0.00    +0.000 OA
ENDBRANCH  23  26
ENDBRANCH  17  23
ENDBRANCH   1  20
TORSDOF 4
ENDMDL
MODEL 4
REMARK VINA RESULT:      -9.1      1.171      1.332
REMARK  Name = 
REMARK  6 active torsions:
REMARK  status: ('A' for Active; 'I' for Inactive)
REMARK    1  A    between atoms: C_1  and  P_2
REMARK    2  A    between atoms: P_2  and  C_3
REMARK    3  A    between atoms: P_2  and  N_5
REMARK    4  A    between atoms: N_5  and  C_6
REMARK    5  A    between atoms: C_9  and  N_10
REMARK    6  A    between atoms: N_10  and  C_11
REMARK                            x       y       z     vdW  Elec       q    Type
REMARK                         _______ _______ _______ _____ _____    ______ ____
ROOT
ATOM      1  N   UNL     1       3.239   6.497  19.879  0.00  0.00    +0.000 N 
ATOM      2  H   UNL     1       3.044   6.266  20.848  0.00  0.00    +0.000 HD
ENDROOT
BRANCH   1   3
ATOM      3  C   UNL     1       3.602   5.319  19.143  0.00  0.00    +0.000 A 
ATOM      4  C   UNL     1       4.306   5.374  17.908  0.00  0.00    +0.000 A 
ATOM      5  C   UNL     1       4.983   6.474  17.345  0.00  0.00    +0.000 A 
ATOM      6  C   UNL     1       5.683   6.374  16.141  0.00  0.00    +0.000 A 
ATOM      7  C   UNL     1       5.803   5.142  15.502  0.00  0.00    +0.000 A 
ATOM      8  C   UNL     1       5.088   4.056  16.018  0.00  0.00    +0.000 A 
ATOM      9  C   UNL     1       4.256   4.188  17.122  0.00  0.00    +0.000 A 
ATOM     10  N   UNL     1       3.332   3.265  17.356  0.00  0.00    +0.000 NA
ATOM     11  C   UNL     1       2.598   3.355  18.475  0.00  0.00    +0.000 A 
ATOM     12  C   UNL     1       1.262   3.013  18.529  0.00  0.00    +0.000 A 
ATOM     13  C   UNL     1       0.549   3.068  19.727  0.00  0.00    +0.000 A 
ATOM     14  C   UNL     1       1.255   3.244  20.910  0.00  0.00    +0.000 A 
ATOM     15  C   UNL     1       2.546   3.722  20.826  0.00  0.00    +0.000 A 
ATOM     16  C   UNL     1       3.042   4.085  19.553  0.00  0.00    +0.000 A 
ENDBRANCH   1   3
BRANCH   1  20
ATOM     17  C   UNL     1       0.752   9.833  18.866  0.00  0.00    +0.000 A 
ATOM     18  C   UNL     1       1.392   9.119  17.857  0.00  0.00    +0.000 A 
ATOM     19  C   UNL     1       2.172   7.964  18.144  0.00  0.00    +0.000 A 
ATOM     20  C   UNL     1       2.316   7.520  19.463  0.00  0.00    +0.000 A 
ATOM     21  C   UNL     1       1.520   8.141  20.440  0.00  0.00    +0.000 A 
ATOM     22  C   UNL     1       0.753   9.281  20.149  0.00  0.00    +0.000 A 
BRANCH  17  23
ATOM     23  N   UNL     1       0.344  11.184  18.671  0.00  0.00    +0.000 N 
ATOM     24  H   UNL     1      -0.583  11.233  19.105  0.00  0.00    +0.000 HD
BRANCH  23  26
ATOM     25  C   UNL     1       2.601  12.654  18.115  0.00  0.00    +0.000 C 
ATOM     26  P   UNL     1       1.008  12.669  18.920  0.00  0.00    +0.000 P 
ATOM     27  C   UNL     1       1.366  12.727  20.651  0.00  0.00    +0.000 C 
ATOM     28  O   UNL     1       0.207  13.860  18.475  0.00  0.00    +0.000 OA
ENDBRANCH  23  26
ENDBRANCH  17  23
ENDBRANCH   1  20
TORSDOF 4
ENDMDL
MODEL 5
REMARK VINA RESULT:      -9.1      1.352      3.824
REMARK  Name = 
REMARK  6 active torsions:
REMARK  status: ('A' for Active; 'I' for Inactive)
REMARK    1  A    between atoms: C_1  and  P_2
REMARK    2  A    between atoms: P_2  and  C_3
REMARK    3  A    between atoms: P_2  and  N_5
REMARK    4  A    between atoms: N_5  and  C_6
REMARK    5  A    between atoms: C_9  and  N_10
REMARK    6  A    between atoms: N_10  and  C_11
REMARK                            x       y       z     vdW  Elec       q    Type
REMARK                         _______ _______ _______ _____ _____    ______ ____
ROOT
ATOM      1  N   UNL     1       3.190   6.873  19.529  0.00  0.00    +0.000 N 
ATOM      2  H   UNL     1       3.342   6.557  20.481  0.00  0.00    +0.000 HD
ENDROOT
BRANCH   1   3
ATOM      3  C   UNL     1       3.235   5.765  18.616  0.00  0.00    +0.000 A 
ATOM      4  C   UNL     1       2.483   4.574  18.819  0.00  0.00    +0.000 A 
ATOM      5  C   UNL     1       1.418   4.365  19.718  0.00  0.00    +0.000 A 
ATOM      6  C   UNL     1       0.728   3.153  19.777  0.00  0.00    +0.000 A 
ATOM      7  C   UNL     1       1.024   2.134  18.874  0.00  0.00    +0.000 A 
ATOM      8  C   UNL     1       2.116   2.307  18.017  0.00  0.00    +0.000 A 
ATOM      9  C   UNL     1       2.911   3.445  18.066  0.00  0.00    +0.000 A 
ATOM     10  N   UNL     1       4.120   3.420  17.520  0.00  0.00    +0.000 NA
ATOM     11  C   UNL     1       4.840   4.551  17.494  0.00  0.00    +0.000 A 
ATOM     12  C   UNL     1       6.210   4.576  17.663  0.00  0.00    +0.000 A 
ATOM     13  C   UNL     1       6.928   5.769  17.572  0.00  0.00    +0.000 A 
ATOM     14  C   UNL     1       6.283   6.894  17.075  0.00  0.00    +0.000 A 
ATOM     15  C   UNL     1       4.903   6.888  17.050  0.00  0.00    +0.000 A 
ATOM     16  C   UNL     1       4.230   5.779  17.610  0.00  0.00    +0.000 A 
ENDBRANCH   1   3
BRANCH   1  20
ATOM     17  C   UNL     1       0.026   9.751  19.328  0.00  0.00    +0.000 A 
ATOM     18  C   UNL     1       0.365   9.185  20.554  0.00  0.00    +0.000 A 
ATOM     19  C   UNL     1       1.453   8.276  20.676  0.00  0.00    +0.000 A 
ATOM     20  C   UNL     1       2.211   7.928  19.552  0.00  0.00    +0.000 A 
ATOM     21  C   UNL     1       1.971   8.644  18.368  0.00  0.00    +0.000 A 
ATOM     22  C   UNL     1       0.894   9.539  18.255  0.00  0.00    +0.000 A 
BRANCH  17  23
ATOM     23  N   UNL     1      -1.271  10.297  19.100  0.00  0.00    +0.000 N 
ATOM     24  H   UNL     1      -1.628  10.499  20.039  0.00  0.00    +0.000 HD
BRANCH  23  26
ATOM     25  C   UNL     1      -3.470  11.933  18.872  0.00  0.00    +0.000 C 
ATOM     26  P   UNL     1      -1.908  11.474  18.142  0.00  0.00    +0.000 P 
ATOM     27  C   UNL     1      -2.327  10.657  16.630  0.00  0.00    +0.000 C 
ATOM     28  O   UNL     1      -1.063  12.693  17.903  0.00  0.00    +0.000 OA
ENDBRANCH  23  26
ENDBRANCH  17  23
ENDBRANCH   1  20
TORSDOF 4
ENDMDL
MODEL 6
REMARK VINA RESULT:      -9.1      1.221      3.670
REMARK  Name = 
REMARK  6 active torsions:
REMARK  status: ('A' for Active; 'I' for Inactive)
REMARK    1  A    between atoms: C_1  and  P_2
REMARK    2  A    between atoms: P_2  and  C_3
REMARK    3  A    between atoms: P_2  and  N_5
REMARK    4  A    between atoms: N_5  and  C_6
REMARK    5  A    between atoms: C_9  and  N_10
REMARK    6  A    between atoms: N_10  and  C_11
REMARK                            x       y       z     vdW  Elec       q    Type
REMARK                         _______ _______ _______ _____ _____    ______ ____
ROOT
ATOM      1  N   UNL     1       3.150   6.796  19.515  0.00  0.00    +0.000 N 
ATOM      2  H   UNL     1       3.193   6.486  20.481  0.00  0.00    +0.000 HD
ENDROOT
BRANCH   1   3
ATOM      3  C   UNL     1       3.296   5.682  18.621  0.00  0.00    +0.000 A 
ATOM      4  C   UNL     1       2.579   4.464  18.790  0.00  0.00    +0.000 A 
ATOM      5  C   UNL     1       1.468   4.222  19.622  0.00  0.00    +0.000 A 
ATOM      6  C   UNL     1       0.823   2.984  19.653  0.00  0.00    +0.000 A 
ATOM      7  C   UNL     1       1.216   1.969  18.783  0.00  0.00    +0.000 A 
ATOM      8  C   UNL     1       2.352   2.176  17.995  0.00  0.00    +0.000 A 
ATOM      9  C   UNL     1       3.098   3.345  18.080  0.00  0.00    +0.000 A 
ATOM     10  N   UNL     1       4.340   3.363  17.613  0.00  0.00    +0.000 NA
ATOM     11  C   UNL     1       5.015   4.521  17.618  0.00  0.00    +0.000 A 
ATOM     12  C   UNL     1       6.369   4.602  17.874  0.00  0.00    +0.000 A 
ATOM     13  C   UNL     1       7.045   5.821  17.813  0.00  0.00    +0.000 A 
ATOM     14  C   UNL     1       6.389   6.915  17.263  0.00  0.00    +0.000 A 
ATOM     15  C   UNL     1       5.015   6.855  17.150  0.00  0.00    +0.000 A 
ATOM     16  C   UNL     1       4.352   5.724  17.680  0.00  0.00    +0.000 A 
ENDBRANCH   1   3
BRANCH   1  20
ATOM     17  C   UNL     1       0.520  10.175  19.502  0.00  0.00    +0.000 A 
ATOM     18  C   UNL     1       1.085   9.739  18.307  0.00  0.00    +0.000 A 
ATOM     19  C   UNL     1       1.910   8.580  18.257  0.00  0.00    +0.000 A 
ATOM     20  C   UNL     1       2.174   7.851  19.422  0.00  0.00    +0.000 A 
ATOM     21  C   UNL     1       1.452   8.198  20.575  0.00  0.00    +0.000 A 
ATOM     22  C   UNL     1       0.641   9.344  20.617  0.00  0.00    +0.000 A 
BRANCH  17  23
ATOM     23  N   UNL     1       0.070  11.519  19.658  0.00  0.00    +0.000 N 
ATOM     24  H   UNL     1       0.930  12.076  19.649  0.00  0.00    +0.000 HD
BRANCH  23  26
ATOM     25  C   UNL     1      -0.305  14.076  18.716  0.00  0.00    +0.000 C 
ATOM     26  P   UNL     1      -1.064  12.477  18.948  0.00  0.00    +0.000 P 
ATOM     27  C   UNL     1      -2.297  12.728  20.191  0.00  0.00    +0.000 C 
ATOM     28  O   UNL     1      -1.662  11.989  17.659  0.00  0.00    +0.000 OA
ENDBRANCH  23  26
ENDBRANCH  17  23
ENDBRANCH   1  20
TORSDOF 4
ENDMDL
MODEL 7
REMARK VINA RESULT:      -9.0      1.406      3.717
REMARK  Name = 
REMARK  6 active torsions:
REMARK  status: ('A' for Active; 'I' for Inactive)
REMARK    1  A    between atoms: C_1  and  P_2
REMARK    2  A    between atoms: P_2  and  C_3
REMARK    3  A    between atoms: P_2  and  N_5
REMARK    4  A    between atoms: N_5  and  C_6
REMARK    5  A    between atoms: C_9  and  N_10
REMARK    6  A    between atoms: N_10  and  C_11
REMARK                            x       y       z     vdW  Elec       q    Type
REMARK                         _______ _______ _______ _____ _____    ______ ____
ROOT
ATOM      1  N   UNL     1       3.165   6.760  19.469  0.00  0.00    +0.000 N 
ATOM      2  H   UNL     1       3.182   6.446  20.434  0.00  0.00    +0.000 HD
ENDROOT
BRANCH   1   3
ATOM      3  C   UNL     1       3.323   5.647  18.574  0.00  0.00    +0.000 A 
ATOM      4  C   UNL     1       2.605   4.429  18.731  0.00  0.00    +0.000 A 
ATOM      5  C   UNL     1       1.484   4.184  19.548  0.00  0.00    +0.000 A 
ATOM      6  C   UNL     1       0.840   2.945  19.568  0.00  0.00    +0.000 A 
ATOM      7  C   UNL     1       1.245   1.933  18.701  0.00  0.00    +0.000 A 
ATOM      8  C   UNL     1       2.391   2.143  17.928  0.00  0.00    +0.000 A 
ATOM      9  C   UNL     1       3.134   3.312  18.025  0.00  0.00    +0.000 A 
ATOM     10  N   UNL     1       4.382   3.332  17.574  0.00  0.00    +0.000 NA
ATOM     11  C   UNL     1       5.056   4.491  17.590  0.00  0.00    +0.000 A 
ATOM     12  C   UNL     1       6.407   4.573  17.863  0.00  0.00    +0.000 A 
ATOM     13  C   UNL     1       7.082   5.792  17.814  0.00  0.00    +0.000 A 
ATOM     14  C   UNL     1       6.433   6.887  17.258  0.00  0.00    +0.000 A 
ATOM     15  C   UNL     1       5.060   6.825  17.128  0.00  0.00    +0.000 A 
ATOM     16  C   UNL     1       4.391   5.693  17.646  0.00  0.00    +0.000 A 
ENDBRANCH   1   3
BRANCH   1  20
ATOM     17  C   UNL     1       0.575  10.169  19.388  0.00  0.00    +0.000 A 
ATOM     18  C   UNL     1       1.124   9.694  18.200  0.00  0.00    +0.000 A 
ATOM     19  C   UNL     1       1.935   8.524  18.174  0.00  0.00    +0.000 A 
ATOM     20  C   UNL     1       2.201   7.823  19.355  0.00  0.00    +0.000 A 
ATOM     21  C   UNL     1       1.493   8.210  20.505  0.00  0.00    +0.000 A 
ATOM     22  C   UNL     1       0.696   9.366  20.524  0.00  0.00    +0.000 A 
BRANCH  17  23
ATOM     23  N   UNL     1       0.143  11.522  19.511  0.00  0.00    +0.000 N 
ATOM     24  H   UNL     1      -0.765  11.454  19.984  0.00  0.00    +0.000 HD
BRANCH  23  26
ATOM     25  C   UNL     1      -0.324  14.232  19.574  0.00  0.00    +0.000 C 
ATOM     26  P   UNL     1       0.800  12.930  20.053  0.00  0.00    +0.000 P 
ATOM     27  C   UNL     1       2.242  13.175  19.059  0.00  0.00    +0.000 C 
ATOM     28  O   UNL     1       1.111  13.019  21.520  0.00  0.00    +0.000 OA
ENDBRANCH  23  26
ENDBRANCH  17  23
ENDBRANCH   1  20
TORSDOF 4
ENDMDL
MODEL 8
REMARK VINA RESULT:      -9.0      1.462      1.877
REMARK  Name = 
REMARK  6 active torsions:
REMARK  status: ('A' for Active; 'I' for Inactive)
REMARK    1  A    between atoms: C_1  and  P_2
REMARK    2  A    between atoms: P_2  and  C_3
REMARK    3  A    between atoms: P_2  and  N_5
REMARK    4  A    between atoms: N_5  and  C_6
REMARK    5  A    between atoms: C_9  and  N_10
REMARK    6  A    between atoms: N_10  and  C_11
REMARK                            x       y       z     vdW  Elec       q    Type
REMARK                         _______ _______ _______ _____ _____    ______ ____
ROOT
ATOM      1  N   UNL     1       2.339   6.483  18.545  0.00  0.00    +0.000 N 
ATOM      2  H   UNL     1       2.315   6.486  17.530  0.00  0.00    +0.000 HD
ENDROOT
BRANCH   1   3
ATOM      3  C   UNL     1       3.446   5.702  19.021  0.00  0.00    +0.000 A 
ATOM      4  C   UNL     1       4.741   5.773  18.436  0.00  0.00    +0.000 A 
ATOM      5  C   UNL     1       5.235   6.742  17.540  0.00  0.00    +0.000 A 
ATOM      6  C   UNL     1       6.553   6.720  17.081  0.00  0.00    +0.000 A 
ATOM      7  C   UNL     1       7.451   5.776  17.575  0.00  0.00    +0.000 A 
ATOM      8  C   UNL     1       6.960   4.774  18.419  0.00  0.00    +0.000 A 
ATOM      9  C   UNL     1       5.613   4.692  18.748  0.00  0.00    +0.000 A 
ATOM     10  N   UNL     1       5.127   3.555  19.230  0.00  0.00    +0.000 NA
ATOM     11  C   UNL     1       3.848   3.517  19.630  0.00  0.00    +0.000 A 
ATOM     12  C   UNL     1       3.036   2.414  19.454  0.00  0.00    +0.000 A 
ATOM     13  C   UNL     1       1.727   2.395  19.935  0.00  0.00    +0.000 A 
ATOM     14  C   UNL     1       1.325   3.405  20.800  0.00  0.00    +0.000 A 
ATOM     15  C   UNL     1       2.086   4.556  20.846  0.00  0.00    +0.000 A 
ATOM     16  C   UNL     1       3.175   4.672  19.953  0.00  0.00    +0.000 A 
ENDBRANCH   1   3
BRANCH   1  20
ATOM     17  C   UNL     1       0.786  10.307  19.687  0.00  0.00    +0.000 A 
ATOM     18  C   UNL     1       1.016   9.338  20.661  0.00  0.00    +0.000 A 
ATOM     19  C   UNL     1       1.593   8.080  20.333  0.00  0.00    +0.000 A 
ATOM     20  C   UNL     1       1.943   7.787  19.010  0.00  0.00    +0.000 A 
ATOM     21  C   UNL     1       1.874   8.837  18.080  0.00  0.00    +0.000 A 
ATOM     22  C   UNL     1       1.302  10.076  18.410  0.00  0.00    +0.000 A 
BRANCH  17  23
ATOM     23  N   UNL     1      -0.152  11.359  19.899  0.00  0.00    +0.000 N 
ATOM     24  H   UNL     1       0.357  12.039  20.473  0.00  0.00    +0.000 HD
BRANCH  23  26
ATOM     25  C   UNL     1      -0.245  13.745  18.533  0.00  0.00    +0.000 C 
ATOM     26  P   UNL     1      -1.149  12.264  18.954  0.00  0.00    +0.000 P 
ATOM     27  C   UNL     1      -2.442  12.804  20.034  0.00  0.00    +0.000 C 
ATOM     28  O   UNL     1      -1.693  11.613  17.714  0.00  0.00    +0.000 OA
ENDBRANCH  23  26
ENDBRANCH  17  23
ENDBRANCH   1  20
TORSDOF 4
ENDMDL
MODEL 9
REMARK VINA RESULT:      -9.0      1.041      3.571
REMARK  Name = 
REMARK  6 active torsions:
REMARK  status: ('A' for Active; 'I' for Inactive)
REMARK    1  A    between atoms: C_1  and  P_2
REMARK    2  A    between atoms: P_2  and  C_3
REMARK    3  A    between atoms: P_2  and  N_5
REMARK    4  A    between atoms: N_5  and  C_6
REMARK    5  A    between atoms: C_9  and  N_10
REMARK    6  A    between atoms: N_10  and  C_11
REMARK                            x       y       z     vdW  Elec       q    Type
REMARK                         _______ _______ _______ _____ _____    ______ ____
ROOT
ATOM      1  N   UNL     1       3.154   6.790  19.568  0.00  0.00    +0.000 N 
ATOM      2  H   UNL     1       3.264   6.469  20.525  0.00  0.00    +0.000 HD
ENDROOT
BRANCH   1   3
ATOM      3  C   UNL     1       3.279   5.692  18.651  0.00  0.00    +0.000 A 
ATOM      4  C   UNL     1       2.563   4.473  18.813  0.00  0.00    +0.000 A 
ATOM      5  C   UNL     1       1.470   4.217  19.665  0.00  0.00    +0.000 A 
ATOM      6  C   UNL     1       0.824   2.979  19.687  0.00  0.00    +0.000 A 
ATOM      7  C   UNL     1       1.196   1.980  18.790  0.00  0.00    +0.000 A 
ATOM      8  C   UNL     1       2.316   2.200  17.981  0.00  0.00    +0.000 A 
ATOM      9  C   UNL     1       3.065   3.366  18.072  0.00  0.00    +0.000 A 
ATOM     10  N   UNL     1       4.296   3.391  17.578  0.00  0.00    +0.000 NA
ATOM     11  C   UNL     1       4.974   4.548  17.589  0.00  0.00    +0.000 A 
ATOM     12  C   UNL     1       6.333   4.623  17.817  0.00  0.00    +0.000 A 
ATOM     13  C   UNL     1       7.010   5.841  17.764  0.00  0.00    +0.000 A 
ATOM     14  C   UNL     1       6.344   6.946  17.248  0.00  0.00    +0.000 A 
ATOM     15  C   UNL     1       4.968   6.890  17.165  0.00  0.00    +0.000 A 
ATOM     16  C   UNL     1       4.314   5.751  17.687  0.00  0.00    +0.000 A 
ENDBRANCH   1   3
BRANCH   1  20
ATOM     17  C   UNL     1       0.409  10.069  19.800  0.00  0.00    +0.000 A 
ATOM     18  C   UNL     1       1.014   9.762  18.585  0.00  0.00    +0.000 A 
ATOM     19  C   UNL     1       1.880   8.641  18.448  0.00  0.00    +0.000 A 
ATOM     20  C   UNL     1       2.145   7.816  19.548  0.00  0.00    +0.000 A 
ATOM     21  C   UNL     1       1.387   8.033  20.711  0.00  0.00    +0.000 A 
ATOM     22  C   UNL     1       0.536   9.142  20.838  0.00  0.00    +0.000 A 
BRANCH  17  23
ATOM     23  N   UNL     1      -0.090  11.377  20.067  0.00  0.00    +0.000 N 
ATOM     24  H   UNL     1       0.749  11.963  20.115  0.00  0.00    +0.000 HD
BRANCH  23  26
ATOM     25  C   UNL     1      -2.287  11.312  18.414  0.00  0.00    +0.000 C 
ATOM     26  P   UNL     1      -1.254  12.352  19.432  0.00  0.00    +0.000 P 
ATOM     27  C   UNL     1      -0.400  13.407  18.298  0.00  0.00    +0.000 C 
ATOM     28  O   UNL     1      -2.093  13.136  20.401  0.00  0.00    +0.000 OA
ENDBRANCH  23  26
ENDBRANCH  17  23
ENDBRANCH   1  20
TORSDOF 4
ENDMDL
