MODEL 1
REMARK VINA RESULT:      -7.8      0.000      0.000
REMARK  Name = 
REMARK  7 active torsions:
REMARK  status: ('A' for Active; 'I' for Inactive)
REMARK    1  A    between atoms: C_1  and  C_2
REMARK    2  A    between atoms: C_2  and  C_3
REMARK    3  A    between atoms: C_8  and  N_9
REMARK    4  A    between atoms: N_9  and  C_10
REMARK    5  A    between atoms: C_10  and  C_11
REMARK    6  A    between atoms: C_15  and  C_16
REMARK    7  A    between atoms: C_17  and  C_18
REMARK                            x       y       z     vdW  Elec       q    Type
REMARK                         _______ _______ _______ _____ _____    ______ ____
ROOT
ATOM      1  C   UNL     1       3.131   5.029  18.438  0.00  0.00    +0.000 A 
ATOM      2  N   UNL     1       2.749   5.117  19.752  0.00  0.00    +0.000 NA
ATOM      3  C   UNL     1       2.296   6.339  19.824  0.00  0.00    +0.000 A 
ATOM      4  N   UNL     1       1.787   7.020  20.861  0.00  0.00    +0.000 N 
ATOM      5  C   UNL     1       1.396   8.342  20.746  0.00  0.00    +0.000 A 
ATOM      6  C   UNL     1       0.890   8.991  22.003  0.00  0.00    +0.000 C 
ATOM      7  C   UNL     1       1.481   9.013  19.572  0.00  0.00    +0.000 A 
ATOM      8  C   UNL     1       1.104  10.440  19.332  0.00  0.00    +0.000 C 
ATOM      9  C   UNL     1       2.020   8.290  18.358  0.00  0.00    +0.000 A 
ATOM     10  O   UNL     1       2.130   8.801  17.261  0.00  0.00    +0.000 OA
ATOM     11  N   UNL     1       2.399   6.971  18.608  0.00  0.00    +0.000 N 
ATOM     12  N   UNL     1       2.942   6.137  17.698  0.00  0.00    +0.000 NA
ATOM     13  H   UNL     1       1.717   6.567  21.764  0.00  0.00    +0.000 HD
ENDROOT
BRANCH   1  14
ATOM     14  C   UNL     1       3.775   3.793  17.886  0.00  0.00    +0.000 C 
BRANCH  14  15
ATOM     15  N   UNL     1       5.233   3.705  17.982  0.00  0.00    +0.000 N 
ATOM     16  H   UNL     1       5.492   3.019  18.686  0.00  0.00    +0.000 HD
BRANCH  15  22
ATOM     17  C   UNL     1       6.327   5.691  16.908  0.00  0.00    +0.000 A 
ATOM     18  C   UNL     1       7.248   6.755  17.062  0.00  0.00    +0.000 A 
ATOM     19  C   UNL     1       7.952   6.944  18.245  0.00  0.00    +0.000 A 
ATOM     20  C   UNL     1       7.726   6.089  19.310  0.00  0.00    +0.000 A 
ATOM     21  C   UNL     1       6.784   5.062  19.187  0.00  0.00    +0.000 A 
ATOM     22  C   UNL     1       6.048   4.843  18.001  0.00  0.00    +0.000 A 
BRANCH  17  24
ATOM     23  C   UNL     1       6.588   4.539  14.686  0.00  0.00    +0.000 C 
ATOM     24  C   UNL     1       5.771   5.526  15.510  0.00  0.00    +0.000 C 
ENDBRANCH  17  24
ENDBRANCH  15  22
ENDBRANCH  14  15
ENDBRANCH   1  14
TORSDOF 4
ENDMDL
MODEL 2
REMARK VINA RESULT:      -7.8      0.804      2.084
REMARK  Name = 
REMARK  7 active torsions:
REMARK  status: ('A' for Active; 'I' for Inactive)
REMARK    1  A    between atoms: C_1  and  C_2
REMARK    2  A    between atoms: C_2  and  C_3
REMARK    3  A    between atoms: C_8  and  N_9
REMARK    4  A    between atoms: N_9  and  C_10
REMARK    5  A    between atoms: C_10  and  C_11
REMARK    6  A    between atoms: C_15  and  C_16
REMARK    7  A    between atoms: C_17  and  C_18
REMARK                            x       y       z     vdW  Elec       q    Type
REMARK                         _______ _______ _______ _____ _____    ______ ____
ROOT
ATOM      1  C   UNL     1       3.385   5.021  19.069  0.00  0.00    +0.000 A 
ATOM      2  N   UNL     1       2.796   5.244  20.287  0.00  0.00    +0.000 NA
ATOM      3  C   UNL     1       2.300   6.443  20.136  0.00  0.00    +0.000 A 
ATOM      4  N   UNL     1       1.612   7.215  20.989  0.00  0.00    +0.000 N 
ATOM      5  C   UNL     1       1.204   8.493  20.652  0.00  0.00    +0.000 A 
ATOM      6  C   UNL     1       0.485   9.260  21.725  0.00  0.00    +0.000 C 
ATOM      7  C   UNL     1       1.454   9.024  19.431  0.00  0.00    +0.000 A 
ATOM      8  C   UNL     1       1.076  10.392  18.960  0.00  0.00    +0.000 C 
ATOM      9  C   UNL     1       2.201   8.191  18.414  0.00  0.00    +0.000 A 
ATOM     10  O   UNL     1       2.469   8.573  17.291  0.00  0.00    +0.000 OA
ATOM     11  N   UNL     1       2.575   6.930  18.881  0.00  0.00    +0.000 N 
ATOM     12  N   UNL     1       3.282   6.023  18.177  0.00  0.00    +0.000 NA
ATOM     13  H   UNL     1       1.413   6.869  21.920  0.00  0.00    +0.000 HD
ENDROOT
BRANCH   1  14
ATOM     14  C   UNL     1       4.145   3.762  18.781  0.00  0.00    +0.000 C 
BRANCH  14  15
ATOM     15  N   UNL     1       5.587   3.893  18.562  0.00  0.00    +0.000 N 
ATOM     16  H   UNL     1       6.013   4.379  19.346  0.00  0.00    +0.000 HD
BRANCH  15  22
ATOM     17  C   UNL     1       6.968   5.379  17.084  0.00  0.00    +0.000 A 
ATOM     18  C   UNL     1       7.352   5.692  15.758  0.00  0.00    +0.000 A 
ATOM     19  C   UNL     1       6.853   4.989  14.669  0.00  0.00    +0.000 A 
ATOM     20  C   UNL     1       5.981   3.936  14.887  0.00  0.00    +0.000 A 
ATOM     21  C   UNL     1       5.630   3.586  16.194  0.00  0.00    +0.000 A 
ATOM     22  C   UNL     1       6.120   4.276  17.325  0.00  0.00    +0.000 A 
BRANCH  17  24
ATOM     23  C   UNL     1       7.700   7.737  17.572  0.00  0.00    +0.000 C 
ATOM     24  C   UNL     1       7.470   6.341  18.139  0.00  0.00    +0.000 C 
ENDBRANCH  17  24
ENDBRANCH  15  22
ENDBRANCH  14  15
ENDBRANCH   1  14
TORSDOF 4
ENDMDL
MODEL 3
REMARK VINA RESULT:      -7.4      3.533      6.893
REMARK  Name = 
REMARK  7 active torsions:
REMARK  status: ('A' for Active; 'I' for Inactive)
REMARK    1  A    between atoms: C_1  and  C_2
REMARK    2  A    between atoms: C_2  and  C_3
REMARK    3  A    between atoms: C_8  and  N_9
REMARK    4  A    between atoms: N_9  and  C_10
REMARK    5  A    between atoms: C_10  and  C_11
REMARK    6  A    between atoms: C_15  and  C_16
REMARK    7  A    between atoms: C_17  and  C_18
REMARK                            x       y       z     vdW  Elec       q    Type
REMARK                         _______ _______ _______ _____ _____    ______ ____
ROOT
ATOM      1  C   UNL     1       2.363   7.594  18.556  0.00  0.00    +0.000 A 
ATOM      2  N   UNL     1       2.379   7.298  19.895  0.00  0.00    +0.000 NA
ATOM      3  C   UNL     1       2.264   5.997  19.889  0.00  0.00    +0.000 A 
ATOM      4  N   UNL     1       2.211   5.123  20.904  0.00  0.00    +0.000 N 
ATOM      5  C   UNL     1       2.041   3.767  20.691  0.00  0.00    +0.000 A 
ATOM      6  C   UNL     1       1.949   2.912  21.924  0.00  0.00    +0.000 C 
ATOM      7  C   UNL     1       1.948   3.244  19.445  0.00  0.00    +0.000 A 
ATOM      8  C   UNL     1       1.751   1.803  19.094  0.00  0.00    +0.000 C 
ATOM      9  C   UNL     1       2.032   4.176  18.257  0.00  0.00    +0.000 A 
ATOM     10  O   UNL     1       1.965   3.807  17.101  0.00  0.00    +0.000 OA
ATOM     11  N   UNL     1       2.181   5.520  18.603  0.00  0.00    +0.000 N 
ATOM     12  N   UNL     1       2.239   6.543  17.726  0.00  0.00    +0.000 NA
ATOM     13  H   UNL     1       2.261   5.465  21.856  0.00  0.00    +0.000 HD
ENDROOT
BRANCH   1  14
ATOM     14  C   UNL     1       2.419   9.008  18.062  0.00  0.00    +0.000 C 
BRANCH  14  15
ATOM     15  N   UNL     1       1.160   9.602  17.608  0.00  0.00    +0.000 N 
ATOM     16  H   UNL     1       1.303  10.079  16.722  0.00  0.00    +0.000 HD
BRANCH  15  22
ATOM     17  C   UNL     1      -1.069  10.530  18.292  0.00  0.00    +0.000 A 
ATOM     18  C   UNL     1      -1.775  11.337  19.216  0.00  0.00    +0.000 A 
ATOM     19  C   UNL     1      -1.130  11.982  20.263  0.00  0.00    +0.000 A 
ATOM     20  C   UNL     1       0.234  11.807  20.427  0.00  0.00    +0.000 A 
ATOM     21  C   UNL     1       0.936  10.975  19.549  0.00  0.00    +0.000 A 
ATOM     22  C   UNL     1       0.312  10.302  18.475  0.00  0.00    +0.000 A 
BRANCH  17  24
ATOM     23  C   UNL     1      -3.324   9.723  17.520  0.00  0.00    +0.000 C 
ATOM     24  C   UNL     1      -1.888  10.037  17.119  0.00  0.00    +0.000 C 
ENDBRANCH  17  24
ENDBRANCH  15  22
ENDBRANCH  14  15
ENDBRANCH   1  14
TORSDOF 4
ENDMDL
MODEL 4
REMARK VINA RESULT:      -7.4      1.197      2.365
REMARK  Name = 
REMARK  7 active torsions:
REMARK  status: ('A' for Active; 'I' for Inactive)
REMARK    1  A    between atoms: C_1  and  C_2
REMARK    2  A    between atoms: C_2  and  C_3
REMARK    3  A    between atoms: C_8  and  N_9
REMARK    4  A    between atoms: N_9  and  C_10
REMARK    5  A    between atoms: C_10  and  C_11
REMARK    6  A    between atoms: C_15  and  C_16
REMARK    7  A    between atoms: C_17  and  C_18
REMARK                            x       y       z     vdW  Elec       q    Type
REMARK                         _______ _______ _______ _____ _____    ______ ____
ROOT
ATOM      1  C   UNL     1       2.727   6.208  19.548  0.00  0.00    +0.000 A 
ATOM      2  N   UNL     1       2.042   6.529  20.692  0.00  0.00    +0.000 NA
ATOM      3  C   UNL     1       1.569   7.712  20.405  0.00  0.00    +0.000 A 
ATOM      4  N   UNL     1       0.819   8.550  21.133  0.00  0.00    +0.000 N 
ATOM      5  C   UNL     1       0.450   9.797  20.663  0.00  0.00    +0.000 A 
ATOM      6  C   UNL     1      -0.350  10.649  21.608  0.00  0.00    +0.000 C 
ATOM      7  C   UNL     1       0.803  10.228  19.428  0.00  0.00    +0.000 A 
ATOM      8  C   UNL     1       0.476  11.555  18.819  0.00  0.00    +0.000 C 
ATOM      9  C   UNL     1       1.625   9.315  18.546  0.00  0.00    +0.000 A 
ATOM     10  O   UNL     1       1.988   9.606  17.423  0.00  0.00    +0.000 OA
ATOM     11  N   UNL     1       1.951   8.096  19.142  0.00  0.00    +0.000 N 
ATOM     12  N   UNL     1       2.706   7.134  18.574  0.00  0.00    +0.000 NA
ATOM     13  H   UNL     1       0.541   8.280  22.069  0.00  0.00    +0.000 HD
ENDROOT
BRANCH   1  14
ATOM     14  C   UNL     1       3.500   4.929  19.427  0.00  0.00    +0.000 C 
BRANCH  14  15
ATOM     15  N   UNL     1       4.951   5.042  19.269  0.00  0.00    +0.000 N 
ATOM     16  H   UNL     1       5.285   5.881  19.736  0.00  0.00    +0.000 HD
BRANCH  15  22
ATOM     17  C   UNL     1       6.802   5.381  17.609  0.00  0.00    +0.000 A 
ATOM     18  C   UNL     1       7.274   5.116  16.301  0.00  0.00    +0.000 A 
ATOM     19  C   UNL     1       6.533   4.365  15.397  0.00  0.00    +0.000 A 
ATOM     20  C   UNL     1       5.316   3.837  15.794  0.00  0.00    +0.000 A 
ATOM     21  C   UNL     1       4.860   4.052  17.098  0.00  0.00    +0.000 A 
ATOM     22  C   UNL     1       5.588   4.808  18.045  0.00  0.00    +0.000 A 
BRANCH  17  24
ATOM     23  C   UNL     1       7.732   7.716  17.742  0.00  0.00    +0.000 C 
ATOM     24  C   UNL     1       7.647   6.348  18.409  0.00  0.00    +0.000 C 
ENDBRANCH  17  24
ENDBRANCH  15  22
ENDBRANCH  14  15
ENDBRANCH   1  14
TORSDOF 4
ENDMDL
MODEL 5
REMARK VINA RESULT:      -7.3      3.259      7.093
REMARK  Name = 
REMARK  7 active torsions:
REMARK  status: ('A' for Active; 'I' for Inactive)
REMARK    1  A    between atoms: C_1  and  C_2
REMARK    2  A    between atoms: C_2  and  C_3
REMARK    3  A    between atoms: C_8  and  N_9
REMARK    4  A    between atoms: N_9  and  C_10
REMARK    5  A    between atoms: C_10  and  C_11
REMARK    6  A    between atoms: C_15  and  C_16
REMARK    7  A    between atoms: C_17  and  C_18
REMARK                            x       y       z     vdW  Elec       q    Type
REMARK                         _______ _______ _______ _____ _____    ______ ____
ROOT
ATOM      1  C   UNL     1       6.737   4.761  16.714  0.00  0.00    +0.000 A 
ATOM      2  N   UNL     1       5.864   3.839  16.195  0.00  0.00    +0.000 NA
ATOM      3  C   UNL     1       6.138   3.891  14.920  0.00  0.00    +0.000 A 
ATOM      4  N   UNL     1       5.606   3.222  13.887  0.00  0.00    +0.000 N 
ATOM      5  C   UNL     1       6.008   3.451  12.583  0.00  0.00    +0.000 A 
ATOM      6  C   UNL     1       5.289   2.664  11.524  0.00  0.00    +0.000 C 
ATOM      7  C   UNL     1       6.980   4.345  12.282  0.00  0.00    +0.000 A 
ATOM      8  C   UNL     1       7.486   4.686  10.916  0.00  0.00    +0.000 C 
ATOM      9  C   UNL     1       7.640   5.110  13.407  0.00  0.00    +0.000 A 
ATOM     10  O   UNL     1       8.524   5.928  13.242  0.00  0.00    +0.000 OA
ATOM     11  N   UNL     1       7.133   4.805  14.671  0.00  0.00    +0.000 N 
ATOM     12  N   UNL     1       7.530   5.382  15.823  0.00  0.00    +0.000 NA
ATOM     13  H   UNL     1       4.865   2.553  14.059  0.00  0.00    +0.000 HD
ENDROOT
BRANCH   1  14
ATOM     14  C   UNL     1       6.754   5.093  18.176  0.00  0.00    +0.000 C 
BRANCH  14  15
ATOM     15  N   UNL     1       6.004   4.205  19.067  0.00  0.00    +0.000 N 
ATOM     16  H   UNL     1       6.168   3.236  18.807  0.00  0.00    +0.000 HD
BRANCH  15  22
ATOM     17  C   UNL     1       3.685   3.493  19.710  0.00  0.00    +0.000 A 
ATOM     18  C   UNL     1       2.356   3.905  19.968  0.00  0.00    +0.000 A 
ATOM     19  C   UNL     1       1.974   5.237  19.871  0.00  0.00    +0.000 A 
ATOM     20  C   UNL     1       2.923   6.190  19.543  0.00  0.00    +0.000 A 
ATOM     21  C   UNL     1       4.250   5.803  19.331  0.00  0.00    +0.000 A 
ATOM     22  C   UNL     1       4.674   4.459  19.424  0.00  0.00    +0.000 A 
BRANCH  17  24
ATOM     23  C   UNL     1       3.566   1.385  18.339  0.00  0.00    +0.000 C 
ATOM     24  C   UNL     1       3.898   1.995  19.696  0.00  0.00    +0.000 C 
ENDBRANCH  17  24
ENDBRANCH  15  22
ENDBRANCH  14  15
ENDBRANCH   1  14
TORSDOF 4
ENDMDL
MODEL 6
REMARK VINA RESULT:      -7.3      3.065      7.172
REMARK  Name = 
REMARK  7 active torsions:
REMARK  status: ('A' for Active; 'I' for Inactive)
REMARK    1  A    between atoms: C_1  and  C_2
REMARK    2  A    between atoms: C_2  and  C_3
REMARK    3  A    between atoms: C_8  and  N_9
REMARK    4  A    between atoms: N_9  and  C_10
REMARK    5  A    between atoms: C_10  and  C_11
REMARK    6  A    between atoms: C_15  and  C_16
REMARK    7  A    between atoms: C_17  and  C_18
REMARK                            x       y       z     vdW  Elec       q    Type
REMARK                         _______ _______ _______ _____ _____    ______ ____
ROOT
ATOM      1  C   UNL     1       2.208   8.037  18.747  0.00  0.00    +0.000 A 
ATOM      2  N   UNL     1       1.874   7.587  19.998  0.00  0.00    +0.000 NA
ATOM      3  C   UNL     1       2.225   6.330  19.940  0.00  0.00    +0.000 A 
ATOM      4  N   UNL     1       2.139   5.358  20.860  0.00  0.00    +0.000 N 
ATOM      5  C   UNL     1       2.531   4.060  20.589  0.00  0.00    +0.000 A 
ATOM      6  C   UNL     1       2.331   3.066  21.698  0.00  0.00    +0.000 C 
ATOM      7  C   UNL     1       3.050   3.706  19.388  0.00  0.00    +0.000 A 
ATOM      8  C   UNL     1       3.494   2.337  18.978  0.00  0.00    +0.000 C 
ATOM      9  C   UNL     1       3.200   4.764  18.320  0.00  0.00    +0.000 A 
ATOM     10  O   UNL     1       3.658   4.550  17.214  0.00  0.00    +0.000 OA
ATOM     11  N   UNL     1       2.750   6.027  18.707  0.00  0.00    +0.000 N 
ATOM     12  N   UNL     1       2.742   7.121  17.919  0.00  0.00    +0.000 NA
ATOM     13  H   UNL     1       1.744   5.569  21.768  0.00  0.00    +0.000 HD
ENDROOT
BRANCH   1  14
ATOM     14  C   UNL     1       1.934   9.447  18.319  0.00  0.00    +0.000 C 
BRANCH  14  15
ATOM     15  N   UNL     1       0.648   9.705  17.668  0.00  0.00    +0.000 N 
ATOM     16  H   UNL     1       0.800  10.005  16.709  0.00  0.00    +0.000 HD
BRANCH  15  22
ATOM     17  C   UNL     1      -1.719  10.516  17.869  0.00  0.00    +0.000 A 
ATOM     18  C   UNL     1      -2.624  11.344  18.575  0.00  0.00    +0.000 A 
ATOM     19  C   UNL     1      -2.212  12.125  19.648  0.00  0.00    +0.000 A 
ATOM     20  C   UNL     1      -0.891  12.070  20.057  0.00  0.00    +0.000 A 
ATOM     21  C   UNL     1       0.003  11.220  19.398  0.00  0.00    +0.000 A 
ATOM     22  C   UNL     1      -0.380  10.410  18.305  0.00  0.00    +0.000 A 
BRANCH  17  24
ATOM     23  C   UNL     1      -2.832  10.887  15.643  0.00  0.00    +0.000 C 
ATOM     24  C   UNL     1      -2.287   9.861  16.629  0.00  0.00    +0.000 C 
ENDBRANCH  17  24
ENDBRANCH  15  22
ENDBRANCH  14  15
ENDBRANCH   1  14
TORSDOF 4
ENDMDL
MODEL 7
REMARK VINA RESULT:      -7.3      2.991      5.089
REMARK  Name = 
REMARK  7 active torsions:
REMARK  status: ('A' for Active; 'I' for Inactive)
REMARK    1  A    between atoms: C_1  and  C_2
REMARK    2  A    between atoms: C_2  and  C_3
REMARK    3  A    between atoms: C_8  and  N_9
REMARK    4  A    between atoms: N_9  and  C_10
REMARK    5  A    between atoms: C_10  and  C_11
REMARK    6  A    between atoms: C_15  and  C_16
REMARK    7  A    between atoms: C_17  and  C_18
REMARK                            x       y       z     vdW  Elec       q    Type
REMARK                         _______ _______ _______ _____ _____    ______ ____
ROOT
ATOM      1  C   UNL     1       1.714   8.104  20.184  0.00  0.00    +0.000 A 
ATOM      2  N   UNL     1       1.155   8.949  19.260  0.00  0.00    +0.000 NA
ATOM      3  C   UNL     1       0.487   9.778  20.016  0.00  0.00    +0.000 A 
ATOM      4  N   UNL     1      -0.277  10.830  19.691  0.00  0.00    +0.000 N 
ATOM      5  C   UNL     1      -0.948  11.570  20.648  0.00  0.00    +0.000 A 
ATOM      6  C   UNL     1      -1.808  12.690  20.134  0.00  0.00    +0.000 C 
ATOM      7  C   UNL     1      -0.846  11.289  21.970  0.00  0.00    +0.000 A 
ATOM      8  C   UNL     1      -1.531  12.006  23.089  0.00  0.00    +0.000 C 
ATOM      9  C   UNL     1       0.027  10.132  22.402  0.00  0.00    +0.000 A 
ATOM     10  O   UNL     1       0.188   9.802  23.561  0.00  0.00    +0.000 OA
ATOM     11  N   UNL     1       0.631   9.453  21.343  0.00  0.00    +0.000 N 
ATOM     12  N   UNL     1       1.420   8.366  21.470  0.00  0.00    +0.000 NA
ATOM     13  H   UNL     1      -0.398  11.072  18.715  0.00  0.00    +0.000 HD
ENDROOT
BRANCH   1  14
ATOM     14  C   UNL     1       2.547   6.928  19.773  0.00  0.00    +0.000 C 
BRANCH  14  15
ATOM     15  N   UNL     1       2.160   6.238  18.541  0.00  0.00    +0.000 N 
ATOM     16  H   UNL     1       1.194   6.458  18.311  0.00  0.00    +0.000 HD
BRANCH  15  22
ATOM     17  C   UNL     1       1.964   3.775  18.981  0.00  0.00    +0.000 A 
ATOM     18  C   UNL     1       2.463   2.483  18.688  0.00  0.00    +0.000 A 
ATOM     19  C   UNL     1       3.518   2.292  17.805  0.00  0.00    +0.000 A 
ATOM     20  C   UNL     1       4.075   3.389  17.171  0.00  0.00    +0.000 A 
ATOM     21  C   UNL     1       3.560   4.666  17.414  0.00  0.00    +0.000 A 
ATOM     22  C   UNL     1       2.487   4.898  18.304  0.00  0.00    +0.000 A 
BRANCH  17  24
ATOM     23  C   UNL     1       1.346   2.996  21.293  0.00  0.00    +0.000 C 
ATOM     24  C   UNL     1       0.929   3.825  20.084  0.00  0.00    +0.000 C 
ENDBRANCH  17  24
ENDBRANCH  15  22
ENDBRANCH  14  15
ENDBRANCH   1  14
TORSDOF 4
ENDMDL
MODEL 8
REMARK VINA RESULT:      -7.2      2.730      4.881
REMARK  Name = 
REMARK  7 active torsions:
REMARK  status: ('A' for Active; 'I' for Inactive)
REMARK    1  A    between atoms: C_1  and  C_2
REMARK    2  A    between atoms: C_2  and  C_3
REMARK    3  A    between atoms: C_8  and  N_9
REMARK    4  A    between atoms: N_9  and  C_10
REMARK    5  A    between atoms: C_10  and  C_11
REMARK    6  A    between atoms: C_15  and  C_16
REMARK    7  A    between atoms: C_17  and  C_18
REMARK                            x       y       z     vdW  Elec       q    Type
REMARK                         _______ _______ _______ _____ _____    ______ ____
ROOT
ATOM      1  C   UNL     1       1.767   8.226  19.762  0.00  0.00    +0.000 A 
ATOM      2  N   UNL     1       1.251   9.220  18.971  0.00  0.00    +0.000 NA
ATOM      3  C   UNL     1       0.555   9.918  19.828  0.00  0.00    +0.000 A 
ATOM      4  N   UNL     1      -0.191  11.017  19.654  0.00  0.00    +0.000 N 
ATOM      5  C   UNL     1      -0.898  11.593  20.694  0.00  0.00    +0.000 A 
ATOM      6  C   UNL     1      -1.731  12.792  20.341  0.00  0.00    +0.000 C 
ATOM      7  C   UNL     1      -0.851  11.093  21.953  0.00  0.00    +0.000 A 
ATOM      8  C   UNL     1      -1.579  11.620  23.149  0.00  0.00    +0.000 C 
ATOM      9  C   UNL     1      -0.002   9.871  22.219  0.00  0.00    +0.000 A 
ATOM     10  O   UNL     1       0.111   9.350  23.312  0.00  0.00    +0.000 OA
ATOM     11  N   UNL     1       0.643   9.372  21.086  0.00  0.00    +0.000 N 
ATOM     12  N   UNL     1       1.422   8.272  21.061  0.00  0.00    +0.000 NA
ATOM     13  H   UNL     1      -0.271  11.421  18.728  0.00  0.00    +0.000 HD
ENDROOT
BRANCH   1  14
ATOM     14  C   UNL     1       2.613   7.127  19.192  0.00  0.00    +0.000 C 
BRANCH  14  15
ATOM     15  N   UNL     1       3.000   6.047  20.103  0.00  0.00    +0.000 N 
ATOM     16  H   UNL     1       3.976   6.151  20.366  0.00  0.00    +0.000 HD
BRANCH  15  22
ATOM     17  C   UNL     1       3.340   3.770  19.105  0.00  0.00    +0.000 A 
ATOM     18  C   UNL     1       2.791   2.482  18.895  0.00  0.00    +0.000 A 
ATOM     19  C   UNL     1       1.529   2.143  19.364  0.00  0.00    +0.000 A 
ATOM     20  C   UNL     1       0.801   3.077  20.082  0.00  0.00    +0.000 A 
ATOM     21  C   UNL     1       1.351   4.337  20.337  0.00  0.00    +0.000 A 
ATOM     22  C   UNL     1       2.632   4.715  19.878  0.00  0.00    +0.000 A 
BRANCH  17  24
ATOM     23  C   UNL     1       4.443   4.280  16.901  0.00  0.00    +0.000 C 
ATOM     24  C   UNL     1       4.648   4.031  18.391  0.00  0.00    +0.000 C 
ENDBRANCH  17  24
ENDBRANCH  15  22
ENDBRANCH  14  15
ENDBRANCH   1  14
TORSDOF 4
ENDMDL
MODEL 9
REMARK VINA RESULT:      -7.2      3.241      7.026
REMARK  Name = 
REMARK  7 active torsions:
REMARK  status: ('A' for Active; 'I' for Inactive)
REMARK    1  A    between atoms: C_1  and  C_2
REMARK    2  A    between atoms: C_2  and  C_3
REMARK    3  A    between atoms: C_8  and  N_9
REMARK    4  A    between atoms: N_9  and  C_10
REMARK    5  A    between atoms: C_10  and  C_11
REMARK    6  A    between atoms: C_15  and  C_16
REMARK    7  A    between atoms: C_17  and  C_18
REMARK                            x       y       z     vdW  Elec       q    Type
REMARK                         _______ _______ _______ _____ _____    ______ ____
ROOT
ATOM      1  C   UNL     1       6.491   4.536  16.948  0.00  0.00    +0.000 A 
ATOM      2  N   UNL     1       5.613   3.687  16.324  0.00  0.00    +0.000 NA
ATOM      3  C   UNL     1       5.959   3.808  15.071  0.00  0.00    +0.000 A 
ATOM      4  N   UNL     1       5.460   3.229  13.970  0.00  0.00    +0.000 N 
ATOM      5  C   UNL     1       5.943   3.523  12.707  0.00  0.00    +0.000 A 
ATOM      6  C   UNL     1       5.254   2.837  11.562  0.00  0.00    +0.000 C 
ATOM      7  C   UNL     1       6.965   4.392  12.518  0.00  0.00    +0.000 A 
ATOM      8  C   UNL     1       7.559   4.797  11.206  0.00  0.00    +0.000 C 
ATOM      9  C   UNL     1       7.591   5.054  13.724  0.00  0.00    +0.000 A 
ATOM     10  O   UNL     1       8.514   5.842  13.661  0.00  0.00    +0.000 OA
ATOM     11  N   UNL     1       7.002   4.692  14.936  0.00  0.00    +0.000 N 
ATOM     12  N   UNL     1       7.357   5.177  16.144  0.00  0.00    +0.000 NA
ATOM     13  H   UNL     1       4.685   2.584  14.057  0.00  0.00    +0.000 HD
ENDROOT
BRANCH   1  14
ATOM     14  C   UNL     1       6.439   4.773  18.428  0.00  0.00    +0.000 C 
BRANCH  14  15
ATOM     15  N   UNL     1       5.558   3.902  19.209  0.00  0.00    +0.000 N 
ATOM     16  H   UNL     1       6.038   3.034  19.430  0.00  0.00    +0.000 HD
BRANCH  15  22
ATOM     17  C   UNL     1       3.216   4.713  18.814  0.00  0.00    +0.000 A 
ATOM     18  C   UNL     1       1.873   4.351  18.551  0.00  0.00    +0.000 A 
ATOM     19  C   UNL     1       1.487   3.022  18.429  0.00  0.00    +0.000 A 
ATOM     20  C   UNL     1       2.444   2.028  18.538  0.00  0.00    +0.000 A 
ATOM     21  C   UNL     1       3.782   2.374  18.751  0.00  0.00    +0.000 A 
ATOM     22  C   UNL     1       4.211   3.714  18.876  0.00  0.00    +0.000 A 
BRANCH  17  24
ATOM     23  C   UNL     1       3.505   6.995  17.792  0.00  0.00    +0.000 C 
ATOM     24  C   UNL     1       3.440   6.186  19.082  0.00  0.00    +0.000 C 
ENDBRANCH  17  24
ENDBRANCH  15  22
ENDBRANCH  14  15
ENDBRANCH   1  14
TORSDOF 4
ENDMDL
