MODEL 1
REMARK VINA RESULT:      -8.9      0.000      0.000
REMARK  Name = 
REMARK  8 active torsions:
REMARK  status: ('A' for Active; 'I' for Inactive)
REMARK    1  A    between atoms: C_1  and  O_2
REMARK    2  A    between atoms: O_2  and  C_3
REMARK    3  A    between atoms: N_10  and  C_11
REMARK    4  A    between atoms: C_11  and  C_12
REMARK    5  A    between atoms: C_16  and  N_17
REMARK    6  A    between atoms: N_20  and  C_21
REMARK    7  A    between atoms: C_31  and  O_32
REMARK    8  A    between atoms: O_32  and  C_33
REMARK                            x       y       z     vdW  Elec       q    Type
REMARK                         _______ _______ _______ _____ _____    ______ ____
ROOT
ATOM      1  C   UNL     1       2.350   7.972  19.030  0.00  0.00    +0.000 A 
ATOM      2  C   UNL     1       1.686   7.526  20.175  0.00  0.00    +0.000 A 
ATOM      3  C   UNL     1       1.802   6.199  20.584  0.00  0.00    +0.000 A 
ATOM      4  C   UNL     1       2.581   5.305  19.847  0.00  0.00    +0.000 A 
ATOM      5  C   UNL     1       3.257   5.727  18.699  0.00  0.00    +0.000 A 
ATOM      6  C   UNL     1       3.164   7.069  18.314  0.00  0.00    +0.000 A 
ENDROOT
BRANCH   5   7
ATOM      7  N   UNL     1       4.047   4.852  17.916  0.00  0.00    +0.000 N 
ATOM      8  C   UNL     1       4.626   5.182  16.701  0.00  0.00    +0.000 C 
ATOM      9  O   UNL     1       4.639   6.307  16.215  0.00  0.00    +0.000 OA
ATOM     10  N   UNL     1       5.150   4.061  16.071  0.00  0.00    +0.000 N 
ATOM     11  H   UNL     1       4.465   4.063  18.386  0.00  0.00    +0.000 HD
ATOM     12  H   UNL     1       4.618   3.217  16.226  0.00  0.00    +0.000 HD
BRANCH  10  13
ATOM     13  C   UNL     1       5.831   4.163  14.837  0.00  0.00    +0.000 A 
ATOM     14  C   UNL     1       7.024   4.887  14.716  0.00  0.00    +0.000 A 
ATOM     15  C   UNL     1       7.653   5.008  13.476  0.00  0.00    +0.000 A 
ATOM     16  C   UNL     1       7.078   4.415  12.360  0.00  0.00    +0.000 A 
ATOM     17  F   UNL     1       7.661   4.557  11.162  0.00  0.00    +0.000 F 
ATOM     18  C   UNL     1       5.903   3.680  12.466  0.00  0.00    +0.000 A 
ATOM     19  C   UNL     1       5.288   3.530  13.713  0.00  0.00    +0.000 A 
ENDBRANCH  10  13
ENDBRANCH   5   7
BRANCH   1  20
ATOM     20  C   UNL     1       2.169   9.395  18.553  0.00  0.00    +0.000 C 
BRANCH  20  28
ATOM     21  C   UNL     1      -3.992  11.082  17.313  0.00  0.00    +0.000 A 
ATOM     22  C   UNL     1      -3.443  11.654  18.472  0.00  0.00    +0.000 A 
ATOM     23  C   UNL     1      -2.127  11.448  18.865  0.00  0.00    +0.000 A 
ATOM     24  N   UNL     1      -1.682  12.104  19.937  0.00  0.00    +0.000 NA
ATOM     25  C   UNL     1      -0.398  11.920  20.255  0.00  0.00    +0.000 A 
ATOM     26  N   UNL     1       0.459  11.106  19.632  0.00  0.00    +0.000 NA
ATOM     27  C   UNL     1      -0.009  10.417  18.577  0.00  0.00    +0.000 A 
ATOM     28  N   UNL     1       0.875   9.546  17.896  0.00  0.00    +0.000 N 
ATOM     29  C   UNL     1      -1.328  10.584  18.115  0.00  0.00    +0.000 A 
ATOM     30  C   UNL     1      -1.886   9.965  16.969  0.00  0.00    +0.000 A 
ATOM     31  C   UNL     1      -3.204  10.209  16.555  0.00  0.00    +0.000 A 
ATOM     32  H   UNL     1       0.424   8.648  17.752  0.00  0.00    +0.000 HD
BRANCH  21  34
ATOM     33  C   UNL     1      -6.010  12.232  17.784  0.00  0.00    +0.000 C 
ATOM     34  O   UNL     1      -5.281  11.344  16.930  0.00  0.00    +0.000 OA
ENDBRANCH  21  34
BRANCH  31  35
ATOM     35  O   UNL     1      -3.507   9.534  15.406  0.00  0.00    +0.000 OA
ATOM     36  C   UNL     1      -3.345  10.158  14.145  0.00  0.00    +0.000 C 
ENDBRANCH  31  35
ENDBRANCH  20  28
ENDBRANCH   1  20
TORSDOF 6
ENDMDL
MODEL 2
REMARK VINA RESULT:      -8.8      4.679      9.688
REMARK  Name = 
REMARK  8 active torsions:
REMARK  status: ('A' for Active; 'I' for Inactive)
REMARK    1  A    between atoms: C_1  and  O_2
REMARK    2  A    between atoms: O_2  and  C_3
REMARK    3  A    between atoms: N_10  and  C_11
REMARK    4  A    between atoms: C_11  and  C_12
REMARK    5  A    between atoms: C_16  and  N_17
REMARK    6  A    between atoms: N_20  and  C_21
REMARK    7  A    between atoms: C_31  and  O_32
REMARK    8  A    between atoms: O_32  and  C_33
REMARK                            x       y       z     vdW  Elec       q    Type
REMARK                         _______ _______ _______ _____ _____    ______ ____
ROOT
ATOM      1  C   UNL     1       0.592   8.597  21.429  0.00  0.00    +0.000 A 
ATOM      2  C   UNL     1      -0.250   9.005  22.465  0.00  0.00    +0.000 A 
ATOM      3  C   UNL     1      -0.648  10.337  22.566  0.00  0.00    +0.000 A 
ATOM      4  C   UNL     1      -0.201  11.273  21.630  0.00  0.00    +0.000 A 
ATOM      5  C   UNL     1       0.641  10.889  20.583  0.00  0.00    +0.000 A 
ATOM      6  C   UNL     1       1.008   9.544  20.469  0.00  0.00    +0.000 A 
ENDROOT
BRANCH   5   7
ATOM      7  N   UNL     1       1.126  11.806  19.622  0.00  0.00    +0.000 N 
ATOM      8  C   UNL     1       2.091  12.770  19.863  0.00  0.00    +0.000 C 
ATOM      9  O   UNL     1       2.742  12.865  20.898  0.00  0.00    +0.000 OA
ATOM     10  N   UNL     1       2.197  13.656  18.799  0.00  0.00    +0.000 N 
ATOM     11  H   UNL     1       0.999  11.566  18.650  0.00  0.00    +0.000 HD
ATOM     12  H   UNL     1       1.322  13.847  18.335  0.00  0.00    +0.000 HD
BRANCH  10  13
ATOM     13  C   UNL     1       3.152  14.698  18.803  0.00  0.00    +0.000 A 
ATOM     14  C   UNL     1       4.428  14.525  18.250  0.00  0.00    +0.000 A 
ATOM     15  C   UNL     1       5.367  15.556  18.307  0.00  0.00    +0.000 A 
ATOM     16  C   UNL     1       5.029  16.752  18.927  0.00  0.00    +0.000 A 
ATOM     17  F   UNL     1       5.938  17.731  19.012  0.00  0.00    +0.000 F 
ATOM     18  C   UNL     1       3.763  16.944  19.467  0.00  0.00    +0.000 A 
ATOM     19  C   UNL     1       2.810  15.925  19.383  0.00  0.00    +0.000 A 
ENDBRANCH  10  13
ENDBRANCH   5   7
BRANCH   1  20
ATOM     20  C   UNL     1       1.074   7.165  21.361  0.00  0.00    +0.000 C 
BRANCH  20  28
ATOM     21  C   UNL     1       5.069   4.574  16.926  0.00  0.00    +0.000 A 
ATOM     22  C   UNL     1       4.181   3.666  17.525  0.00  0.00    +0.000 A 
ATOM     23  C   UNL     1       3.223   4.050  18.455  0.00  0.00    +0.000 A 
ATOM     24  N   UNL     1       2.375   3.123  18.902  0.00  0.00    +0.000 NA
ATOM     25  C   UNL     1       1.437   3.538  19.756  0.00  0.00    +0.000 A 
ATOM     26  N   UNL     1       1.303   4.777  20.238  0.00  0.00    +0.000 NA
ATOM     27  C   UNL     1       2.188   5.697  19.814  0.00  0.00    +0.000 A 
ATOM     28  N   UNL     1       2.073   7.019  20.307  0.00  0.00    +0.000 N 
ATOM     29  C   UNL     1       3.178   5.384  18.864  0.00  0.00    +0.000 A 
ATOM     30  C   UNL     1       4.100   6.299  18.300  0.00  0.00    +0.000 A 
ATOM     31  C   UNL     1       5.038   5.913  17.331  0.00  0.00    +0.000 A 
ATOM     32  H   UNL     1       2.984   7.350  20.609  0.00  0.00    +0.000 HD
BRANCH  21  34
ATOM     33  C   UNL     1       5.567   4.370  14.619  0.00  0.00    +0.000 C 
ATOM     34  O   UNL     1       5.971   4.169  15.977  0.00  0.00    +0.000 OA
ENDBRANCH  21  34
BRANCH  31  35
ATOM     35  O   UNL     1       5.792   6.971  16.907  0.00  0.00    +0.000 OA
ATOM     36  C   UNL     1       7.092   7.179  17.430  0.00  0.00    +0.000 C 
ENDBRANCH  31  35
ENDBRANCH  20  28
ENDBRANCH   1  20
TORSDOF 6
ENDMDL
MODEL 3
REMARK VINA RESULT:      -8.7      5.268     12.018
REMARK  Name = 
REMARK  8 active torsions:
REMARK  status: ('A' for Active; 'I' for Inactive)
REMARK    1  A    between atoms: C_1  and  O_2
REMARK    2  A    between atoms: O_2  and  C_3
REMARK    3  A    between atoms: N_10  and  C_11
REMARK    4  A    between atoms: C_11  and  C_12
REMARK    5  A    between atoms: C_16  and  N_17
REMARK    6  A    between atoms: N_20  and  C_21
REMARK    7  A    between atoms: C_31  and  O_32
REMARK    8  A    between atoms: O_32  and  C_33
REMARK                            x       y       z     vdW  Elec       q    Type
REMARK                         _______ _______ _______ _____ _____    ______ ____
ROOT
ATOM      1  C   UNL     1       0.702   9.095  21.059  0.00  0.00    +0.000 A 
ATOM      2  C   UNL     1       1.034   9.859  19.938  0.00  0.00    +0.000 A 
ATOM      3  C   UNL     1       0.511  11.141  19.780  0.00  0.00    +0.000 A 
ATOM      4  C   UNL     1      -0.353  11.667  20.742  0.00  0.00    +0.000 A 
ATOM      5  C   UNL     1      -0.700  10.924  21.873  0.00  0.00    +0.000 A 
ATOM      6  C   UNL     1      -0.144   9.651  22.042  0.00  0.00    +0.000 A 
ENDROOT
BRANCH   5   7
ATOM      7  N   UNL     1      -1.581  11.413  22.866  0.00  0.00    +0.000 N 
ATOM      8  C   UNL     1      -2.709  12.177  22.616  0.00  0.00    +0.000 C 
ATOM      9  O   UNL     1      -3.161  12.413  21.501  0.00  0.00    +0.000 OA
ATOM     10  N   UNL     1      -3.242  12.690  23.791  0.00  0.00    +0.000 N 
ATOM     11  H   UNL     1      -1.573  10.946  23.760  0.00  0.00    +0.000 HD
ATOM     12  H   UNL     1      -2.550  12.927  24.486  0.00  0.00    +0.000 HD
BRANCH  10  13
ATOM     13  C   UNL     1      -4.425  13.464  23.785  0.00  0.00    +0.000 A 
ATOM     14  C   UNL     1      -4.383  14.864  23.753  0.00  0.00    +0.000 A 
ATOM     15  C   UNL     1      -5.565  15.606  23.793  0.00  0.00    +0.000 A 
ATOM     16  C   UNL     1      -6.783  14.943  23.878  0.00  0.00    +0.000 A 
ATOM     17  F   UNL     1      -7.917  15.651  23.950  0.00  0.00    +0.000 F 
ATOM     18  C   UNL     1      -6.840  13.554  23.895  0.00  0.00    +0.000 A 
ATOM     19  C   UNL     1      -5.660  12.809  23.823  0.00  0.00    +0.000 A 
ENDBRANCH  10  13
ENDBRANCH   5   7
BRANCH   1  20
ATOM     20  C   UNL     1       1.218   7.680  21.193  0.00  0.00    +0.000 C 
BRANCH  20  28
ATOM     21  C   UNL     1       5.164   4.556  17.067  0.00  0.00    +0.000 A 
ATOM     22  C   UNL     1       4.280   3.731  17.781  0.00  0.00    +0.000 A 
ATOM     23  C   UNL     1       3.332   4.227  18.666  0.00  0.00    +0.000 A 
ATOM     24  N   UNL     1       2.487   3.364  19.231  0.00  0.00    +0.000 NA
ATOM     25  C   UNL     1       1.558   3.884  20.037  0.00  0.00    +0.000 A 
ATOM     26  N   UNL     1       1.431   5.172  20.366  0.00  0.00    +0.000 NA
ATOM     27  C   UNL     1       2.314   6.031  19.825  0.00  0.00    +0.000 A 
ATOM     28  N   UNL     1       2.207   7.403  20.156  0.00  0.00    +0.000 N 
ATOM     29  C   UNL     1       3.294   5.601  18.911  0.00  0.00    +0.000 A 
ATOM     30  C   UNL     1       4.212   6.439  18.231  0.00  0.00    +0.000 A 
ATOM     31  C   UNL     1       5.139   5.935  17.308  0.00  0.00    +0.000 A 
ATOM     32  H   UNL     1       3.121   7.766  20.407  0.00  0.00    +0.000 HD
BRANCH  21  34
ATOM     33  C   UNL     1       5.692   4.178  14.789  0.00  0.00    +0.000 C 
ATOM     34  O   UNL     1       6.055   4.036  16.166  0.00  0.00    +0.000 OA
ENDBRANCH  21  34
BRANCH  31  35
ATOM     35  O   UNL     1       5.891   6.931  16.751  0.00  0.00    +0.000 OA
ATOM     36  C   UNL     1       7.138   7.291  17.320  0.00  0.00    +0.000 C 
ENDBRANCH  31  35
ENDBRANCH  20  28
ENDBRANCH   1  20
TORSDOF 6
ENDMDL
MODEL 4
REMARK VINA RESULT:      -8.7      0.821      1.229
REMARK  Name = 
REMARK  8 active torsions:
REMARK  status: ('A' for Active; 'I' for Inactive)
REMARK    1  A    between atoms: C_1  and  O_2
REMARK    2  A    between atoms: O_2  and  C_3
REMARK    3  A    between atoms: N_10  and  C_11
REMARK    4  A    between atoms: C_11  and  C_12
REMARK    5  A    between atoms: C_16  and  N_17
REMARK    6  A    between atoms: N_20  and  C_21
REMARK    7  A    between atoms: C_31  and  O_32
REMARK    8  A    between atoms: O_32  and  C_33
REMARK                            x       y       z     vdW  Elec       q    Type
REMARK                         _______ _______ _______ _____ _____    ______ ____
ROOT
ATOM      1  C   UNL     1       2.179   7.009  20.009  0.00  0.00    +0.000 A 
ATOM      2  C   UNL     1       1.294   6.202  20.728  0.00  0.00    +0.000 A 
ATOM      3  C   UNL     1       1.426   4.814  20.700  0.00  0.00    +0.000 A 
ATOM      4  C   UNL     1       2.443   4.224  19.947  0.00  0.00    +0.000 A 
ATOM      5  C   UNL     1       3.342   5.009  19.221  0.00  0.00    +0.000 A 
ATOM      6  C   UNL     1       3.224   6.402  19.282  0.00  0.00    +0.000 A 
ENDROOT
BRANCH   5   7
ATOM      7  N   UNL     1       4.379   4.452  18.437  0.00  0.00    +0.000 N 
ATOM      8  C   UNL     1       4.657   4.805  17.126  0.00  0.00    +0.000 C 
ATOM      9  O   UNL     1       4.131   5.735  16.525  0.00  0.00    +0.000 OA
ATOM     10  N   UNL     1       5.578   3.937  16.555  0.00  0.00    +0.000 N 
ATOM     11  H   UNL     1       5.139   4.004  18.928  0.00  0.00    +0.000 HD
ATOM     12  H   UNL     1       5.493   2.982  16.870  0.00  0.00    +0.000 HD
BRANCH  10  13
ATOM     13  C   UNL     1       6.049   4.129  15.236  0.00  0.00    +0.000 A 
ATOM     14  C   UNL     1       5.447   3.490  14.144  0.00  0.00    +0.000 A 
ATOM     15  C   UNL     1       5.959   3.661  12.857  0.00  0.00    +0.000 A 
ATOM     16  C   UNL     1       7.078   4.462  12.670  0.00  0.00    +0.000 A 
ATOM     17  F   UNL     1       7.592   4.603  11.441  0.00  0.00    +0.000 F 
ATOM     18  C   UNL     1       7.677   5.115  13.741  0.00  0.00    +0.000 A 
ATOM     19  C   UNL     1       7.147   4.970  15.026  0.00  0.00    +0.000 A 
ENDBRANCH  10  13
ENDBRANCH   5   7
BRANCH   1  20
ATOM     20  C   UNL     1       1.992   8.509  19.989  0.00  0.00    +0.000 C 
BRANCH  20  28
ATOM     21  C   UNL     1      -3.348  11.350  17.589  0.00  0.00    +0.000 A 
ATOM     22  C   UNL     1      -2.869  11.905  18.787  0.00  0.00    +0.000 A 
ATOM     23  C   UNL     1      -1.713  11.461  19.416  0.00  0.00    +0.000 A 
ATOM     24  N   UNL     1      -1.302  12.110  20.506  0.00  0.00    +0.000 NA
ATOM     25  C   UNL     1      -0.161  11.686  21.054  0.00  0.00    +0.000 A 
ATOM     26  N   UNL     1       0.574  10.649  20.643  0.00  0.00    +0.000 NA
ATOM     27  C   UNL     1       0.130   9.974  19.567  0.00  0.00    +0.000 A 
ATOM     28  N   UNL     1       0.885   8.868  19.108  0.00  0.00    +0.000 N 
ATOM     29  C   UNL     1      -1.027  10.373  18.873  0.00  0.00    +0.000 A 
ATOM     30  C   UNL     1      -1.526   9.776  17.689  0.00  0.00    +0.000 A 
ATOM     31  C   UNL     1      -2.672  10.256  17.037  0.00  0.00    +0.000 A 
ATOM     32  H   UNL     1       0.269   8.078  18.945  0.00  0.00    +0.000 HD
BRANCH  21  34
ATOM     33  C   UNL     1      -5.581  12.101  17.830  0.00  0.00    +0.000 C 
ATOM     34  O   UNL     1      -4.466  11.844  16.970  0.00  0.00    +0.000 OA
ENDBRANCH  21  34
BRANCH  31  35
ATOM     35  O   UNL     1      -2.939   9.549  15.898  0.00  0.00    +0.000 OA
ATOM     36  C   UNL     1      -2.923  10.192  14.636  0.00  0.00    +0.000 C 
ENDBRANCH  31  35
ENDBRANCH  20  28
ENDBRANCH   1  20
TORSDOF 6
ENDMDL
MODEL 5
REMARK VINA RESULT:      -8.6      4.920     11.675
REMARK  Name = 
REMARK  8 active torsions:
REMARK  status: ('A' for Active; 'I' for Inactive)
REMARK    1  A    between atoms: C_1  and  O_2
REMARK    2  A    between atoms: O_2  and  C_3
REMARK    3  A    between atoms: N_10  and  C_11
REMARK    4  A    between atoms: C_11  and  C_12
REMARK    5  A    between atoms: C_16  and  N_17
REMARK    6  A    between atoms: N_20  and  C_21
REMARK    7  A    between atoms: C_31  and  O_32
REMARK    8  A    between atoms: O_32  and  C_33
REMARK                            x       y       z     vdW  Elec       q    Type
REMARK                         _______ _______ _______ _____ _____    ______ ____
ROOT
ATOM      1  C   UNL     1       1.528   8.216  20.266  0.00  0.00    +0.000 A 
ATOM      2  C   UNL     1       1.640   8.916  19.062  0.00  0.00    +0.000 A 
ATOM      3  C   UNL     1       0.967  10.124  18.885  0.00  0.00    +0.000 A 
ATOM      4  C   UNL     1       0.173  10.638  19.912  0.00  0.00    +0.000 A 
ATOM      5  C   UNL     1       0.046   9.958  21.126  0.00  0.00    +0.000 A 
ATOM      6  C   UNL     1       0.751   8.764  21.308  0.00  0.00    +0.000 A 
ENDROOT
BRANCH   5   7
ATOM      7  N   UNL     1      -0.757  10.438  22.187  0.00  0.00    +0.000 N 
ATOM      8  C   UNL     1      -1.507  11.602  22.149  0.00  0.00    +0.000 C 
ATOM      9  O   UNL     1      -1.676  12.292  21.150  0.00  0.00    +0.000 OA
ATOM     10  N   UNL     1      -2.007  11.922  23.404  0.00  0.00    +0.000 N 
ATOM     11  H   UNL     1      -1.045   9.769  22.886  0.00  0.00    +0.000 HD
ATOM     12  H   UNL     1      -1.390  11.680  24.166  0.00  0.00    +0.000 HD
BRANCH  10  13
ATOM     13  C   UNL     1      -2.841  13.047  23.598  0.00  0.00    +0.000 A 
ATOM     14  C   UNL     1      -2.312  14.305  23.912  0.00  0.00    +0.000 A 
ATOM     15  C   UNL     1      -3.160  15.389  24.142  0.00  0.00    +0.000 A 
ATOM     16  C   UNL     1      -4.535  15.206  24.070  0.00  0.00    +0.000 A 
ATOM     17  F   UNL     1      -5.353  16.236  24.322  0.00  0.00    +0.000 F 
ATOM     18  C   UNL     1      -5.074  13.967  23.744  0.00  0.00    +0.000 A 
ATOM     19  C   UNL     1      -4.226  12.888  23.482  0.00  0.00    +0.000 A 
ENDBRANCH  10  13
ENDBRANCH   5   7
BRANCH   1  20
ATOM     20  C   UNL     1       2.205   6.874  20.429  0.00  0.00    +0.000 C 
BRANCH  20  28
ATOM     21  C   UNL     1       6.133   4.570  15.780  0.00  0.00    +0.000 A 
ATOM     22  C   UNL     1       4.960   3.826  15.987  0.00  0.00    +0.000 A 
ATOM     23  C   UNL     1       3.983   4.196  16.901  0.00  0.00    +0.000 A 
ATOM     24  N   UNL     1       2.869   3.465  16.962  0.00  0.00    +0.000 NA
ATOM     25  C   UNL     1       1.932   3.880  17.817  0.00  0.00    +0.000 A 
ATOM     26  N   UNL     1       2.027   4.923  18.645  0.00  0.00    +0.000 NA
ATOM     27  C   UNL     1       3.169   5.632  18.607  0.00  0.00    +0.000 A 
ATOM     28  N   UNL     1       3.301   6.743  19.474  0.00  0.00    +0.000 N 
ATOM     29  C   UNL     1       4.199   5.322  17.699  0.00  0.00    +0.000 A 
ATOM     30  C   UNL     1       5.399   6.054  17.530  0.00  0.00    +0.000 A 
ATOM     31  C   UNL     1       6.364   5.697  16.576  0.00  0.00    +0.000 A 
ATOM     32  H   UNL     1       4.201   6.704  19.943  0.00  0.00    +0.000 HD
BRANCH  21  34
ATOM     33  C   UNL     1       6.538   3.994  13.518  0.00  0.00    +0.000 C 
ATOM     34  O   UNL     1       7.055   4.201  14.836  0.00  0.00    +0.000 OA
ENDBRANCH  21  34
BRANCH  31  35
ATOM     35  O   UNL     1       7.416   6.570  16.569  0.00  0.00    +0.000 OA
ATOM     36  C   UNL     1       7.500   7.597  17.542  0.00  0.00    +0.000 C 
ENDBRANCH  31  35
ENDBRANCH  20  28
ENDBRANCH   1  20
TORSDOF 6
ENDMDL
MODEL 6
REMARK VINA RESULT:      -8.6      4.712      9.967
REMARK  Name = 
REMARK  8 active torsions:
REMARK  status: ('A' for Active; 'I' for Inactive)
REMARK    1  A    between atoms: C_1  and  O_2
REMARK    2  A    between atoms: O_2  and  C_3
REMARK    3  A    between atoms: N_10  and  C_11
REMARK    4  A    between atoms: C_11  and  C_12
REMARK    5  A    between atoms: C_16  and  N_17
REMARK    6  A    between atoms: N_20  and  C_21
REMARK    7  A    between atoms: C_31  and  O_32
REMARK    8  A    between atoms: O_32  and  C_33
REMARK                            x       y       z     vdW  Elec       q    Type
REMARK                         _______ _______ _______ _____ _____    ______ ____
ROOT
ATOM      1  C   UNL     1       0.826   8.382  20.960  0.00  0.00    +0.000 A 
ATOM      2  C   UNL     1      -0.190   8.642  21.883  0.00  0.00    +0.000 A 
ATOM      3  C   UNL     1      -0.681   9.937  22.043  0.00  0.00    +0.000 A 
ATOM      4  C   UNL     1      -0.154  10.983  21.283  0.00  0.00    +0.000 A 
ATOM      5  C   UNL     1       0.861  10.749  20.352  0.00  0.00    +0.000 A 
ATOM      6  C   UNL     1       1.325   9.441  20.173  0.00  0.00    +0.000 A 
ENDROOT
BRANCH   5   7
ATOM      7  N   UNL     1       1.430  11.781  19.571  0.00  0.00    +0.000 N 
ATOM      8  C   UNL     1       2.181  12.832  20.073  0.00  0.00    +0.000 C 
ATOM      9  O   UNL     1       2.559  12.929  21.235  0.00  0.00    +0.000 OA
ATOM     10  N   UNL     1       2.412  13.797  19.101  0.00  0.00    +0.000 N 
ATOM     11  H   UNL     1       1.562  11.596  18.588  0.00  0.00    +0.000 HD
ATOM     12  H   UNL     1       1.649  13.916  18.451  0.00  0.00    +0.000 HD
BRANCH  10  13
ATOM     13  C   UNL     1       3.197  14.941  19.373  0.00  0.00    +0.000 A 
ATOM     14  C   UNL     1       2.633  16.103  19.916  0.00  0.00    +0.000 A 
ATOM     15  C   UNL     1       3.421  17.234  20.133  0.00  0.00    +0.000 A 
ATOM     16  C   UNL     1       4.768  17.201  19.795  0.00  0.00    +0.000 A 
ATOM     17  F   UNL     1       5.520  18.295  19.971  0.00  0.00    +0.000 F 
ATOM     18  C   UNL     1       5.344  16.051  19.269  0.00  0.00    +0.000 A 
ATOM     19  C   UNL     1       4.564  14.907  19.080  0.00  0.00    +0.000 A 
ENDBRANCH  10  13
ENDBRANCH   5   7
BRANCH   1  20
ATOM     20  C   UNL     1       1.401   6.989  20.837  0.00  0.00    +0.000 C 
BRANCH  20  28
ATOM     21  C   UNL     1       5.544   4.973  16.241  0.00  0.00    +0.000 A 
ATOM     22  C   UNL     1       4.573   4.032  16.617  0.00  0.00    +0.000 A 
ATOM     23  C   UNL     1       3.576   4.305  17.545  0.00  0.00    +0.000 A 
ATOM     24  N   UNL     1       2.654   3.368  17.770  0.00  0.00    +0.000 NA
ATOM     25  C   UNL     1       1.684   3.685  18.631  0.00  0.00    +0.000 A 
ATOM     26  N   UNL     1       1.582   4.826  19.318  0.00  0.00    +0.000 NA
ATOM     27  C   UNL     1       2.539   5.749  19.116  0.00  0.00    +0.000 A 
ATOM     28  N   UNL     1       2.459   6.968  19.832  0.00  0.00    +0.000 N 
ATOM     29  C   UNL     1       3.573   5.546  18.184  0.00  0.00    +0.000 A 
ATOM     30  C   UNL     1       4.576   6.487  17.846  0.00  0.00    +0.000 A 
ATOM     31  C   UNL     1       5.555   6.219  16.878  0.00  0.00    +0.000 A 
ATOM     32  H   UNL     1       3.364   7.183  20.239  0.00  0.00    +0.000 HD
BRANCH  21  34
ATOM     33  C   UNL     1       5.975   4.171  14.054  0.00  0.00    +0.000 C 
ATOM     34  O   UNL     1       6.485   4.686  15.288  0.00  0.00    +0.000 OA
ENDBRANCH  21  34
BRANCH  31  35
ATOM     35  O   UNL     1       6.389   7.286  16.693  0.00  0.00    +0.000 OA
ATOM     36  C   UNL     1       7.507   7.477  17.543  0.00  0.00    +0.000 C 
ENDBRANCH  31  35
ENDBRANCH  20  28
ENDBRANCH   1  20
TORSDOF 6
ENDMDL
MODEL 7
REMARK VINA RESULT:      -8.4      5.044     11.840
REMARK  Name = 
REMARK  8 active torsions:
REMARK  status: ('A' for Active; 'I' for Inactive)
REMARK    1  A    between atoms: C_1  and  O_2
REMARK    2  A    between atoms: O_2  and  C_3
REMARK    3  A    between atoms: N_10  and  C_11
REMARK    4  A    between atoms: C_11  and  C_12
REMARK    5  A    between atoms: C_16  and  N_17
REMARK    6  A    between atoms: N_20  and  C_21
REMARK    7  A    between atoms: C_31  and  O_32
REMARK    8  A    between atoms: O_32  and  C_33
REMARK                            x       y       z     vdW  Elec       q    Type
REMARK                         _______ _______ _______ _____ _____    ______ ____
ROOT
ATOM      1  C   UNL     1       1.149   8.336  20.629  0.00  0.00    +0.000 A 
ATOM      2  C   UNL     1       1.358   9.023  19.431  0.00  0.00    +0.000 A 
ATOM      3  C   UNL     1       0.856  10.313  19.262  0.00  0.00    +0.000 A 
ATOM      4  C   UNL     1       0.137  10.923  20.292  0.00  0.00    +0.000 A 
ATOM      5  C   UNL     1      -0.084  10.257  21.501  0.00  0.00    +0.000 A 
ATOM      6  C   UNL     1       0.452   8.977  21.674  0.00  0.00    +0.000 A 
ENDROOT
BRANCH   5   7
ATOM      7  N   UNL     1      -0.817  10.833  22.564  0.00  0.00    +0.000 N 
ATOM      8  C   UNL     1      -1.815  11.782  22.415  0.00  0.00    +0.000 C 
ATOM      9  O   UNL     1      -2.282  12.144  21.341  0.00  0.00    +0.000 OA
ATOM     10  N   UNL     1      -2.192  12.316  23.640  0.00  0.00    +0.000 N 
ATOM     11  H   UNL     1      -0.838  10.327  23.437  0.00  0.00    +0.000 HD
ATOM     12  H   UNL     1      -1.433  12.402  24.301  0.00  0.00    +0.000 HD
BRANCH  10  13
ATOM     13  C   UNL     1      -3.229  13.272  23.739  0.00  0.00    +0.000 A 
ATOM     14  C   UNL     1      -4.577  12.891  23.746  0.00  0.00    +0.000 A 
ATOM     15  C   UNL     1      -5.582  13.857  23.799  0.00  0.00    +0.000 A 
ATOM     16  C   UNL     1      -5.234  15.202  23.833  0.00  0.00    +0.000 A 
ATOM     17  F   UNL     1      -6.196  16.133  23.851  0.00  0.00    +0.000 F 
ATOM     18  C   UNL     1      -3.900  15.594  23.842  0.00  0.00    +0.000 A 
ATOM     19  C   UNL     1      -2.892  14.627  23.821  0.00  0.00    +0.000 A 
ENDBRANCH  10  13
ENDBRANCH   5   7
BRANCH   1  20
ATOM     20  C   UNL     1       1.638   6.913  20.783  0.00  0.00    +0.000 C 
BRANCH  20  28
ATOM     21  C   UNL     1       6.076   4.477  16.694  0.00  0.00    +0.000 A 
ATOM     22  C   UNL     1       4.814   3.864  16.633  0.00  0.00    +0.000 A 
ATOM     23  C   UNL     1       3.732   4.285  17.394  0.00  0.00    +0.000 A 
ATOM     24  N   UNL     1       2.556   3.688  17.200  0.00  0.00    +0.000 NA
ATOM     25  C   UNL     1       1.528   4.153  17.914  0.00  0.00    +0.000 A 
ATOM     26  N   UNL     1       1.581   5.121  18.833  0.00  0.00    +0.000 NA
ATOM     27  C   UNL     1       2.779   5.690  19.053  0.00  0.00    +0.000 A 
ATOM     28  N   UNL     1       2.868   6.718  20.022  0.00  0.00    +0.000 N 
ATOM     29  C   UNL     1       3.917   5.322  18.311  0.00  0.00    +0.000 A 
ATOM     30  C   UNL     1       5.198   5.917  18.415  0.00  0.00    +0.000 A 
ATOM     31  C   UNL     1       6.276   5.513  17.613  0.00  0.00    +0.000 A 
ATOM     32  H   UNL     1       3.660   6.542  20.633  0.00  0.00    +0.000 HD
BRANCH  21  34
ATOM     33  C   UNL     1       7.134   4.633  14.580  0.00  0.00    +0.000 C 
ATOM     34  O   UNL     1       7.109   4.065  15.894  0.00  0.00    +0.000 OA
ENDBRANCH  21  34
BRANCH  31  35
ATOM     35  O   UNL     1       7.397   6.254  17.862  0.00  0.00    +0.000 OA
ATOM     36  C   UNL     1       7.474   7.603  17.433  0.00  0.00    +0.000 C 
ENDBRANCH  31  35
ENDBRANCH  20  28
ENDBRANCH   1  20
TORSDOF 6
ENDMDL
MODEL 8
REMARK VINA RESULT:      -8.4      2.072      3.593
REMARK  Name = 
REMARK  8 active torsions:
REMARK  status: ('A' for Active; 'I' for Inactive)
REMARK    1  A    between atoms: C_1  and  O_2
REMARK    2  A    between atoms: O_2  and  C_3
REMARK    3  A    between atoms: N_10  and  C_11
REMARK    4  A    between atoms: C_11  and  C_12
REMARK    5  A    between atoms: C_16  and  N_17
REMARK    6  A    between atoms: N_20  and  C_21
REMARK    7  A    between atoms: C_31  and  O_32
REMARK    8  A    between atoms: O_32  and  C_33
REMARK                            x       y       z     vdW  Elec       q    Type
REMARK                         _______ _______ _______ _____ _____    ______ ____
ROOT
ATOM      1  C   UNL     1       0.498   9.763  19.564  0.00  0.00    +0.000 A 
ATOM      2  C   UNL     1       0.149   9.949  20.904  0.00  0.00    +0.000 A 
ATOM      3  C   UNL     1       0.630   9.080  21.883  0.00  0.00    +0.000 A 
ATOM      4  C   UNL     1       1.461   8.016  21.527  0.00  0.00    +0.000 A 
ATOM      5  C   UNL     1       1.825   7.810  20.194  0.00  0.00    +0.000 A 
ATOM      6  C   UNL     1       1.367   8.706  19.222  0.00  0.00    +0.000 A 
ENDROOT
BRANCH   5   7
ATOM      7  N   UNL     1       2.654   6.738  19.789  0.00  0.00    +0.000 N 
ATOM      8  C   UNL     1       3.465   6.745  18.666  0.00  0.00    +0.000 C 
ATOM      9  O   UNL     1       3.669   7.724  17.957  0.00  0.00    +0.000 OA
ATOM     10  N   UNL     1       3.983   5.483  18.409  0.00  0.00    +0.000 N 
ATOM     11  H   UNL     1       2.907   6.059  20.492  0.00  0.00    +0.000 HD
ATOM     12  H   UNL     1       3.356   4.727  18.640  0.00  0.00    +0.000 HD
BRANCH  10  13
ATOM     13  C   UNL     1       4.877   5.259  17.336  0.00  0.00    +0.000 A 
ATOM     14  C   UNL     1       6.133   5.876  17.289  0.00  0.00    +0.000 A 
ATOM     15  C   UNL     1       6.978   5.673  16.197  0.00  0.00    +0.000 A 
ATOM     16  C   UNL     1       6.556   4.863  15.151  0.00  0.00    +0.000 A 
ATOM     17  F   UNL     1       7.351   4.692  14.087  0.00  0.00    +0.000 F 
ATOM     18  C   UNL     1       5.319   4.232  15.190  0.00  0.00    +0.000 A 
ATOM     19  C   UNL     1       4.484   4.408  16.298  0.00  0.00    +0.000 A 
ENDBRANCH  10  13
ENDBRANCH   5   7
BRANCH   1  20
ATOM     20  C   UNL     1      -0.078  10.667  18.498  0.00  0.00    +0.000 C 
BRANCH  20  28
ATOM     21  C   UNL     1      -6.335  12.433  18.226  0.00  0.00    +0.000 A 
ATOM     22  C   UNL     1      -5.806  11.942  17.022  0.00  0.00    +0.000 A 
ATOM     23  C   UNL     1      -4.505  11.471  16.907  0.00  0.00    +0.000 A 
ATOM     24  N   UNL     1      -4.127  10.949  15.739  0.00  0.00    +0.000 NA
ATOM     25  C   UNL     1      -2.886  10.461  15.680  0.00  0.00    +0.000 A 
ATOM     26  N   UNL     1      -1.979  10.493  16.661  0.00  0.00    +0.000 NA
ATOM     27  C   UNL     1      -2.354  11.058  17.822  0.00  0.00    +0.000 A 
ATOM     28  N   UNL     1      -1.415  11.109  18.880  0.00  0.00    +0.000 N 
ATOM     29  C   UNL     1      -3.660  11.547  18.016  0.00  0.00    +0.000 A 
ATOM     30  C   UNL     1      -4.170  12.084  19.223  0.00  0.00    +0.000 A 
ATOM     31  C   UNL     1      -5.498  12.520  19.344  0.00  0.00    +0.000 A 
ATOM     32  H   UNL     1      -1.399  12.043  19.277  0.00  0.00    +0.000 HD
BRANCH  21  34
ATOM     33  C   UNL     1      -7.916  14.134  17.755  0.00  0.00    +0.000 C 
ATOM     34  O   UNL     1      -7.638  12.847  18.317  0.00  0.00    +0.000 OA
ENDBRANCH  21  34
BRANCH  31  35
ATOM     35  O   UNL     1      -5.772  12.961  20.608  0.00  0.00    +0.000 OA
ATOM     36  C   UNL     1      -4.740  13.049  21.576  0.00  0.00    +0.000 C 
ENDBRANCH  31  35
ENDBRANCH  20  28
ENDBRANCH   1  20
TORSDOF 6
ENDMDL
MODEL 9
REMARK VINA RESULT:      -8.4      5.813      8.560
REMARK  Name = 
REMARK  8 active torsions:
REMARK  status: ('A' for Active; 'I' for Inactive)
REMARK    1  A    between atoms: C_1  and  O_2
REMARK    2  A    between atoms: O_2  and  C_3
REMARK    3  A    between atoms: N_10  and  C_11
REMARK    4  A    between atoms: C_11  and  C_12
REMARK    5  A    between atoms: C_16  and  N_17
REMARK    6  A    between atoms: N_20  and  C_21
REMARK    7  A    between atoms: C_31  and  O_32
REMARK    8  A    between atoms: O_32  and  C_33
REMARK                            x       y       z     vdW  Elec       q    Type
REMARK                         _______ _______ _______ _____ _____    ______ ____
ROOT
ATOM      1  C   UNL     1       1.687  12.686  18.544  0.00  0.00    +0.000 A 
ATOM      2  C   UNL     1       0.553  12.663  19.359  0.00  0.00    +0.000 A 
ATOM      3  C   UNL     1      -0.074  11.454  19.658  0.00  0.00    +0.000 A 
ATOM      4  C   UNL     1       0.427  10.259  19.138  0.00  0.00    +0.000 A 
ATOM      5  C   UNL     1       1.561  10.256  18.321  0.00  0.00    +0.000 A 
ATOM      6  C   UNL     1       2.205  11.469  18.054  0.00  0.00    +0.000 A 
ENDROOT
BRANCH   5   7
ATOM      7  N   UNL     1       2.094   9.070  17.764  0.00  0.00    +0.000 N 
ATOM      8  C   UNL     1       2.372   7.916  18.477  0.00  0.00    +0.000 C 
ATOM      9  O   UNL     1       2.069   7.728  19.650  0.00  0.00    +0.000 OA
ATOM     10  N   UNL     1       3.088   7.008  17.709  0.00  0.00    +0.000 N 
ATOM     11  H   UNL     1       1.989   8.940  16.769  0.00  0.00    +0.000 HD
ATOM     12  H   UNL     1       3.737   7.436  17.065  0.00  0.00    +0.000 HD
BRANCH  10  13
ATOM     13  C   UNL     1       3.445   5.737  18.215  0.00  0.00    +0.000 A 
ATOM     14  C   UNL     1       4.701   5.505  18.792  0.00  0.00    +0.000 A 
ATOM     15  C   UNL     1       5.044   4.229  19.243  0.00  0.00    +0.000 A 
ATOM     16  C   UNL     1       4.134   3.189  19.104  0.00  0.00    +0.000 A 
ATOM     17  F   UNL     1       4.472   1.958  19.507  0.00  0.00    +0.000 F 
ATOM     18  C   UNL     1       2.879   3.408  18.548  0.00  0.00    +0.000 A 
ATOM     19  C   UNL     1       2.521   4.691  18.125  0.00  0.00    +0.000 A 
ENDBRANCH  10  13
ENDBRANCH   5   7
BRANCH   1  20
ATOM     20  C   UNL     1       2.325  14.005  18.169  0.00  0.00    +0.000 C 
BRANCH  20  28
ATOM     21  C   UNL     1       8.697  15.318  18.025  0.00  0.00    +0.000 A 
ATOM     22  C   UNL     1       7.877  16.400  18.384  0.00  0.00    +0.000 A 
ATOM     23  C   UNL     1       6.499  16.291  18.516  0.00  0.00    +0.000 A 
ATOM     24  N   UNL     1       5.823  17.359  18.941  0.00  0.00    +0.000 NA
ATOM     25  C   UNL     1       4.507  17.203  19.104  0.00  0.00    +0.000 A 
ATOM     26  N   UNL     1       3.805  16.099  18.835  0.00  0.00    +0.000 NA
ATOM     27  C   UNL     1       4.489  15.039  18.367  0.00  0.00    +0.000 A 
ATOM     28  N   UNL     1       3.773  13.854  18.070  0.00  0.00    +0.000 N 
ATOM     29  C   UNL     1       5.888  15.072  18.218  0.00  0.00    +0.000 A 
ATOM     30  C   UNL     1       6.700  13.986  17.810  0.00  0.00    +0.000 A 
ATOM     31  C   UNL     1       8.096  14.092  17.718  0.00  0.00    +0.000 A 
ATOM     32  H   UNL     1       4.050  13.509  17.156  0.00  0.00    +0.000 HD
BRANCH  21  34
ATOM     33  C   UNL     1      10.534  16.391  16.982  0.00  0.00    +0.000 C 
ATOM     34  O   UNL     1      10.058  15.448  17.949  0.00  0.00    +0.000 OA
ENDBRANCH  21  34
BRANCH  31  35
ATOM     35  O   UNL     1       8.669  12.909  17.344  0.00  0.00    +0.000 OA
ATOM     36  C   UNL     1       9.256  12.058  18.314  0.00  0.00    +0.000 C 
ENDBRANCH  31  35
ENDBRANCH  20  28
ENDBRANCH   1  20
TORSDOF 6
ENDMDL
