MODEL 1
REMARK VINA RESULT:      -6.7      0.000      0.000
REMARK  Name = 
REMARK  6 active torsions:
REMARK  status: ('A' for Active; 'I' for Inactive)
REMARK    1  A    between atoms: C_1  and  C_2
REMARK    2  A    between atoms: N_5  and  C_6
REMARK    3  A    between atoms: C_8  and  C_9
REMARK    4  A    between atoms: C_9  and  O_10
REMARK    5  A    between atoms: C_12  and  C_14
REMARK    6  A    between atoms: C_14  and  C_15
REMARK                            x       y       z     vdW  Elec       q    Type
REMARK                         _______ _______ _______ _____ _____    ______ ____
ROOT
ATOM      1  C   UNL     1       1.180   8.518  21.625  0.00  0.00    +0.000 C 
ATOM      2  C   UNL     1       0.670   9.333  20.444  0.00  0.00    +0.000 C 
ATOM      3  C   UNL     1       0.741  10.857  20.802  0.00  0.00    +0.000 C 
ATOM      4  O   UNL     1       0.758  11.252  21.968  0.00  0.00    +0.000 OA
ATOM      5  N   UNL     1       0.469  11.717  19.743  0.00  0.00    +0.000 N 
ATOM      6  C   UNL     1      -0.205  12.979  19.976  0.00  0.00    +0.000 C 
ATOM      7  C   UNL     1       0.885  11.376  18.387  0.00  0.00    +0.000 C 
ATOM      8  C   UNL     1       0.482   9.940  18.035  0.00  0.00    +0.000 C 
ATOM      9  N   UNL     1       1.076   9.008  19.041  0.00  0.00    +0.000 N 
ATOM     10  C   UNL     1       2.216   8.324  18.606  0.00  0.00    +0.000 C 
ATOM     11  O   UNL     1       2.703   8.560  17.489  0.00  0.00    +0.000 OA
ENDROOT
BRANCH   8  12
ATOM     12  C   UNL     1      -1.051   9.829  17.918  0.00  0.00    +0.000 C 
BRANCH  12  13
ATOM     13  O   UNL     1      -1.577  10.835  17.062  0.00  0.00    +0.000 OA
ATOM     14  H   UNL     1      -2.304  10.425  16.559  0.00  0.00    +0.000 HD
ENDBRANCH  12  13
ENDBRANCH   8  12
BRANCH  10  15
ATOM     15  C   UNL     1       2.847   7.213  19.424  0.00  0.00    +0.000 C 
BRANCH  15  16
ATOM     16  C   UNL     1       2.277   5.832  19.200  0.00  0.00    +0.000 A 
ATOM     17  C   UNL     1       1.985   5.350  17.916  0.00  0.00    +0.000 A 
ATOM     18  C   UNL     1       1.463   4.067  17.736  0.00  0.00    +0.000 A 
ATOM     19  C   UNL     1       1.211   3.253  18.839  0.00  0.00    +0.000 A 
ATOM     20  C   UNL     1       1.467   3.732  20.119  0.00  0.00    +0.000 A 
ATOM     21 CL   UNL     1       1.153   2.733  21.484  0.00  0.00    +0.000 Cl
ATOM     22  C   UNL     1       1.983   5.016  20.306  0.00  0.00    +0.000 A 
ENDBRANCH  15  16
ENDBRANCH  10  15
TORSDOF 4
ENDMDL
MODEL 2
REMARK VINA RESULT:      -6.5      1.792      2.056
REMARK  Name = 
REMARK  6 active torsions:
REMARK  status: ('A' for Active; 'I' for Inactive)
REMARK    1  A    between atoms: C_1  and  C_2
REMARK    2  A    between atoms: N_5  and  C_6
REMARK    3  A    between atoms: C_8  and  C_9
REMARK    4  A    between atoms: C_9  and  O_10
REMARK    5  A    between atoms: C_12  and  C_14
REMARK    6  A    between atoms: C_14  and  C_15
REMARK                            x       y       z     vdW  Elec       q    Type
REMARK                         _______ _______ _______ _____ _____    ______ ____
ROOT
ATOM      1  C   UNL     1       0.977   8.510  21.584  0.00  0.00    +0.000 C 
ATOM      2  C   UNL     1       0.514   9.413  20.449  0.00  0.00    +0.000 C 
ATOM      3  C   UNL     1       0.666  10.910  20.888  0.00  0.00    +0.000 C 
ATOM      4  O   UNL     1       0.702  11.241  22.073  0.00  0.00    +0.000 OA
ATOM      5  N   UNL     1       0.443  11.839  19.876  0.00  0.00    +0.000 N 
ATOM      6  C   UNL     1      -0.162  13.121  20.176  0.00  0.00    +0.000 C 
ATOM      7  C   UNL     1       0.843  11.548  18.503  0.00  0.00    +0.000 C 
ATOM      8  C   UNL     1       0.365  10.156  18.075  0.00  0.00    +0.000 C 
ATOM      9  N   UNL     1       0.905   9.142  19.030  0.00  0.00    +0.000 N 
ATOM     10  C   UNL     1       2.008   8.422  18.559  0.00  0.00    +0.000 C 
ATOM     11  O   UNL     1       2.510   8.690  17.455  0.00  0.00    +0.000 OA
ENDROOT
BRANCH   8  12
ATOM     12  C   UNL     1      -1.172  10.135  17.954  0.00  0.00    +0.000 C 
BRANCH  12  13
ATOM     13  O   UNL     1      -1.638  11.189  17.121  0.00  0.00    +0.000 OA
ATOM     14  H   UNL     1      -1.621  10.854  16.207  0.00  0.00    +0.000 HD
ENDBRANCH  12  13
ENDBRANCH   8  12
BRANCH  10  15
ATOM     15  C   UNL     1       2.576   7.236  19.316  0.00  0.00    +0.000 C 
BRANCH  15  16
ATOM     16  C   UNL     1       2.791   5.982  18.501  0.00  0.00    +0.000 A 
ATOM     17  C   UNL     1       1.799   5.000  18.375  0.00  0.00    +0.000 A 
ATOM     18  C   UNL     1       2.022   3.852  17.612  0.00  0.00    +0.000 A 
ATOM     19  C   UNL     1       3.247   3.662  16.975  0.00  0.00    +0.000 A 
ATOM     20  C   UNL     1       4.251   4.614  17.119  0.00  0.00    +0.000 A 
ATOM     21 CL   UNL     1       5.767   4.383  16.338  0.00  0.00    +0.000 Cl
ATOM     22  C   UNL     1       4.036   5.761  17.885  0.00  0.00    +0.000 A 
ENDBRANCH  15  16
ENDBRANCH  10  15
TORSDOF 4
ENDMDL
MODEL 3
REMARK VINA RESULT:      -6.5      1.006      1.133
REMARK  Name = 
REMARK  6 active torsions:
REMARK  status: ('A' for Active; 'I' for Inactive)
REMARK    1  A    between atoms: C_1  and  C_2
REMARK    2  A    between atoms: N_5  and  C_6
REMARK    3  A    between atoms: C_8  and  C_9
REMARK    4  A    between atoms: C_9  and  O_10
REMARK    5  A    between atoms: C_12  and  C_14
REMARK    6  A    between atoms: C_14  and  C_15
REMARK                            x       y       z     vdW  Elec       q    Type
REMARK                         _______ _______ _______ _____ _____    ______ ____
ROOT
ATOM      1  C   UNL     1       0.926   8.362  21.670  0.00  0.00    +0.000 C 
ATOM      2  C   UNL     1       0.547   9.269  20.508  0.00  0.00    +0.000 C 
ATOM      3  C   UNL     1       0.696  10.765  20.953  0.00  0.00    +0.000 C 
ATOM      4  O   UNL     1       0.666  11.098  22.138  0.00  0.00    +0.000 OA
ATOM      5  N   UNL     1       0.550  11.694  19.928  0.00  0.00    +0.000 N 
ATOM      6  C   UNL     1      -0.051  12.987  20.189  0.00  0.00    +0.000 C 
ATOM      7  C   UNL     1       1.028  11.393  18.582  0.00  0.00    +0.000 C 
ATOM      8  C   UNL     1       0.553  10.009  18.129  0.00  0.00    +0.000 C 
ATOM      9  N   UNL     1       1.019   8.989  19.116  0.00  0.00    +0.000 N 
ATOM     10  C   UNL     1       2.136   8.249  18.714  0.00  0.00    +0.000 C 
ATOM     11  O   UNL     1       2.708   8.506  17.642  0.00  0.00    +0.000 OA
ENDROOT
BRANCH   8  12
ATOM     12  C   UNL     1      -0.973  10.012  17.915  0.00  0.00    +0.000 C 
BRANCH  12  13
ATOM     13  O   UNL     1      -1.394  11.177  17.217  0.00  0.00    +0.000 OA
ATOM     14  H   UNL     1      -2.264  11.424  17.579  0.00  0.00    +0.000 HD
ENDBRANCH  12  13
ENDBRANCH   8  12
BRANCH  10  15
ATOM     15  C   UNL     1       2.638   7.056  19.505  0.00  0.00    +0.000 C 
BRANCH  15  16
ATOM     16  C   UNL     1       2.685   5.746  18.755  0.00  0.00    +0.000 A 
ATOM     17  C   UNL     1       3.645   5.492  17.766  0.00  0.00    +0.000 A 
ATOM     18  C   UNL     1       3.668   4.270  17.090  0.00  0.00    +0.000 A 
ATOM     19  C   UNL     1       2.722   3.289  17.383  0.00  0.00    +0.000 A 
ATOM     20  C   UNL     1       1.745   3.542  18.340  0.00  0.00    +0.000 A 
ATOM     21 CL   UNL     1       0.571   2.337  18.702  0.00  0.00    +0.000 Cl
ATOM     22  C   UNL     1       1.712   4.764  19.014  0.00  0.00    +0.000 A 
ENDBRANCH  15  16
ENDBRANCH  10  15
TORSDOF 4
ENDMDL
MODEL 4
REMARK VINA RESULT:      -6.4      5.295      7.786
REMARK  Name = 
REMARK  6 active torsions:
REMARK  status: ('A' for Active; 'I' for Inactive)
REMARK    1  A    between atoms: C_1  and  C_2
REMARK    2  A    between atoms: N_5  and  C_6
REMARK    3  A    between atoms: C_8  and  C_9
REMARK    4  A    between atoms: C_9  and  O_10
REMARK    5  A    between atoms: C_12  and  C_14
REMARK    6  A    between atoms: C_14  and  C_15
REMARK                            x       y       z     vdW  Elec       q    Type
REMARK                         _______ _______ _______ _____ _____    ______ ____
ROOT
ATOM      1  C   UNL     1       3.504   6.412  17.993  0.00  0.00    +0.000 C 
ATOM      2  C   UNL     1       3.441   4.920  18.286  0.00  0.00    +0.000 C 
ATOM      3  C   UNL     1       1.962   4.426  18.128  0.00  0.00    +0.000 C 
ATOM      4  O   UNL     1       1.005   5.196  18.218  0.00  0.00    +0.000 OA
ATOM      5  N   UNL     1       1.798   3.046  18.195  0.00  0.00    +0.000 N 
ATOM      6  C   UNL     1       0.601   2.476  18.781  0.00  0.00    +0.000 C 
ATOM      7  C   UNL     1       2.814   2.153  17.649  0.00  0.00    +0.000 C 
ATOM      8  C   UNL     1       4.213   2.556  18.128  0.00  0.00    +0.000 C 
ATOM      9  N   UNL     1       4.468   3.977  17.742  0.00  0.00    +0.000 N 
ATOM     10  C   UNL     1       5.288   4.142  16.621  0.00  0.00    +0.000 C 
ATOM     11  O   UNL     1       5.689   3.155  15.983  0.00  0.00    +0.000 OA
ENDROOT
BRANCH   8  12
ATOM     12  C   UNL     1       4.357   2.290  19.639  0.00  0.00    +0.000 C 
BRANCH  12  13
ATOM     13  O   UNL     1       5.220   1.188  19.889  0.00  0.00    +0.000 OA
ATOM     14  H   UNL     1       4.681   0.498  20.317  0.00  0.00    +0.000 HD
ENDBRANCH  12  13
ENDBRANCH   8  12
BRANCH  10  15
ATOM     15  C   UNL     1       5.796   5.506  16.191  0.00  0.00    +0.000 C 
BRANCH  15  16
ATOM     16  C   UNL     1       6.728   6.192  17.161  0.00  0.00    +0.000 A 
ATOM     17  C   UNL     1       7.277   5.520  18.263  0.00  0.00    +0.000 A 
ATOM     18  C   UNL     1       8.140   6.177  19.142  0.00  0.00    +0.000 A 
ATOM     19  C   UNL     1       8.455   7.520  18.942  0.00  0.00    +0.000 A 
ATOM     20  C   UNL     1       7.891   8.206  17.872  0.00  0.00    +0.000 A 
ATOM     21 CL   UNL     1       8.272   9.865  17.622  0.00  0.00    +0.000 Cl
ATOM     22  C   UNL     1       7.023   7.556  16.992  0.00  0.00    +0.000 A 
ENDBRANCH  15  16
ENDBRANCH  10  15
TORSDOF 4
ENDMDL
MODEL 5
REMARK VINA RESULT:      -6.3      1.145      1.493
REMARK  Name = 
REMARK  6 active torsions:
REMARK  status: ('A' for Active; 'I' for Inactive)
REMARK    1  A    between atoms: C_1  and  C_2
REMARK    2  A    between atoms: N_5  and  C_6
REMARK    3  A    between atoms: C_8  and  C_9
REMARK    4  A    between atoms: C_9  and  O_10
REMARK    5  A    between atoms: C_12  and  C_14
REMARK    6  A    between atoms: C_14  and  C_15
REMARK                            x       y       z     vdW  Elec       q    Type
REMARK                         _______ _______ _______ _____ _____    ______ ____
ROOT
ATOM      1  C   UNL     1       1.085   8.643  21.822  0.00  0.00    +0.000 C 
ATOM      2  C   UNL     1       0.634   9.390  20.574  0.00  0.00    +0.000 C 
ATOM      3  C   UNL     1       0.761  10.932  20.823  0.00  0.00    +0.000 C 
ATOM      4  O   UNL     1       0.771  11.410  21.958  0.00  0.00    +0.000 OA
ATOM      5  N   UNL     1       0.548  11.723  19.698  0.00  0.00    +0.000 N 
ATOM      6  C   UNL     1      -0.077  13.024  19.823  0.00  0.00    +0.000 C 
ATOM      7  C   UNL     1       0.978  11.267  18.381  0.00  0.00    +0.000 C 
ATOM      8  C   UNL     1       0.523   9.826  18.123  0.00  0.00    +0.000 C 
ATOM      9  N   UNL     1       1.056   8.948  19.208  0.00  0.00    +0.000 N 
ATOM     10  C   UNL     1       2.176   8.189  18.851  0.00  0.00    +0.000 C 
ATOM     11  O   UNL     1       2.696   8.322  17.732  0.00  0.00    +0.000 OA
ENDROOT
BRANCH   8  12
ATOM     12  C   UNL     1      -1.010   9.769  17.978  0.00  0.00    +0.000 C 
BRANCH  12  13
ATOM     13  O   UNL     1      -1.472  10.704  17.012  0.00  0.00    +0.000 OA
ATOM     14  H   UNL     1      -0.717  11.278  16.792  0.00  0.00    +0.000 HD
ENDBRANCH  12  13
ENDBRANCH   8  12
BRANCH  10  15
ATOM     15  C   UNL     1       2.742   7.115  19.762  0.00  0.00    +0.000 C 
BRANCH  15  16
ATOM     16  C   UNL     1       2.207   5.720  19.540  0.00  0.00    +0.000 A 
ATOM     17  C   UNL     1       1.336   5.107  20.451  0.00  0.00    +0.000 A 
ATOM     18  C   UNL     1       0.853   3.817  20.219  0.00  0.00    +0.000 A 
ATOM     19  C   UNL     1       1.245   3.116  19.081  0.00  0.00    +0.000 A 
ATOM     20  C   UNL     1       2.135   3.702  18.186  0.00  0.00    +0.000 A 
ATOM     21 CL   UNL     1       2.627   2.839  16.781  0.00  0.00    +0.000 Cl
ATOM     22  C   UNL     1       2.626   4.988  18.415  0.00  0.00    +0.000 A 
ENDBRANCH  15  16
ENDBRANCH  10  15
TORSDOF 4
ENDMDL
MODEL 6
REMARK VINA RESULT:      -6.2      1.560      1.946
REMARK  Name = 
REMARK  6 active torsions:
REMARK  status: ('A' for Active; 'I' for Inactive)
REMARK    1  A    between atoms: C_1  and  C_2
REMARK    2  A    between atoms: N_5  and  C_6
REMARK    3  A    between atoms: C_8  and  C_9
REMARK    4  A    between atoms: C_9  and  O_10
REMARK    5  A    between atoms: C_12  and  C_14
REMARK    6  A    between atoms: C_14  and  C_15
REMARK                            x       y       z     vdW  Elec       q    Type
REMARK                         _______ _______ _______ _____ _____    ______ ____
ROOT
ATOM      1  C   UNL     1       0.532   8.632  21.511  0.00  0.00    +0.000 C 
ATOM      2  C   UNL     1       0.137   9.630  20.431  0.00  0.00    +0.000 C 
ATOM      3  C   UNL     1       0.245  11.083  21.009  0.00  0.00    +0.000 C 
ATOM      4  O   UNL     1       0.197  11.307  22.219  0.00  0.00    +0.000 OA
ATOM      5  N   UNL     1       0.082  12.096  20.070  0.00  0.00    +0.000 N 
ATOM      6  C   UNL     1      -0.555  13.345  20.440  0.00  0.00    +0.000 C 
ATOM      7  C   UNL     1       0.576  11.929  18.708  0.00  0.00    +0.000 C 
ATOM      8  C   UNL     1       0.142  10.580  18.128  0.00  0.00    +0.000 C 
ATOM      9  N   UNL     1       0.626   9.487  19.024  0.00  0.00    +0.000 N 
ATOM     10  C   UNL     1       1.766   8.815  18.568  0.00  0.00    +0.000 C 
ATOM     11  O   UNL     1       2.338   9.182  17.529  0.00  0.00    +0.000 OA
ENDROOT
BRANCH   8  12
ATOM     12  C   UNL     1      -1.383  10.563  17.900  0.00  0.00    +0.000 C 
BRANCH  12  13
ATOM     13  O   UNL     1      -1.794  11.648  17.078  0.00  0.00    +0.000 OA
ATOM     14  H   UNL     1      -2.733  11.813  17.278  0.00  0.00    +0.000 HD
ENDBRANCH  12  13
ENDBRANCH   8  12
BRANCH  10  15
ATOM     15  C   UNL     1       2.293   7.569  19.254  0.00  0.00    +0.000 C 
BRANCH  15  16
ATOM     16  C   UNL     1       2.988   6.572  18.357  0.00  0.00    +0.000 A 
ATOM     17  C   UNL     1       4.077   6.933  17.552  0.00  0.00    +0.000 A 
ATOM     18  C   UNL     1       4.705   5.991  16.734  0.00  0.00    +0.000 A 
ATOM     19  C   UNL     1       4.242   4.677  16.698  0.00  0.00    +0.000 A 
ATOM     20  C   UNL     1       3.142   4.315  17.468  0.00  0.00    +0.000 A 
ATOM     21 CL   UNL     1       2.564   2.695  17.424  0.00  0.00    +0.000 Cl
ATOM     22  C   UNL     1       2.507   5.254  18.282  0.00  0.00    +0.000 A 
ENDBRANCH  15  16
ENDBRANCH  10  15
TORSDOF 4
ENDMDL
MODEL 7
REMARK VINA RESULT:      -6.2      3.626      6.981
REMARK  Name = 
REMARK  6 active torsions:
REMARK  status: ('A' for Active; 'I' for Inactive)
REMARK    1  A    between atoms: C_1  and  C_2
REMARK    2  A    between atoms: N_5  and  C_6
REMARK    3  A    between atoms: C_8  and  C_9
REMARK    4  A    between atoms: C_9  and  O_10
REMARK    5  A    between atoms: C_12  and  C_14
REMARK    6  A    between atoms: C_14  and  C_15
REMARK                            x       y       z     vdW  Elec       q    Type
REMARK                         _______ _______ _______ _____ _____    ______ ____
ROOT
ATOM      1  C   UNL     1       4.573   6.229  17.822  0.00  0.00    +0.000 C 
ATOM      2  C   UNL     1       3.771   5.057  18.369  0.00  0.00    +0.000 C 
ATOM      3  C   UNL     1       4.744   4.053  19.077  0.00  0.00    +0.000 C 
ATOM      4  O   UNL     1       5.946   4.013  18.811  0.00  0.00    +0.000 OA
ATOM      5  N   UNL     1       4.115   3.025  19.774  0.00  0.00    +0.000 N 
ATOM      6  C   UNL     1       4.719   1.710  19.845  0.00  0.00    +0.000 C 
ATOM      7  C   UNL     1       2.854   3.265  20.468  0.00  0.00    +0.000 C 
ATOM      8  C   UNL     1       1.858   3.992  19.559  0.00  0.00    +0.000 C 
ATOM      9  N   UNL     1       2.474   5.268  19.085  0.00  0.00    +0.000 N 
ATOM     10  C   UNL     1       2.028   6.416  19.748  0.00  0.00    +0.000 C 
ATOM     11  O   UNL     1       1.236   6.326  20.700  0.00  0.00    +0.000 OA
ENDROOT
BRANCH   8  12
ATOM     12  C   UNL     1       1.402   3.062  18.416  0.00  0.00    +0.000 C 
BRANCH  12  13
ATOM     13  O   UNL     1       1.220   1.730  18.877  0.00  0.00    +0.000 OA
ATOM     14  H   UNL     1       0.259   1.581  18.938  0.00  0.00    +0.000 HD
ENDBRANCH  12  13
ENDBRANCH   8  12
BRANCH  10  15
ATOM     15  C   UNL     1       2.408   7.810  19.285  0.00  0.00    +0.000 C 
BRANCH  15  16
ATOM     16  C   UNL     1       1.329   8.860  19.414  0.00  0.00    +0.000 A 
ATOM     17  C   UNL     1       0.743   9.463  18.292  0.00  0.00    +0.000 A 
ATOM     18  C   UNL     1      -0.256  10.427  18.439  0.00  0.00    +0.000 A 
ATOM     19  C   UNL     1      -0.674  10.814  19.712  0.00  0.00    +0.000 A 
ATOM     20  C   UNL     1      -0.077  10.246  20.832  0.00  0.00    +0.000 A 
ATOM     21 CL   UNL     1      -0.586  10.723  22.405  0.00  0.00    +0.000 Cl
ATOM     22  C   UNL     1       0.926   9.286  20.691  0.00  0.00    +0.000 A 
ENDBRANCH  15  16
ENDBRANCH  10  15
TORSDOF 4
ENDMDL
MODEL 8
REMARK VINA RESULT:      -6.2      1.101      1.132
REMARK  Name = 
REMARK  6 active torsions:
REMARK  status: ('A' for Active; 'I' for Inactive)
REMARK    1  A    between atoms: C_1  and  C_2
REMARK    2  A    between atoms: N_5  and  C_6
REMARK    3  A    between atoms: C_8  and  C_9
REMARK    4  A    between atoms: C_9  and  O_10
REMARK    5  A    between atoms: C_12  and  C_14
REMARK    6  A    between atoms: C_14  and  C_15
REMARK                            x       y       z     vdW  Elec       q    Type
REMARK                         _______ _______ _______ _____ _____    ______ ____
ROOT
ATOM      1  C   UNL     1       0.090   9.251  22.319  0.00  0.00    +0.000 C 
ATOM      2  C   UNL     1      -0.294  10.013  21.059  0.00  0.00    +0.000 C 
ATOM      3  C   UNL     1      -0.257  11.551  21.356  0.00  0.00    +0.000 C 
ATOM      4  O   UNL     1      -0.359  11.996  22.500  0.00  0.00    +0.000 OA
ATOM      5  N   UNL     1      -0.416  12.364  20.238  0.00  0.00    +0.000 N 
ATOM      6  C   UNL     1      -1.108  13.634  20.346  0.00  0.00    +0.000 C 
ATOM      7  C   UNL     1       0.137  11.965  18.948  0.00  0.00    +0.000 C 
ATOM      8  C   UNL     1      -0.230  10.515  18.619  0.00  0.00    +0.000 C 
ATOM      9  N   UNL     1       0.254   9.629  19.720  0.00  0.00    +0.000 N 
ATOM     10  C   UNL     1       1.432   8.929  19.435  0.00  0.00    +0.000 C 
ATOM     11  O   UNL     1       2.032   9.118  18.365  0.00  0.00    +0.000 OA
ENDROOT
BRANCH   8  12
ATOM     12  C   UNL     1      -1.744  10.395  18.349  0.00  0.00    +0.000 C 
BRANCH  12  13
ATOM     13  O   UNL     1      -1.997   9.775  17.095  0.00  0.00    +0.000 OA
ATOM     14  H   UNL     1      -2.513   8.970  17.279  0.00  0.00    +0.000 HD
ENDBRANCH  12  13
ENDBRANCH   8  12
BRANCH  10  15
ATOM     15  C   UNL     1       1.973   7.855  20.361  0.00  0.00    +0.000 C 
BRANCH  15  16
ATOM     16  C   UNL     1       1.974   6.451  19.803  0.00  0.00    +0.000 A 
ATOM     17  C   UNL     1       2.278   6.187  18.461  0.00  0.00    +0.000 A 
ATOM     18  C   UNL     1       2.277   4.879  17.972  0.00  0.00    +0.000 A 
ATOM     19  C   UNL     1       1.956   3.817  18.815  0.00  0.00    +0.000 A 
ATOM     20  C   UNL     1       1.620   4.070  20.141  0.00  0.00    +0.000 A 
ATOM     21 CL   UNL     1       1.218   2.763  21.185  0.00  0.00    +0.000 Cl
ATOM     22  C   UNL     1       1.614   5.376  20.634  0.00  0.00    +0.000 A 
ENDBRANCH  15  16
ENDBRANCH  10  15
TORSDOF 4
ENDMDL
MODEL 9
REMARK VINA RESULT:      -6.2      5.178      7.519
REMARK  Name = 
REMARK  6 active torsions:
REMARK  status: ('A' for Active; 'I' for Inactive)
REMARK    1  A    between atoms: C_1  and  C_2
REMARK    2  A    between atoms: N_5  and  C_6
REMARK    3  A    between atoms: C_8  and  C_9
REMARK    4  A    between atoms: C_9  and  O_10
REMARK    5  A    between atoms: C_12  and  C_14
REMARK    6  A    between atoms: C_14  and  C_15
REMARK                            x       y       z     vdW  Elec       q    Type
REMARK                         _______ _______ _______ _____ _____    ______ ____
ROOT
ATOM      1  C   UNL     1       3.499   6.384  19.389  0.00  0.00    +0.000 C 
ATOM      2  C   UNL     1       3.413   4.881  19.620  0.00  0.00    +0.000 C 
ATOM      3  C   UNL     1       1.935   4.499  19.976  0.00  0.00    +0.000 C 
ATOM      4  O   UNL     1       1.141   5.322  20.432  0.00  0.00    +0.000 OA
ATOM      5  N   UNL     1       1.687   3.131  20.037  0.00  0.00    +0.000 N 
ATOM      6  C   UNL     1       0.726   2.601  20.985  0.00  0.00    +0.000 C 
ATOM      7  C   UNL     1       2.367   2.214  19.129  0.00  0.00    +0.000 C 
ATOM      8  C   UNL     1       3.874   2.489  19.098  0.00  0.00    +0.000 C 
ATOM      9  N   UNL     1       4.099   3.914  18.708  0.00  0.00    +0.000 N 
ATOM     10  C   UNL     1       4.486   4.104  17.377  0.00  0.00    +0.000 C 
ATOM     11  O   UNL     1       4.552   3.140  16.597  0.00  0.00    +0.000 OA
ENDROOT
BRANCH   8  12
ATOM     12  C   UNL     1       4.513   2.108  20.447  0.00  0.00    +0.000 C 
BRANCH  12  13
ATOM     13  O   UNL     1       5.470   1.068  20.289  0.00  0.00    +0.000 OA
ATOM     14  H   UNL     1       6.329   1.430  20.570  0.00  0.00    +0.000 HD
ENDBRANCH  12  13
ENDBRANCH   8  12
BRANCH  10  15
ATOM     15  C   UNL     1       4.928   5.458  16.854  0.00  0.00    +0.000 C 
BRANCH  15  16
ATOM     16  C   UNL     1       6.148   6.050  17.519  0.00  0.00    +0.000 A 
ATOM     17  C   UNL     1       6.927   5.317  18.426  0.00  0.00    +0.000 A 
ATOM     18  C   UNL     1       8.053   5.887  19.023  0.00  0.00    +0.000 A 
ATOM     19  C   UNL     1       8.409   7.203  18.734  0.00  0.00    +0.000 A 
ATOM     20  C   UNL     1       7.625   7.950  17.861  0.00  0.00    +0.000 A 
ATOM     21 CL   UNL     1       8.057   9.577  17.505  0.00  0.00    +0.000 Cl
ATOM     22  C   UNL     1       6.495   7.388  17.266  0.00  0.00    +0.000 A 
ENDBRANCH  15  16
ENDBRANCH  10  15
TORSDOF 4
ENDMDL
