MODEL 1
REMARK VINA RESULT:      -7.9      0.000      0.000
REMARK  Name = 
REMARK  4 active torsions:
REMARK  status: ('A' for Active; 'I' for Inactive)
REMARK    1  A    between atoms: C_1  and  C_2
REMARK    2  A    between atoms: C_2  and  C_3
REMARK    3  A    between atoms: C_8  and  N_9
REMARK    4  A    between atoms: N_9  and  C_10
REMARK                            x       y       z     vdW  Elec       q    Type
REMARK                         _______ _______ _______ _____ _____    ______ ____
ROOT
ATOM      1  N   UNL     1       4.172   6.473  17.808  0.00  0.00    +0.000 N 
ATOM      2  H   UNL     1       4.573   6.645  18.733  0.00  0.00    +0.000 HD
ENDROOT
BRANCH   1   3
ATOM      3  C   UNL     1       2.816   6.337  18.166  0.00  0.00    +0.000 A 
ATOM      4  N   UNL     1       2.437   7.531  18.647  0.00  0.00    +0.000 NA
ATOM      5  C   UNL     1       2.000   7.525  19.905  0.00  0.00    +0.000 A 
ATOM      6  N   UNL     1       1.881   6.440  20.671  0.00  0.00    +0.000 NA
ATOM      7  C   UNL     1       1.888   5.275  20.023  0.00  0.00    +0.000 A 
ATOM      8  C   UNL     1       1.402   4.157  20.691  0.00  0.00    +0.000 A 
ATOM      9  C   UNL     1       0.923   3.044  19.994  0.00  0.00    +0.000 A 
ATOM     10  C   UNL     1       0.994   3.046  18.608  0.00  0.00    +0.000 A 
ATOM     11  C   UNL     1       1.675   4.077  17.941  0.00  0.00    +0.000 A 
ATOM     12  C   UNL     1       2.210   5.178  18.670  0.00  0.00    +0.000 A 
ENDBRANCH   1   3
BRANCH   1  18
ATOM     13  C   UNL     1       6.290   5.236  17.628  0.00  0.00    +0.000 A 
ATOM     14  C   UNL     1       7.273   4.575  16.832  0.00  0.00    +0.000 A 
ATOM     15  C   UNL     1       7.153   4.574  15.453  0.00  0.00    +0.000 A 
ATOM     16  C   UNL     1       6.085   5.231  14.851  0.00  0.00    +0.000 A 
ATOM     17  C   UNL     1       5.093   5.854  15.619  0.00  0.00    +0.000 A 
ATOM     18  C   UNL     1       5.139   5.833  17.010  0.00  0.00    +0.000 A 
BRANCH  13  20
ATOM     19  C   UNL     1       7.907   5.779  19.497  0.00  0.00    +0.000 C 
ATOM     20  C   UNL     1       6.531   5.249  19.123  0.00  0.00    +0.000 C 
ENDBRANCH  13  20
ENDBRANCH   1  18
TORSDOF 3
ENDMDL
MODEL 2
REMARK VINA RESULT:      -7.8      1.804      5.657
REMARK  Name = 
REMARK  4 active torsions:
REMARK  status: ('A' for Active; 'I' for Inactive)
REMARK    1  A    between atoms: C_1  and  C_2
REMARK    2  A    between atoms: C_2  and  C_3
REMARK    3  A    between atoms: C_8  and  N_9
REMARK    4  A    between atoms: N_9  and  C_10
REMARK                            x       y       z     vdW  Elec       q    Type
REMARK                         _______ _______ _______ _____ _____    ______ ____
ROOT
ATOM      1  N   UNL     1       2.845   5.935  17.814  0.00  0.00    +0.000 N 
ATOM      2  H   UNL     1       2.265   5.099  17.913  0.00  0.00    +0.000 HD
ENDROOT
BRANCH   1   3
ATOM      3  C   UNL     1       4.081   5.327  17.519  0.00  0.00    +0.000 A 
ATOM      4  N   UNL     1       3.880   4.005  17.630  0.00  0.00    +0.000 NA
ATOM      5  C   UNL     1       4.637   3.388  18.536  0.00  0.00    +0.000 A 
ATOM      6  N   UNL     1       5.574   3.974  19.282  0.00  0.00    +0.000 NA
ATOM      7  C   UNL     1       5.989   5.164  18.850  0.00  0.00    +0.000 A 
ATOM      8  C   UNL     1       7.196   5.649  19.343  0.00  0.00    +0.000 A 
ATOM      9  C   UNL     1       7.941   6.598  18.639  0.00  0.00    +0.000 A 
ATOM     10  C   UNL     1       7.428   7.101  17.451  0.00  0.00    +0.000 A 
ATOM     11  C   UNL     1       6.119   6.773  17.058  0.00  0.00    +0.000 A 
ATOM     12  C   UNL     1       5.347   5.848  17.818  0.00  0.00    +0.000 A 
ENDBRANCH   1   3
BRANCH   1  18
ATOM     13  C   UNL     1       2.003   6.659  20.007  0.00  0.00    +0.000 A 
ATOM     14  C   UNL     1       1.478   7.680  20.856  0.00  0.00    +0.000 A 
ATOM     15  C   UNL     1       1.205   8.933  20.336  0.00  0.00    +0.000 A 
ATOM     16  C   UNL     1       1.427   9.185  18.986  0.00  0.00    +0.000 A 
ATOM     17  C   UNL     1       1.974   8.205  18.147  0.00  0.00    +0.000 A 
ATOM     18  C   UNL     1       2.319   6.949  18.637  0.00  0.00    +0.000 A 
BRANCH  13  20
ATOM     19  C   UNL     1       1.066   4.335  20.361  0.00  0.00    +0.000 C 
ATOM     20  C   UNL     1       2.211   5.298  20.639  0.00  0.00    +0.000 C 
ENDBRANCH  13  20
ENDBRANCH   1  18
TORSDOF 3
ENDMDL
MODEL 3
REMARK VINA RESULT:      -7.8      0.782      2.204
REMARK  Name = 
REMARK  4 active torsions:
REMARK  status: ('A' for Active; 'I' for Inactive)
REMARK    1  A    between atoms: C_1  and  C_2
REMARK    2  A    between atoms: C_2  and  C_3
REMARK    3  A    between atoms: C_8  and  N_9
REMARK    4  A    between atoms: N_9  and  C_10
REMARK                            x       y       z     vdW  Elec       q    Type
REMARK                         _______ _______ _______ _____ _____    ______ ____
ROOT
ATOM      1  N   UNL     1       3.822   5.885  17.305  0.00  0.00    +0.000 N 
ATOM      2  H   UNL     1       3.799   6.845  16.955  0.00  0.00    +0.000 HD
ENDROOT
BRANCH   1   3
ATOM      3  C   UNL     1       2.575   5.846  17.959  0.00  0.00    +0.000 A 
ATOM      4  N   UNL     1       2.333   7.101  18.369  0.00  0.00    +0.000 NA
ATOM      5  C   UNL     1       2.181   7.250  19.684  0.00  0.00    +0.000 A 
ATOM      6  N   UNL     1       2.212   6.260  20.578  0.00  0.00    +0.000 NA
ATOM      7  C   UNL     1       2.056   5.033  20.082  0.00  0.00    +0.000 A 
ATOM      8  C   UNL     1       1.707   4.016  20.963  0.00  0.00    +0.000 A 
ATOM      9  C   UNL     1       1.067   2.856  20.518  0.00  0.00    +0.000 A 
ATOM     10  C   UNL     1       0.832   2.704  19.159  0.00  0.00    +0.000 A 
ATOM     11  C   UNL     1       1.370   3.627  18.246  0.00  0.00    +0.000 A 
ATOM     12  C   UNL     1       2.072   4.777  18.711  0.00  0.00    +0.000 A 
ENDBRANCH   1   3
BRANCH   1  18
ATOM     13  C   UNL     1       5.896   4.832  16.507  0.00  0.00    +0.000 A 
ATOM     14  C   UNL     1       7.259   4.464  16.720  0.00  0.00    +0.000 A 
ATOM     15  C   UNL     1       7.853   4.707  17.946  0.00  0.00    +0.000 A 
ATOM     16  C   UNL     1       7.113   5.292  18.969  0.00  0.00    +0.000 A 
ATOM     17  C   UNL     1       5.785   5.690  18.765  0.00  0.00    +0.000 A 
ATOM     18  C   UNL     1       5.163   5.519  17.532  0.00  0.00    +0.000 A 
BRANCH  13  20
ATOM     19  C   UNL     1       6.349   4.011  14.157  0.00  0.00    +0.000 C 
ATOM     20  C   UNL     1       5.303   4.470  15.161  0.00  0.00    +0.000 C 
ENDBRANCH  13  20
ENDBRANCH   1  18
TORSDOF 3
ENDMDL
MODEL 4
REMARK VINA RESULT:      -7.6      1.799      5.790
REMARK  Name = 
REMARK  4 active torsions:
REMARK  status: ('A' for Active; 'I' for Inactive)
REMARK    1  A    between atoms: C_1  and  C_2
REMARK    2  A    between atoms: C_2  and  C_3
REMARK    3  A    between atoms: C_8  and  N_9
REMARK    4  A    between atoms: N_9  and  C_10
REMARK                            x       y       z     vdW  Elec       q    Type
REMARK                         _______ _______ _______ _____ _____    ______ ____
ROOT
ATOM      1  N   UNL     1       4.321   2.765  18.592  0.00  0.00    +0.000 N 
ATOM      2  H   UNL     1       4.808   1.877  18.738  0.00  0.00    +0.000 HD
ENDROOT
BRANCH   1   3
ATOM      3  C   UNL     1       5.394   3.541  18.109  0.00  0.00    +0.000 A 
ATOM      4  N   UNL     1       5.926   4.146  19.182  0.00  0.00    +0.000 NA
ATOM      5  C   UNL     1       5.920   5.478  19.145  0.00  0.00    +0.000 A 
ATOM      6  N   UNL     1       5.472   6.216  18.129  0.00  0.00    +0.000 NA
ATOM      7  C   UNL     1       5.336   5.574  16.969  0.00  0.00    +0.000 A 
ATOM      8  C   UNL     1       5.241   6.338  15.811  0.00  0.00    +0.000 A 
ATOM      9  C   UNL     1       5.575   5.810  14.561  0.00  0.00    +0.000 A 
ATOM     10  C   UNL     1       5.952   4.476  14.481  0.00  0.00    +0.000 A 
ATOM     11  C   UNL     1       5.846   3.647  15.611  0.00  0.00    +0.000 A 
ATOM     12  C   UNL     1       5.448   4.188  16.867  0.00  0.00    +0.000 A 
ENDBRANCH   1   3
BRANCH   1  18
ATOM     13  C   UNL     1       2.063   3.557  19.157  0.00  0.00    +0.000 A 
ATOM     14  C   UNL     1       0.979   3.649  20.082  0.00  0.00    +0.000 A 
ATOM     15  C   UNL     1       1.115   3.124  21.355  0.00  0.00    +0.000 A 
ATOM     16  C   UNL     1       2.313   2.526  21.732  0.00  0.00    +0.000 A 
ATOM     17  C   UNL     1       3.374   2.396  20.826  0.00  0.00    +0.000 A 
ATOM     18  C   UNL     1       3.264   2.856  19.517  0.00  0.00    +0.000 A 
BRANCH  13  20
ATOM     19  C   UNL     1       1.948   5.732  17.870  0.00  0.00    +0.000 C 
ATOM     20  C   UNL     1       1.857   4.215  17.809  0.00  0.00    +0.000 C 
ENDBRANCH  13  20
ENDBRANCH   1  18
TORSDOF 3
ENDMDL
MODEL 5
REMARK VINA RESULT:      -7.5      1.703      5.839
REMARK  Name = 
REMARK  4 active torsions:
REMARK  status: ('A' for Active; 'I' for Inactive)
REMARK    1  A    between atoms: C_1  and  C_2
REMARK    2  A    between atoms: C_2  and  C_3
REMARK    3  A    between atoms: C_8  and  N_9
REMARK    4  A    between atoms: N_9  and  C_10
REMARK                            x       y       z     vdW  Elec       q    Type
REMARK                         _______ _______ _______ _____ _____    ______ ____
ROOT
ATOM      1  N   UNL     1       4.734   5.030  19.356  0.00  0.00    +0.000 N 
ATOM      2  H   UNL     1       4.564   5.950  18.944  0.00  0.00    +0.000 HD
ENDROOT
BRANCH   1   3
ATOM      3  C   UNL     1       5.881   4.657  18.627  0.00  0.00    +0.000 A 
ATOM      4  N   UNL     1       6.932   5.046  19.365  0.00  0.00    +0.000 NA
ATOM      5  C   UNL     1       7.751   5.917  18.776  0.00  0.00    +0.000 A 
ATOM      6  N   UNL     1       7.616   6.375  17.530  0.00  0.00    +0.000 NA
ATOM      7  C   UNL     1       6.811   5.665  16.741  0.00  0.00    +0.000 A 
ATOM      8  C   UNL     1       6.916   5.854  15.368  0.00  0.00    +0.000 A 
ATOM      9  C   UNL     1       6.503   4.872  14.464  0.00  0.00    +0.000 A 
ATOM     10  C   UNL     1       5.927   3.711  14.960  0.00  0.00    +0.000 A 
ATOM     11  C   UNL     1       5.626   3.605  16.329  0.00  0.00    +0.000 A 
ATOM     12  C   UNL     1       6.000   4.642  17.231  0.00  0.00    +0.000 A 
ENDBRANCH   1   3
BRANCH   1  18
ATOM     13  C   UNL     1       2.371   5.348  19.953  0.00  0.00    +0.000 A 
ATOM     14  C   UNL     1       1.113   4.808  20.360  0.00  0.00    +0.000 A 
ATOM     15  C   UNL     1       1.006   3.458  20.648  0.00  0.00    +0.000 A 
ATOM     16  C   UNL     1       2.127   2.640  20.556  0.00  0.00    +0.000 A 
ATOM     17  C   UNL     1       3.360   3.147  20.124  0.00  0.00    +0.000 A 
ATOM     18  C   UNL     1       3.503   4.485  19.768  0.00  0.00    +0.000 A 
BRANCH  13  20
ATOM     19  C   UNL     1       2.387   7.217  18.248  0.00  0.00    +0.000 C 
ATOM     20  C   UNL     1       2.418   6.844  19.722  0.00  0.00    +0.000 C 
ENDBRANCH  13  20
ENDBRANCH   1  18
TORSDOF 3
ENDMDL
MODEL 6
REMARK VINA RESULT:      -7.5      0.958      1.053
REMARK  Name = 
REMARK  4 active torsions:
REMARK  status: ('A' for Active; 'I' for Inactive)
REMARK    1  A    between atoms: C_1  and  C_2
REMARK    2  A    between atoms: C_2  and  C_3
REMARK    3  A    between atoms: C_8  and  N_9
REMARK    4  A    between atoms: N_9  and  C_10
REMARK                            x       y       z     vdW  Elec       q    Type
REMARK                         _______ _______ _______ _____ _____    ______ ____
ROOT
ATOM      1  N   UNL     1       4.510   5.611  17.805  0.00  0.00    +0.000 N 
ATOM      2  H   UNL     1       4.819   5.113  18.643  0.00  0.00    +0.000 HD
ENDROOT
BRANCH   1   3
ATOM      3  C   UNL     1       3.133   5.712  18.090  0.00  0.00    +0.000 A 
ATOM      4  N   UNL     1       2.916   6.994  18.421  0.00  0.00    +0.000 NA
ATOM      5  C   UNL     1       2.424   7.190  19.644  0.00  0.00    +0.000 A 
ATOM      6  N   UNL     1       2.109   6.225  20.509  0.00  0.00    +0.000 NA
ATOM      7  C   UNL     1       1.972   5.007  19.986  0.00  0.00    +0.000 A 
ATOM      8  C   UNL     1       1.294   4.052  20.733  0.00  0.00    +0.000 A 
ATOM      9  C   UNL     1       0.687   2.949  20.126  0.00  0.00    +0.000 A 
ATOM     10  C   UNL     1       0.821   2.787  18.755  0.00  0.00    +0.000 A 
ATOM     11  C   UNL     1       1.679   3.629  18.028  0.00  0.00    +0.000 A 
ATOM     12  C   UNL     1       2.338   4.716  18.672  0.00  0.00    +0.000 A 
ENDBRANCH   1   3
BRANCH   1  18
ATOM     13  C   UNL     1       6.592   5.983  16.553  0.00  0.00    +0.000 A 
ATOM     14  C   UNL     1       7.470   5.640  15.480  0.00  0.00    +0.000 A 
ATOM     15  C   UNL     1       7.096   4.663  14.573  0.00  0.00    +0.000 A 
ATOM     16  C   UNL     1       5.862   4.035  14.701  0.00  0.00    +0.000 A 
ATOM     17  C   UNL     1       5.004   4.336  15.768  0.00  0.00    +0.000 A 
ATOM     18  C   UNL     1       5.361   5.269  16.738  0.00  0.00    +0.000 A 
BRANCH  13  20
ATOM     19  C   UNL     1       7.955   6.631  18.584  0.00  0.00    +0.000 C 
ATOM     20  C   UNL     1       7.046   7.107  17.461  0.00  0.00    +0.000 C 
ENDBRANCH  13  20
ENDBRANCH   1  18
TORSDOF 3
ENDMDL
MODEL 7
REMARK VINA RESULT:      -7.4      2.211      6.353
REMARK  Name = 
REMARK  4 active torsions:
REMARK  status: ('A' for Active; 'I' for Inactive)
REMARK    1  A    between atoms: C_1  and  C_2
REMARK    2  A    between atoms: C_2  and  C_3
REMARK    3  A    between atoms: C_8  and  N_9
REMARK    4  A    between atoms: N_9  and  C_10
REMARK                            x       y       z     vdW  Elec       q    Type
REMARK                         _______ _______ _______ _____ _____    ______ ____
ROOT
ATOM      1  N   UNL     1       4.132   4.438  16.221  0.00  0.00    +0.000 N 
ATOM      2  H   UNL     1       3.647   4.451  15.320  0.00  0.00    +0.000 HD
ENDROOT
BRANCH   1   3
ATOM      3  C   UNL     1       5.387   3.955  15.801  0.00  0.00    +0.000 A 
ATOM      4  N   UNL     1       6.192   4.032  16.873  0.00  0.00    +0.000 NA
ATOM      5  C   UNL     1       7.269   4.802  16.722  0.00  0.00    +0.000 A 
ATOM      6  N   UNL     1       7.604   5.442  15.601  0.00  0.00    +0.000 NA
ATOM      7  C   UNL     1       7.002   5.013  14.492  0.00  0.00    +0.000 A 
ATOM      8  C   UNL     1       7.565   5.363  13.270  0.00  0.00    +0.000 A 
ATOM      9  C   UNL     1       7.329   4.609  12.117  0.00  0.00    +0.000 A 
ATOM     10  C   UNL     1       6.468   3.524  12.196  0.00  0.00    +0.000 A 
ATOM     11  C   UNL     1       5.734   3.293  13.373  0.00  0.00    +0.000 A 
ATOM     12  C   UNL     1       5.942   4.106  14.523  0.00  0.00    +0.000 A 
ENDBRANCH   1   3
BRANCH   1  18
ATOM     13  C   UNL     1       2.825   5.291  18.120  0.00  0.00    +0.000 A 
ATOM     14  C   UNL     1       1.859   5.085  19.151  0.00  0.00    +0.000 A 
ATOM     15  C   UNL     1       1.322   3.824  19.347  0.00  0.00    +0.000 A 
ATOM     16  C   UNL     1       1.741   2.763  18.550  0.00  0.00    +0.000 A 
ATOM     17  C   UNL     1       2.661   2.956  17.512  0.00  0.00    +0.000 A 
ATOM     18  C   UNL     1       3.185   4.217  17.239  0.00  0.00    +0.000 A 
BRANCH  13  20
ATOM     19  C   UNL     1       2.362   7.779  18.133  0.00  0.00    +0.000 C 
ATOM     20  C   UNL     1       3.412   6.684  18.017  0.00  0.00    +0.000 C 
ENDBRANCH  13  20
ENDBRANCH   1  18
TORSDOF 3
ENDMDL
MODEL 8
REMARK VINA RESULT:      -7.4      1.870      3.288
REMARK  Name = 
REMARK  4 active torsions:
REMARK  status: ('A' for Active; 'I' for Inactive)
REMARK    1  A    between atoms: C_1  and  C_2
REMARK    2  A    between atoms: C_2  and  C_3
REMARK    3  A    between atoms: C_8  and  N_9
REMARK    4  A    between atoms: N_9  and  C_10
REMARK                            x       y       z     vdW  Elec       q    Type
REMARK                         _______ _______ _______ _____ _____    ______ ____
ROOT
ATOM      1  N   UNL     1       5.207   3.620  17.677  0.00  0.00    +0.000 N 
ATOM      2  H   UNL     1       5.176   3.399  16.679  0.00  0.00    +0.000 HD
ENDROOT
BRANCH   1   3
ATOM      3  C   UNL     1       3.918   3.188  18.050  0.00  0.00    +0.000 A 
ATOM      4  N   UNL     1       3.125   3.433  16.996  0.00  0.00    +0.000 NA
ATOM      5  C   UNL     1       2.106   4.258  17.231  0.00  0.00    +0.000 A 
ATOM      6  N   UNL     1       1.813   4.800  18.413  0.00  0.00    +0.000 NA
ATOM      7  C   UNL     1       2.380   4.216  19.469  0.00  0.00    +0.000 A 
ATOM      8  C   UNL     1       1.840   4.477  20.723  0.00  0.00    +0.000 A 
ATOM      9  C   UNL     1       2.017   3.592  21.790  0.00  0.00    +0.000 A 
ATOM     10  C   UNL     1       2.799   2.462  21.595  0.00  0.00    +0.000 A 
ATOM     11  C   UNL     1       3.518   2.303  20.398  0.00  0.00    +0.000 A 
ATOM     12  C   UNL     1       3.372   3.245  19.339  0.00  0.00    +0.000 A 
ENDBRANCH   1   3
BRANCH   1  18
ATOM     13  C   UNL     1       6.333   5.611  16.777  0.00  0.00    +0.000 A 
ATOM     14  C   UNL     1       7.194   6.735  16.960  0.00  0.00    +0.000 A 
ATOM     15  C   UNL     1       7.830   6.924  18.175  0.00  0.00    +0.000 A 
ATOM     16  C   UNL     1       7.639   6.007  19.204  0.00  0.00    +0.000 A 
ATOM     17  C   UNL     1       6.771   4.918  19.052  0.00  0.00    +0.000 A 
ATOM     18  C   UNL     1       6.065   4.719  17.869  0.00  0.00    +0.000 A 
BRANCH  13  20
ATOM     19  C   UNL     1       6.613   4.629  14.462  0.00  0.00    +0.000 C 
ATOM     20  C   UNL     1       5.731   5.442  15.398  0.00  0.00    +0.000 C 
ENDBRANCH  13  20
ENDBRANCH   1  18
TORSDOF 3
ENDMDL
MODEL 9
REMARK VINA RESULT:      -7.4      2.335      3.079
REMARK  Name = 
REMARK  4 active torsions:
REMARK  status: ('A' for Active; 'I' for Inactive)
REMARK    1  A    between atoms: C_1  and  C_2
REMARK    2  A    between atoms: C_2  and  C_3
REMARK    3  A    between atoms: C_8  and  N_9
REMARK    4  A    between atoms: N_9  and  C_10
REMARK                            x       y       z     vdW  Elec       q    Type
REMARK                         _______ _______ _______ _____ _____    ______ ____
ROOT
ATOM      1  N   UNL     1       5.336   4.452  18.853  0.00  0.00    +0.000 N 
ATOM      2  H   UNL     1       6.174   4.482  19.438  0.00  0.00    +0.000 HD
ENDROOT
BRANCH   1   3
ATOM      3  C   UNL     1       4.515   3.646  19.666  0.00  0.00    +0.000 A 
ATOM      4  N   UNL     1       5.154   2.473  19.793  0.00  0.00    +0.000 NA
ATOM      5  C   UNL     1       4.486   1.410  19.348  0.00  0.00    +0.000 A 
ATOM      6  N   UNL     1       3.252   1.434  18.844  0.00  0.00    +0.000 NA
ATOM      7  C   UNL     1       2.543   2.531  19.112  0.00  0.00    +0.000 A 
ATOM      8  C   UNL     1       1.164   2.468  18.950  0.00  0.00    +0.000 A 
ATOM      9  C   UNL     1       0.311   3.341  19.631  0.00  0.00    +0.000 A 
ATOM     10  C   UNL     1       0.868   4.322  20.439  0.00  0.00    +0.000 A 
ATOM     11  C   UNL     1       2.259   4.524  20.440  0.00  0.00    +0.000 A 
ATOM     12  C   UNL     1       3.114   3.662  19.694  0.00  0.00    +0.000 A 
ENDBRANCH   1   3
BRANCH   1  18
ATOM     13  C   UNL     1       6.812   5.435  17.150  0.00  0.00    +0.000 A 
ATOM     14  C   UNL     1       7.222   5.557  15.788  0.00  0.00    +0.000 A 
ATOM     15  C   UNL     1       6.517   4.895  14.797  0.00  0.00    +0.000 A 
ATOM     16  C   UNL     1       5.405   4.129  15.133  0.00  0.00    +0.000 A 
ATOM     17  C   UNL     1       5.011   3.971  16.468  0.00  0.00    +0.000 A 
ATOM     18  C   UNL     1       5.722   4.570  17.504  0.00  0.00    +0.000 A 
BRANCH  13  20
ATOM     19  C   UNL     1       7.749   7.704  17.764  0.00  0.00    +0.000 C 
ATOM     20  C   UNL     1       7.595   6.244  18.164  0.00  0.00    +0.000 C 
ENDBRANCH  13  20
ENDBRANCH   1  18
TORSDOF 3
ENDMDL
