MODEL 1
REMARK VINA RESULT:      -8.4      0.000      0.000
REMARK  Name = 
REMARK  2 active torsions:
REMARK  status: ('A' for Active; 'I' for Inactive)
REMARK    1  A    between atoms: C_4  and  C_5
REMARK    2  A    between atoms: C_13  and  C_15
REMARK                            x       y       z     vdW  Elec       q    Type
REMARK                         _______ _______ _______ _____ _____    ______ ____
ROOT
ATOM      1  N   UNL     1       7.417   5.414  19.171  0.00  0.00    +0.000 N 
ATOM      2  C   UNL     1       6.985   4.933  17.994  0.00  0.00    +0.000 A 
ATOM      3  N   UNL     1       7.523   5.176  16.825  0.00  0.00    +0.000 NA
ATOM      4  C   UNL     1       6.681   4.548  15.930  0.00  0.00    +0.000 A 
ATOM      5  N   UNL     1       5.637   3.936  16.508  0.00  0.00    +0.000 NA
ATOM      6  N   UNL     1       5.846   4.154  17.826  0.00  0.00    +0.000 N 
ATOM      7  C   UNL     1       4.960   3.655  18.792  0.00  0.00    +0.000 C 
ATOM      8  O   UNL     1       5.281   3.680  19.977  0.00  0.00    +0.000 OA
ATOM      9  H   UNL     1       8.208   6.047  19.205  0.00  0.00    +0.000 HD
ATOM     10  H   UNL     1       6.957   5.207  20.057  0.00  0.00    +0.000 HD
ENDROOT
BRANCH   4  11
ATOM     11  C   UNL     1       6.900   4.588  14.479  0.00  0.00    +0.000 A 
ATOM     12  C   UNL     1       6.175   3.754  13.633  0.00  0.00    +0.000 A 
ATOM     13  C   UNL     1       6.437   3.800  12.264  0.00  0.00    +0.000 A 
ATOM     14  C   UNL     1       7.405   4.675  11.784  0.00  0.00    +0.000 A 
ATOM     15  C   UNL     1       8.072   5.476  12.693  0.00  0.00    +0.000 A 
ATOM     16  N   UNL     1       7.846   5.453  14.020  0.00  0.00    +0.000 NA
ENDBRANCH   4  11
BRANCH   7  17
ATOM     17  C   UNL     1       3.596   3.232  18.245  0.00  0.00    +0.000 C 
ATOM     18  C   UNL     1       2.741   4.502  18.097  0.00  0.00    +0.000 C 
ATOM     19  C   UNL     1       1.260   4.208  17.939  0.00  0.00    +0.000 C 
ATOM     20  O   UNL     1       0.809   3.350  18.979  0.00  0.00    +0.000 OA
ATOM     21  C   UNL     1       1.435   2.073  18.907  0.00  0.00    +0.000 C 
ATOM     22  C   UNL     1       2.930   2.199  19.167  0.00  0.00    +0.000 C 
ENDBRANCH   7  17
TORSDOF 2
ENDMDL
MODEL 2
REMARK VINA RESULT:      -7.7      1.164      1.514
REMARK  Name = 
REMARK  2 active torsions:
REMARK  status: ('A' for Active; 'I' for Inactive)
REMARK    1  A    between atoms: C_4  and  C_5
REMARK    2  A    between atoms: C_13  and  C_15
REMARK                            x       y       z     vdW  Elec       q    Type
REMARK                         _______ _______ _______ _____ _____    ______ ____
ROOT
ATOM      1  N   UNL     1       7.701   6.883  18.280  0.00  0.00    +0.000 N 
ATOM      2  C   UNL     1       7.256   6.006  17.365  0.00  0.00    +0.000 A 
ATOM      3  N   UNL     1       7.597   5.982  16.101  0.00  0.00    +0.000 NA
ATOM      4  C   UNL     1       6.818   4.979  15.561  0.00  0.00    +0.000 A 
ATOM      5  N   UNL     1       6.002   4.392  16.448  0.00  0.00    +0.000 NA
ATOM      6  N   UNL     1       6.302   5.025  17.605  0.00  0.00    +0.000 N 
ATOM      7  C   UNL     1       5.657   4.687  18.804  0.00  0.00    +0.000 C 
ATOM      8  O   UNL     1       6.093   5.118  19.867  0.00  0.00    +0.000 OA
ATOM      9  H   UNL     1       8.334   7.627  18.009  0.00  0.00    +0.000 HD
ATOM     10  H   UNL     1       7.397   6.871  19.253  0.00  0.00    +0.000 HD
ENDROOT
BRANCH   4  11
ATOM     11  C   UNL     1       6.862   4.624  14.137  0.00  0.00    +0.000 A 
ATOM     12  C   UNL     1       7.718   5.293  13.269  0.00  0.00    +0.000 A 
ATOM     13  C   UNL     1       7.705   4.947  11.917  0.00  0.00    +0.000 A 
ATOM     14  C   UNL     1       6.846   3.946  11.480  0.00  0.00    +0.000 A 
ATOM     15  C   UNL     1       6.035   3.324  12.411  0.00  0.00    +0.000 A 
ATOM     16  N   UNL     1       6.021   3.637  13.721  0.00  0.00    +0.000 NA
ENDBRANCH   4  11
BRANCH   7  17
ATOM     17  C   UNL     1       4.364   3.888  18.627  0.00  0.00    +0.000 C 
ATOM     18  C   UNL     1       3.218   4.895  18.436  0.00  0.00    +0.000 C 
ATOM     19  C   UNL     1       1.844   4.279  18.635  0.00  0.00    +0.000 C 
ATOM     20  O   UNL     1       1.783   3.592  19.879  0.00  0.00    +0.000 OA
ATOM     21  C   UNL     1       2.677   2.484  19.905  0.00  0.00    +0.000 C 
ATOM     22  C   UNL     1       4.120   2.964  19.831  0.00  0.00    +0.000 C 
ENDBRANCH   7  17
TORSDOF 2
ENDMDL
MODEL 3
REMARK VINA RESULT:      -7.3      3.964      7.115
REMARK  Name = 
REMARK  2 active torsions:
REMARK  status: ('A' for Active; 'I' for Inactive)
REMARK    1  A    between atoms: C_4  and  C_5
REMARK    2  A    between atoms: C_13  and  C_15
REMARK                            x       y       z     vdW  Elec       q    Type
REMARK                         _______ _______ _______ _____ _____    ______ ____
ROOT
ATOM      1  N   UNL     1       2.511   3.210  20.909  0.00  0.00    +0.000 N 
ATOM      2  C   UNL     1       2.623   4.484  20.499  0.00  0.00    +0.000 A 
ATOM      3  N   UNL     1       1.818   5.464  20.822  0.00  0.00    +0.000 NA
ATOM      4  C   UNL     1       2.282   6.537  20.090  0.00  0.00    +0.000 A 
ATOM      5  N   UNL     1       3.339   6.248  19.318  0.00  0.00    +0.000 NA
ATOM      6  N   UNL     1       3.577   4.947  19.601  0.00  0.00    +0.000 N 
ATOM      7  C   UNL     1       4.634   4.255  18.991  0.00  0.00    +0.000 C 
ATOM      8  O   UNL     1       4.960   3.151  19.419  0.00  0.00    +0.000 OA
ATOM      9  H   UNL     1       1.736   2.930  21.499  0.00  0.00    +0.000 HD
ATOM     10  H   UNL     1       3.157   2.476  20.620  0.00  0.00    +0.000 HD
ENDROOT
BRANCH   4  11
ATOM     11  C   UNL     1       1.643   7.858  20.132  0.00  0.00    +0.000 A 
ATOM     12  C   UNL     1       0.998   8.294  21.285  0.00  0.00    +0.000 A 
ATOM     13  C   UNL     1       0.376   9.543  21.272  0.00  0.00    +0.000 A 
ATOM     14  C   UNL     1       0.422  10.315  20.117  0.00  0.00    +0.000 A 
ATOM     15  C   UNL     1       1.094   9.810  19.018  0.00  0.00    +0.000 A 
ATOM     16  N   UNL     1       1.700   8.608  18.997  0.00  0.00    +0.000 NA
ENDBRANCH   4  11
BRANCH   7  17
ATOM     17  C   UNL     1       5.198   4.930  17.740  0.00  0.00    +0.000 C 
ATOM     18  C   UNL     1       5.299   3.860  16.640  0.00  0.00    +0.000 C 
ATOM     19  C   UNL     1       6.189   4.278  15.482  0.00  0.00    +0.000 C 
ATOM     20  O   UNL     1       7.457   4.709  15.960  0.00  0.00    +0.000 OA
ATOM     21  C   UNL     1       7.340   5.881  16.761  0.00  0.00    +0.000 C 
ATOM     22  C   UNL     1       6.560   5.580  18.033  0.00  0.00    +0.000 C 
ENDBRANCH   7  17
TORSDOF 2
ENDMDL
MODEL 4
REMARK VINA RESULT:      -7.2      4.025      7.040
REMARK  Name = 
REMARK  2 active torsions:
REMARK  status: ('A' for Active; 'I' for Inactive)
REMARK    1  A    between atoms: C_4  and  C_5
REMARK    2  A    between atoms: C_13  and  C_15
REMARK                            x       y       z     vdW  Elec       q    Type
REMARK                         _______ _______ _______ _____ _____    ______ ____
ROOT
ATOM      1  N   UNL     1       2.413   3.443  20.832  0.00  0.00    +0.000 N 
ATOM      2  C   UNL     1       2.566   4.692  20.361  0.00  0.00    +0.000 A 
ATOM      3  N   UNL     1       1.788   5.710  20.628  0.00  0.00    +0.000 NA
ATOM      4  C   UNL     1       2.290   6.732  19.850  0.00  0.00    +0.000 A 
ATOM      5  N   UNL     1       3.345   6.375  19.104  0.00  0.00    +0.000 NA
ATOM      6  N   UNL     1       3.542   5.082  19.452  0.00  0.00    +0.000 N 
ATOM      7  C   UNL     1       4.583   4.331  18.887  0.00  0.00    +0.000 C 
ATOM      8  O   UNL     1       4.873   3.240  19.371  0.00  0.00    +0.000 OA
ATOM      9  H   UNL     1       1.625   3.215  21.426  0.00  0.00    +0.000 HD
ATOM     10  H   UNL     1       3.040   2.677  20.585  0.00  0.00    +0.000 HD
ENDROOT
BRANCH   4  11
ATOM     11  C   UNL     1       1.691   8.072  19.822  0.00  0.00    +0.000 A 
ATOM     12  C   UNL     1       1.666   8.809  18.642  0.00  0.00    +0.000 A 
ATOM     13  C   UNL     1       1.116  10.091  18.666  0.00  0.00    +0.000 A 
ATOM     14  C   UNL     1       0.608  10.592  19.859  0.00  0.00    +0.000 A 
ATOM     15  C   UNL     1       0.663   9.788  20.983  0.00  0.00    +0.000 A 
ATOM     16  N   UNL     1       1.190   8.549  20.994  0.00  0.00    +0.000 NA
ENDBRANCH   4  11
BRANCH   7  17
ATOM     17  C   UNL     1       5.178   4.928  17.611  0.00  0.00    +0.000 C 
ATOM     18  C   UNL     1       5.248   3.806  16.562  0.00  0.00    +0.000 C 
ATOM     19  C   UNL     1       6.160   4.139  15.394  0.00  0.00    +0.000 C 
ATOM     20  O   UNL     1       7.439   4.546  15.861  0.00  0.00    +0.000 OA
ATOM     21  C   UNL     1       7.358   5.758  16.606  0.00  0.00    +0.000 C 
ATOM     22  C   UNL     1       6.561   5.543  17.885  0.00  0.00    +0.000 C 
ENDBRANCH   7  17
TORSDOF 2
ENDMDL
MODEL 5
REMARK VINA RESULT:      -7.2      2.052      2.316
REMARK  Name = 
REMARK  2 active torsions:
REMARK  status: ('A' for Active; 'I' for Inactive)
REMARK    1  A    between atoms: C_4  and  C_5
REMARK    2  A    between atoms: C_13  and  C_15
REMARK                            x       y       z     vdW  Elec       q    Type
REMARK                         _______ _______ _______ _____ _____    ______ ____
ROOT
ATOM      1  N   UNL     1       8.144   4.881  18.999  0.00  0.00    +0.000 N 
ATOM      2  C   UNL     1       7.415   4.811  17.873  0.00  0.00    +0.000 A 
ATOM      3  N   UNL     1       7.887   4.615  16.667  0.00  0.00    +0.000 NA
ATOM      4  C   UNL     1       6.781   4.718  15.851  0.00  0.00    +0.000 A 
ATOM      5  N   UNL     1       5.644   4.982  16.511  0.00  0.00    +0.000 NA
ATOM      6  N   UNL     1       6.041   5.012  17.803  0.00  0.00    +0.000 N 
ATOM      7  C   UNL     1       5.125   5.255  18.837  0.00  0.00    +0.000 C 
ATOM      8  O   UNL     1       5.464   5.065  20.002  0.00  0.00    +0.000 OA
ATOM      9  H   UNL     1       9.154   4.809  18.958  0.00  0.00    +0.000 HD
ATOM     10  H   UNL     1       7.731   5.049  19.916  0.00  0.00    +0.000 HD
ENDROOT
BRANCH   4  11
ATOM     11  C   UNL     1       6.861   4.586  14.391  0.00  0.00    +0.000 A 
ATOM     12  C   UNL     1       6.093   3.637  13.724  0.00  0.00    +0.000 A 
ATOM     13  C   UNL     1       6.224   3.523  12.340  0.00  0.00    +0.000 A 
ATOM     14  C   UNL     1       7.108   4.359  11.668  0.00  0.00    +0.000 A 
ATOM     15  C   UNL     1       7.826   5.282  12.406  0.00  0.00    +0.000 A 
ATOM     16  N   UNL     1       7.726   5.415  13.742  0.00  0.00    +0.000 NA
ENDBRANCH   4  11
BRANCH   7  17
ATOM     17  C   UNL     1       3.800   5.867  18.381  0.00  0.00    +0.000 C 
ATOM     18  C   UNL     1       4.112   7.237  17.757  0.00  0.00    +0.000 C 
ATOM     19  C   UNL     1       2.884   8.121  17.614  0.00  0.00    +0.000 C 
ATOM     20  O   UNL     1       2.194   8.216  18.854  0.00  0.00    +0.000 OA
ATOM     21  C   UNL     1       1.678   6.952  19.260  0.00  0.00    +0.000 C 
ATOM     22  C   UNL     1       2.816   5.984  19.556  0.00  0.00    +0.000 C 
ENDBRANCH   7  17
TORSDOF 2
ENDMDL
MODEL 6
REMARK VINA RESULT:      -7.1      1.229      1.687
REMARK  Name = 
REMARK  2 active torsions:
REMARK  status: ('A' for Active; 'I' for Inactive)
REMARK    1  A    between atoms: C_4  and  C_5
REMARK    2  A    between atoms: C_13  and  C_15
REMARK                            x       y       z     vdW  Elec       q    Type
REMARK                         _______ _______ _______ _____ _____    ______ ____
ROOT
ATOM      1  N   UNL     1       7.820   6.931  18.357  0.00  0.00    +0.000 N 
ATOM      2  C   UNL     1       7.250   6.080  17.488  0.00  0.00    +0.000 A 
ATOM      3  N   UNL     1       7.547   5.974  16.217  0.00  0.00    +0.000 NA
ATOM      4  C   UNL     1       6.643   5.050  15.736  0.00  0.00    +0.000 A 
ATOM      5  N   UNL     1       5.792   4.591  16.666  0.00  0.00    +0.000 NA
ATOM      6  N   UNL     1       6.198   5.224  17.790  0.00  0.00    +0.000 N 
ATOM      7  C   UNL     1       5.556   5.003  19.017  0.00  0.00    +0.000 C 
ATOM      8  O   UNL     1       6.071   5.418  20.052  0.00  0.00    +0.000 OA
ATOM      9  H   UNL     1       8.525   7.587  18.042  0.00  0.00    +0.000 HD
ATOM     10  H   UNL     1       7.547   6.986  19.338  0.00  0.00    +0.000 HD
ENDROOT
BRANCH   4  11
ATOM     11  C   UNL     1       6.602   4.644  14.326  0.00  0.00    +0.000 A 
ATOM     12  C   UNL     1       5.658   3.723  13.883  0.00  0.00    +0.000 A 
ATOM     13  C   UNL     1       5.675   3.340  12.542  0.00  0.00    +0.000 A 
ATOM     14  C   UNL     1       6.625   3.889  11.689  0.00  0.00    +0.000 A 
ATOM     15  C   UNL     1       7.520   4.805  12.208  0.00  0.00    +0.000 A 
ATOM     16  N   UNL     1       7.534   5.193  13.498  0.00  0.00    +0.000 NA
ENDBRANCH   4  11
BRANCH   7  17
ATOM     17  C   UNL     1       4.176   4.353  18.904  0.00  0.00    +0.000 C 
ATOM     18  C   UNL     1       4.374   2.941  18.328  0.00  0.00    +0.000 C 
ATOM     19  C   UNL     1       3.088   2.327  17.802  0.00  0.00    +0.000 C 
ATOM     20  O   UNL     1       2.447   3.216  16.895  0.00  0.00    +0.000 OA
ATOM     21  C   UNL     1       2.031   4.412  17.547  0.00  0.00    +0.000 C 
ATOM     22  C   UNL     1       3.239   5.202  18.031  0.00  0.00    +0.000 C 
ENDBRANCH   7  17
TORSDOF 2
ENDMDL
MODEL 7
REMARK VINA RESULT:      -6.9      3.726      6.558
REMARK  Name = 
REMARK  2 active torsions:
REMARK  status: ('A' for Active; 'I' for Inactive)
REMARK    1  A    between atoms: C_4  and  C_5
REMARK    2  A    between atoms: C_13  and  C_15
REMARK                            x       y       z     vdW  Elec       q    Type
REMARK                         _______ _______ _______ _____ _____    ______ ____
ROOT
ATOM      1  N   UNL     1       2.466   3.203  20.733  0.00  0.00    +0.000 N 
ATOM      2  C   UNL     1       2.726   4.413  20.213  0.00  0.00    +0.000 A 
ATOM      3  N   UNL     1       1.939   5.458  20.279  0.00  0.00    +0.000 NA
ATOM      4  C   UNL     1       2.588   6.417  19.530  0.00  0.00    +0.000 A 
ATOM      5  N   UNL     1       3.743   5.995  18.995  0.00  0.00    +0.000 NA
ATOM      6  N   UNL     1       3.848   4.727  19.456  0.00  0.00    +0.000 N 
ATOM      7  C   UNL     1       4.948   3.924  19.123  0.00  0.00    +0.000 C 
ATOM      8  O   UNL     1       5.127   2.866  19.720  0.00  0.00    +0.000 OA
ATOM      9  H   UNL     1       1.584   3.027  21.202  0.00  0.00    +0.000 HD
ATOM     10  H   UNL     1       3.105   2.413  20.646  0.00  0.00    +0.000 HD
ENDROOT
BRANCH   4  11
ATOM     11  C   UNL     1       2.036   7.760  19.313  0.00  0.00    +0.000 A 
ATOM     12  C   UNL     1       2.176   8.391  18.081  0.00  0.00    +0.000 A 
ATOM     13  C   UNL     1       1.665   9.680  17.929  0.00  0.00    +0.000 A 
ATOM     14  C   UNL     1       1.029  10.292  19.002  0.00  0.00    +0.000 A 
ATOM     15  C   UNL     1       0.923   9.590  20.189  0.00  0.00    +0.000 A 
ATOM     16  N   UNL     1       1.409   8.347  20.370  0.00  0.00    +0.000 NA
ENDBRANCH   4  11
BRANCH   7  17
ATOM     17  C   UNL     1       5.761   4.423  17.928  0.00  0.00    +0.000 C 
ATOM     18  C   UNL     1       6.557   5.656  18.388  0.00  0.00    +0.000 C 
ATOM     19  C   UNL     1       7.099   6.481  17.234  0.00  0.00    +0.000 C 
ATOM     20  O   UNL     1       6.058   6.798  16.317  0.00  0.00    +0.000 OA
ATOM     21  C   UNL     1       5.532   5.626  15.702  0.00  0.00    +0.000 C 
ATOM     22  C   UNL     1       4.844   4.746  16.737  0.00  0.00    +0.000 C 
ENDBRANCH   7  17
TORSDOF 2
ENDMDL
MODEL 8
REMARK VINA RESULT:      -6.9      1.732      1.876
REMARK  Name = 
REMARK  2 active torsions:
REMARK  status: ('A' for Active; 'I' for Inactive)
REMARK    1  A    between atoms: C_4  and  C_5
REMARK    2  A    between atoms: C_13  and  C_15
REMARK                            x       y       z     vdW  Elec       q    Type
REMARK                         _______ _______ _______ _____ _____    ______ ____
ROOT
ATOM      1  N   UNL     1       4.543   7.916  17.548  0.00  0.00    +0.000 N 
ATOM      2  C   UNL     1       4.840   6.799  16.864  0.00  0.00    +0.000 A 
ATOM      3  N   UNL     1       5.528   6.744  15.751  0.00  0.00    +0.000 NA
ATOM      4  C   UNL     1       5.483   5.413  15.393  0.00  0.00    +0.000 A 
ATOM      5  N   UNL     1       4.782   4.647  16.241  0.00  0.00    +0.000 NA
ATOM      6  N   UNL     1       4.397   5.524  17.197  0.00  0.00    +0.000 N 
ATOM      7  C   UNL     1       3.633   5.108  18.296  0.00  0.00    +0.000 C 
ATOM      8  O   UNL     1       3.480   5.867  19.249  0.00  0.00    +0.000 OA
ATOM      9  H   UNL     1       4.831   8.822  17.196  0.00  0.00    +0.000 HD
ATOM     10  H   UNL     1       3.992   7.911  18.406  0.00  0.00    +0.000 HD
ENDROOT
BRANCH   4  11
ATOM     11  C   UNL     1       6.118   4.901  14.171  0.00  0.00    +0.000 A 
ATOM     12  C   UNL     1       5.537   3.857  13.459  0.00  0.00    +0.000 A 
ATOM     13  C   UNL     1       6.190   3.379  12.322  0.00  0.00    +0.000 A 
ATOM     14  C   UNL     1       7.391   3.959  11.932  0.00  0.00    +0.000 A 
ATOM     15  C   UNL     1       7.894   5.000  12.692  0.00  0.00    +0.000 A 
ATOM     16  N   UNL     1       7.291   5.481  13.796  0.00  0.00    +0.000 NA
ENDBRANCH   4  11
BRANCH   7  17
ATOM     17  C   UNL     1       2.953   3.749  18.120  0.00  0.00    +0.000 C 
ATOM     18  C   UNL     1       1.476   3.914  18.512  0.00  0.00    +0.000 C 
ATOM     19  C   UNL     1       0.773   2.590  18.759  0.00  0.00    +0.000 C 
ATOM     20  O   UNL     1       1.511   1.801  19.684  0.00  0.00    +0.000 OA
ATOM     21  C   UNL     1       2.783   1.436  19.157  0.00  0.00    +0.000 C 
ATOM     22  C   UNL     1       3.652   2.671  18.965  0.00  0.00    +0.000 C 
ENDBRANCH   7  17
TORSDOF 2
ENDMDL
MODEL 9
REMARK VINA RESULT:      -6.8      1.585      1.873
REMARK  Name = 
REMARK  2 active torsions:
REMARK  status: ('A' for Active; 'I' for Inactive)
REMARK    1  A    between atoms: C_4  and  C_5
REMARK    2  A    between atoms: C_13  and  C_15
REMARK                            x       y       z     vdW  Elec       q    Type
REMARK                         _______ _______ _______ _____ _____    ______ ____
ROOT
ATOM      1  N   UNL     1       7.684   6.840  17.111  0.00  0.00    +0.000 N 
ATOM      2  C   UNL     1       7.037   5.864  16.453  0.00  0.00    +0.000 A 
ATOM      3  N   UNL     1       7.156   5.592  15.177  0.00  0.00    +0.000 NA
ATOM      4  C   UNL     1       6.236   4.588  14.959  0.00  0.00    +0.000 A 
ATOM      5  N   UNL     1       5.546   4.239  16.055  0.00  0.00    +0.000 NA
ATOM      6  N   UNL     1       6.077   5.030  17.015  0.00  0.00    +0.000 N 
ATOM      7  C   UNL     1       5.624   4.963  18.340  0.00  0.00    +0.000 C 
ATOM      8  O   UNL     1       6.260   5.528  19.226  0.00  0.00    +0.000 OA
ATOM      9  H   UNL     1       8.308   7.464  16.612  0.00  0.00    +0.000 HD
ATOM     10  H   UNL     1       7.549   7.022  18.105  0.00  0.00    +0.000 HD
ENDROOT
BRANCH   4  11
ATOM     11  C   UNL     1       6.015   3.992  13.636  0.00  0.00    +0.000 A 
ATOM     12  C   UNL     1       4.724   3.785  13.161  0.00  0.00    +0.000 A 
ATOM     13  C   UNL     1       4.559   3.186  11.912  0.00  0.00    +0.000 A 
ATOM     14  C   UNL     1       5.681   2.819  11.179  0.00  0.00    +0.000 A 
ATOM     15  C   UNL     1       6.929   3.071  11.720  0.00  0.00    +0.000 A 
ATOM     16  N   UNL     1       7.122   3.643  12.923  0.00  0.00    +0.000 NA
ENDBRANCH   4  11
BRANCH   7  17
ATOM     17  C   UNL     1       4.273   4.269  18.516  0.00  0.00    +0.000 C 
ATOM     18  C   UNL     1       3.279   5.313  19.051  0.00  0.00    +0.000 C 
ATOM     19  C   UNL     1       2.021   4.695  19.635  0.00  0.00    +0.000 C 
ATOM     20  O   UNL     1       2.355   3.700  20.595  0.00  0.00    +0.000 OA
ATOM     21  C   UNL     1       3.043   2.608  19.993  0.00  0.00    +0.000 C 
ATOM     22  C   UNL     1       4.395   3.060  19.459  0.00  0.00    +0.000 C 
ENDBRANCH   7  17
TORSDOF 2
ENDMDL
