MODEL 1
REMARK VINA RESULT:      -9.3      0.000      0.000
REMARK  Name = 
REMARK  10 active torsions:
REMARK  status: ('A' for Active; 'I' for Inactive)
REMARK    1  A    between atoms: C_1  and  C_2
REMARK    2  A    between atoms: C_2  and  C_3
REMARK    3  A    between atoms: N_5  and  C_6
REMARK    4  A    between atoms: C_6  and  C_7
REMARK    5  A    between atoms: C_10  and  C_11
REMARK    6  A    between atoms: C_16  and  C_17
REMARK    7  A    between atoms: N_25  and  C_26
REMARK    8  A    between atoms: C_26  and  C_28
REMARK    9  A    between atoms: C_31  and  O_32
REMARK   10  A    between atoms: O_32  and  C_33
REMARK                            x       y       z     vdW  Elec       q    Type
REMARK                         _______ _______ _______ _____ _____    ______ ____
ROOT
ATOM      1  C   UNL     1       0.585   9.798  20.293  0.00  0.00    +0.000 C 
ENDROOT
BRANCH   1   4
ATOM      2  C   UNL     1      -2.124  10.386  18.106  0.00  0.00    +0.000 A 
ATOM      3  N   UNL     1      -1.189   9.645  18.630  0.00  0.00    +0.000 NA
ATOM      4  N   UNL     1      -0.517  10.417  19.573  0.00  0.00    +0.000 N 
ATOM      5  C   UNL     1      -1.036  11.668  19.870  0.00  0.00    +0.000 A 
ATOM      6  N   UNL     1      -0.755  12.424  20.883  0.00  0.00    +0.000 NA
ATOM      7  S   UNL     1      -2.185  12.055  18.577  0.00  0.00    +0.000 S 
BRANCH   2   9
ATOM      8  C   UNL     1      -2.940  10.371  15.735  0.00  0.00    +0.000 C 
ATOM      9  C   UNL     1      -3.170   9.886  17.156  0.00  0.00    +0.000 C 
ENDBRANCH   2   9
BRANCH   6  10
ATOM     10  C   UNL     1      -1.624  13.441  21.185  0.00  0.00    +0.000 C 
ATOM     11  O   UNL     1      -1.610  14.551  20.649  0.00  0.00    +0.000 OA
BRANCH  10  12
ATOM     12  C   UNL     1      -2.782  13.150  22.077  0.00  0.00    +0.000 A 
ATOM     13  C   UNL     1      -4.070  13.374  21.569  0.00  0.00    +0.000 A 
ATOM     14  C   UNL     1      -5.195  13.099  22.342  0.00  0.00    +0.000 A 
ATOM     15  C   UNL     1      -5.052  12.590  23.629  0.00  0.00    +0.000 A 
ATOM     16  C   UNL     1      -3.771  12.373  24.150  0.00  0.00    +0.000 A 
ATOM     17  C   UNL     1      -2.633  12.651  23.373  0.00  0.00    +0.000 A 
BRANCH  15  18
ATOM     18  O   UNL     1      -6.228  12.386  24.294  0.00  0.00    +0.000 OA
ATOM     19  C   UNL     1      -7.411  12.518  23.518  0.00  0.00    +0.000 C 
ENDBRANCH  15  18
ENDBRANCH  10  12
ENDBRANCH   6  10
ENDBRANCH   1   4
BRANCH   1  20
ATOM     20  C   UNL     1       1.394   8.794  19.495  0.00  0.00    +0.000 A 
ATOM     21  C   UNL     1       1.800   9.043  18.180  0.00  0.00    +0.000 A 
ATOM     22  C   UNL     1       2.633   8.133  17.497  0.00  0.00    +0.000 A 
ATOM     23  C   UNL     1       3.114   6.956  18.107  0.00  0.00    +0.000 A 
ATOM     24  C   UNL     1       2.714   6.750  19.439  0.00  0.00    +0.000 A 
ATOM     25  C   UNL     1       1.838   7.618  20.103  0.00  0.00    +0.000 A 
BRANCH  23  26
ATOM     26  C   UNL     1       4.027   6.000  17.392  0.00  0.00    +0.000 A 
ATOM     27  C   UNL     1       5.125   6.518  16.662  0.00  0.00    +0.000 A 
ATOM     28  C   UNL     1       6.062   5.697  16.022  0.00  0.00    +0.000 A 
ATOM     29  C   UNL     1       5.958   4.319  16.122  0.00  0.00    +0.000 A 
ATOM     30  C   UNL     1       4.891   3.767  16.823  0.00  0.00    +0.000 A 
ATOM     31  C   UNL     1       3.902   4.580  17.424  0.00  0.00    +0.000 A 
BRANCH  31  32
ATOM     32  C   UNL     1       2.779   3.877  18.030  0.00  0.00    +0.000 A 
ATOM     33  N   UNL     1       1.528   3.836  17.454  0.00  0.00    +0.000 NA
ATOM     34  N   UNL     1       0.768   3.084  18.237  0.00  0.00    +0.000 NA
ATOM     35  N   UNL     1       1.577   2.718  19.239  0.00  0.00    +0.000 N 
ATOM     36  N   UNL     1       2.817   3.220  19.202  0.00  0.00    +0.000 NA
ATOM     37  H   UNL     1       1.272   2.086  19.974  0.00  0.00    +0.000 HD
ENDBRANCH  31  32
ENDBRANCH  23  26
ENDBRANCH   1  20
TORSDOF 8
ENDMDL
MODEL 2
REMARK VINA RESULT:      -9.3      0.260      1.041
REMARK  Name = 
REMARK  10 active torsions:
REMARK  status: ('A' for Active; 'I' for Inactive)
REMARK    1  A    between atoms: C_1  and  C_2
REMARK    2  A    between atoms: C_2  and  C_3
REMARK    3  A    between atoms: N_5  and  C_6
REMARK    4  A    between atoms: C_6  and  C_7
REMARK    5  A    between atoms: C_10  and  C_11
REMARK    6  A    between atoms: C_16  and  C_17
REMARK    7  A    between atoms: N_25  and  C_26
REMARK    8  A    between atoms: C_26  and  C_28
REMARK    9  A    between atoms: C_31  and  O_32
REMARK   10  A    between atoms: O_32  and  C_33
REMARK                            x       y       z     vdW  Elec       q    Type
REMARK                         _______ _______ _______ _____ _____    ______ ____
ROOT
ATOM      1  C   UNL     1       0.634   9.761  20.444  0.00  0.00    +0.000 C 
ENDROOT
BRANCH   1   4
ATOM      2  C   UNL     1      -2.094  10.503  18.330  0.00  0.00    +0.000 A 
ATOM      3  N   UNL     1      -1.190   9.709  18.830  0.00  0.00    +0.000 NA
ATOM      4  N   UNL     1      -0.449  10.442  19.752  0.00  0.00    +0.000 N 
ATOM      5  C   UNL     1      -0.886  11.721  20.060  0.00  0.00    +0.000 A 
ATOM      6  N   UNL     1      -0.535  12.460  21.064  0.00  0.00    +0.000 NA
ATOM      7  S   UNL     1      -2.046  12.174  18.797  0.00  0.00    +0.000 S 
BRANCH   2   9
ATOM      8  C   UNL     1      -2.711   9.877  15.981  0.00  0.00    +0.000 C 
ATOM      9  C   UNL     1      -3.192  10.064  17.409  0.00  0.00    +0.000 C 
ENDBRANCH   2   9
BRANCH   6  10
ATOM     10  C   UNL     1      -1.335  13.526  21.386  0.00  0.00    +0.000 C 
ATOM     11  O   UNL     1      -1.151  14.679  20.991  0.00  0.00    +0.000 OA
BRANCH  10  12
ATOM     12  C   UNL     1      -2.615  13.267  22.104  0.00  0.00    +0.000 A 
ATOM     13  C   UNL     1      -2.557  12.529  23.296  0.00  0.00    +0.000 A 
ATOM     14  C   UNL     1      -3.715  12.273  24.027  0.00  0.00    +0.000 A 
ATOM     15  C   UNL     1      -4.943  12.754  23.584  0.00  0.00    +0.000 A 
ATOM     16  C   UNL     1      -5.013  13.481  22.390  0.00  0.00    +0.000 A 
ATOM     17  C   UNL     1      -3.848  13.740  21.648  0.00  0.00    +0.000 A 
BRANCH  15  18
ATOM     18  O   UNL     1      -6.005  12.415  24.375  0.00  0.00    +0.000 OA
ATOM     19  C   UNL     1      -7.286  12.795  23.891  0.00  0.00    +0.000 C 
ENDBRANCH  15  18
ENDBRANCH  10  12
ENDBRANCH   6  10
ENDBRANCH   1   4
BRANCH   1  20
ATOM     20  C   UNL     1       1.410   8.765  19.604  0.00  0.00    +0.000 A 
ATOM     21  C   UNL     1       1.799   9.044  18.289  0.00  0.00    +0.000 A 
ATOM     22  C   UNL     1       2.602   8.139  17.567  0.00  0.00    +0.000 A 
ATOM     23  C   UNL     1       3.072   6.937  18.135  0.00  0.00    +0.000 A 
ATOM     24  C   UNL     1       2.692   6.700  19.468  0.00  0.00    +0.000 A 
ATOM     25  C   UNL     1       1.844   7.564  20.171  0.00  0.00    +0.000 A 
BRANCH  23  26
ATOM     26  C   UNL     1       3.955   5.986  17.377  0.00  0.00    +0.000 A 
ATOM     27  C   UNL     1       5.034   6.506  16.621  0.00  0.00    +0.000 A 
ATOM     28  C   UNL     1       5.944   5.688  15.940  0.00  0.00    +0.000 A 
ATOM     29  C   UNL     1       5.833   4.310  16.022  0.00  0.00    +0.000 A 
ATOM     30  C   UNL     1       4.783   3.755  16.747  0.00  0.00    +0.000 A 
ATOM     31  C   UNL     1       3.821   4.566  17.392  0.00  0.00    +0.000 A 
BRANCH  31  32
ATOM     32  C   UNL     1       2.711   3.862  18.022  0.00  0.00    +0.000 A 
ATOM     33  N   UNL     1       2.846   3.165  19.203  0.00  0.00    +0.000 NA
ATOM     34  N   UNL     1       1.647   2.691  19.509  0.00  0.00    +0.000 NA
ATOM     35  N   UNL     1       0.857   3.108  18.512  0.00  0.00    +0.000 N 
ATOM     36  N   UNL     1       1.463   3.787  17.531  0.00  0.00    +0.000 NA
ATOM     37  H   UNL     1      -0.144   2.930  18.508  0.00  0.00    +0.000 HD
ENDBRANCH  31  32
ENDBRANCH  23  26
ENDBRANCH   1  20
TORSDOF 8
ENDMDL
MODEL 3
REMARK VINA RESULT:      -9.3      2.813      4.505
REMARK  Name = 
REMARK  10 active torsions:
REMARK  status: ('A' for Active; 'I' for Inactive)
REMARK    1  A    between atoms: C_1  and  C_2
REMARK    2  A    between atoms: C_2  and  C_3
REMARK    3  A    between atoms: N_5  and  C_6
REMARK    4  A    between atoms: C_6  and  C_7
REMARK    5  A    between atoms: C_10  and  C_11
REMARK    6  A    between atoms: C_16  and  C_17
REMARK    7  A    between atoms: N_25  and  C_26
REMARK    8  A    between atoms: C_26  and  C_28
REMARK    9  A    between atoms: C_31  and  O_32
REMARK   10  A    between atoms: O_32  and  C_33
REMARK                            x       y       z     vdW  Elec       q    Type
REMARK                         _______ _______ _______ _____ _____    ______ ____
ROOT
ATOM      1  C   UNL     1       0.914   9.370  20.739  0.00  0.00    +0.000 C 
ENDROOT
BRANCH   1   4
ATOM      2  C   UNL     1      -1.585  11.121  18.964  0.00  0.00    +0.000 A 
ATOM      3  N   UNL     1      -1.057  10.047  19.477  0.00  0.00    +0.000 NA
ATOM      4  N   UNL     1       0.135  10.415  20.094  0.00  0.00    +0.000 N 
ATOM      5  C   UNL     1       0.423  11.768  20.183  0.00  0.00    +0.000 A 
ATOM      6  N   UNL     1       1.305  12.344  20.936  0.00  0.00    +0.000 NA
ATOM      7  S   UNL     1      -0.663  12.589  19.047  0.00  0.00    +0.000 S 
BRANCH   2   9
ATOM      8  C   UNL     1      -3.132  10.143  17.249  0.00  0.00    +0.000 C 
ATOM      9  C   UNL     1      -2.947  11.183  18.340  0.00  0.00    +0.000 C 
ENDBRANCH   2   9
BRANCH   6  10
ATOM     10  C   UNL     1       1.189  13.695  21.141  0.00  0.00    +0.000 C 
ATOM     11  O   UNL     1       0.884  14.212  22.218  0.00  0.00    +0.000 OA
BRANCH  10  12
ATOM     12  C   UNL     1       1.634  14.622  20.063  0.00  0.00    +0.000 A 
ATOM     13  C   UNL     1       0.863  15.770  19.829  0.00  0.00    +0.000 A 
ATOM     14  C   UNL     1       1.238  16.689  18.852  0.00  0.00    +0.000 A 
ATOM     15  C   UNL     1       2.390  16.480  18.100  0.00  0.00    +0.000 A 
ATOM     16  C   UNL     1       3.161  15.331  18.317  0.00  0.00    +0.000 A 
ATOM     17  C   UNL     1       2.784  14.401  19.301  0.00  0.00    +0.000 A 
BRANCH  15  18
ATOM     18  O   UNL     1       2.637  17.439  17.158  0.00  0.00    +0.000 OA
ATOM     19  C   UNL     1       1.511  18.195  16.733  0.00  0.00    +0.000 C 
ENDBRANCH  15  18
ENDBRANCH  10  12
ENDBRANCH   6  10
ENDBRANCH   1   4
BRANCH   1  20
ATOM     20  C   UNL     1       1.628   8.422  19.797  0.00  0.00    +0.000 A 
ATOM     21  C   UNL     1       1.953   8.782  18.485  0.00  0.00    +0.000 A 
ATOM     22  C   UNL     1       2.703   7.917  17.663  0.00  0.00    +0.000 A 
ATOM     23  C   UNL     1       3.181   6.673  18.125  0.00  0.00    +0.000 A 
ATOM     24  C   UNL     1       2.867   6.354  19.458  0.00  0.00    +0.000 A 
ATOM     25  C   UNL     1       2.071   7.180  20.260  0.00  0.00    +0.000 A 
BRANCH  23  26
ATOM     26  C   UNL     1       4.008   5.763  17.261  0.00  0.00    +0.000 A 
ATOM     27  C   UNL     1       5.023   6.324  16.448  0.00  0.00    +0.000 A 
ATOM     28  C   UNL     1       5.881   5.543  15.665  0.00  0.00    +0.000 A 
ATOM     29  C   UNL     1       5.783   4.162  15.695  0.00  0.00    +0.000 A 
ATOM     30  C   UNL     1       4.795   3.568  16.473  0.00  0.00    +0.000 A 
ATOM     31  C   UNL     1       3.881   4.343  17.224  0.00  0.00    +0.000 A 
BRANCH  31  32
ATOM     32  C   UNL     1       2.826   3.603  17.906  0.00  0.00    +0.000 A 
ATOM     33  N   UNL     1       3.070   2.789  18.991  0.00  0.00    +0.000 NA
ATOM     34  N   UNL     1       1.897   2.313  19.385  0.00  0.00    +0.000 NA
ATOM     35  N   UNL     1       1.015   2.844  18.529  0.00  0.00    +0.000 N 
ATOM     36  N   UNL     1       1.529   3.605  17.556  0.00  0.00    +0.000 NA
ATOM     37  H   UNL     1       0.014   2.689  18.623  0.00  0.00    +0.000 HD
ENDBRANCH  31  32
ENDBRANCH  23  26
ENDBRANCH   1  20
TORSDOF 8
ENDMDL
MODEL 4
REMARK VINA RESULT:      -9.3      0.956      1.309
REMARK  Name = 
REMARK  10 active torsions:
REMARK  status: ('A' for Active; 'I' for Inactive)
REMARK    1  A    between atoms: C_1  and  C_2
REMARK    2  A    between atoms: C_2  and  C_3
REMARK    3  A    between atoms: N_5  and  C_6
REMARK    4  A    between atoms: C_6  and  C_7
REMARK    5  A    between atoms: C_10  and  C_11
REMARK    6  A    between atoms: C_16  and  C_17
REMARK    7  A    between atoms: N_25  and  C_26
REMARK    8  A    between atoms: C_26  and  C_28
REMARK    9  A    between atoms: C_31  and  O_32
REMARK   10  A    between atoms: O_32  and  C_33
REMARK                            x       y       z     vdW  Elec       q    Type
REMARK                         _______ _______ _______ _____ _____    ______ ____
ROOT
ATOM      1  C   UNL     1       0.407   9.241  20.872  0.00  0.00    +0.000 C 
ENDROOT
BRANCH   1   4
ATOM      2  C   UNL     1      -1.379  11.213  18.551  0.00  0.00    +0.000 A 
ATOM      3  N   UNL     1      -0.911  10.085  19.005  0.00  0.00    +0.000 NA
ATOM      4  N   UNL     1      -0.217  10.358  20.180  0.00  0.00    +0.000 N 
ATOM      5  C   UNL     1      -0.293  11.644  20.690  0.00  0.00    +0.000 A 
ATOM      6  N   UNL     1       0.025  12.048  21.878  0.00  0.00    +0.000 NA
ATOM      7  S   UNL     1      -0.924  12.666  19.384  0.00  0.00    +0.000 S 
BRANCH   2   9
ATOM      8  C   UNL     1      -2.830   9.990  16.912  0.00  0.00    +0.000 C 
ATOM      9  C   UNL     1      -2.312  11.337  17.384  0.00  0.00    +0.000 C 
ENDBRANCH   2   9
BRANCH   6  10
ATOM     10  C   UNL     1      -0.455  13.263  22.293  0.00  0.00    +0.000 C 
ATOM     11  O   UNL     1       0.171  14.323  22.214  0.00  0.00    +0.000 OA
BRANCH  10  12
ATOM     12  C   UNL     1      -1.886  13.366  22.695  0.00  0.00    +0.000 A 
ATOM     13  C   UNL     1      -2.582  14.532  22.339  0.00  0.00    +0.000 A 
ATOM     14  C   UNL     1      -3.928  14.680  22.663  0.00  0.00    +0.000 A 
ATOM     15  C   UNL     1      -4.601  13.666  23.339  0.00  0.00    +0.000 A 
ATOM     16  C   UNL     1      -3.914  12.505  23.708  0.00  0.00    +0.000 A 
ATOM     17  C   UNL     1      -2.555  12.352  23.385  0.00  0.00    +0.000 A 
BRANCH  15  18
ATOM     18  O   UNL     1      -5.909  13.942  23.621  0.00  0.00    +0.000 OA
ATOM     19  C   UNL     1      -6.691  12.847  24.078  0.00  0.00    +0.000 C 
ENDBRANCH  15  18
ENDBRANCH  10  12
ENDBRANCH   6  10
ENDBRANCH   1   4
BRANCH   1  20
ATOM     20  C   UNL     1       1.374   8.423  20.038  0.00  0.00    +0.000 A 
ATOM     21  C   UNL     1       1.854   7.180  20.463  0.00  0.00    +0.000 A 
ATOM     22  C   UNL     1       2.675   6.399  19.624  0.00  0.00    +0.000 A 
ATOM     23  C   UNL     1       3.024   6.813  18.322  0.00  0.00    +0.000 A 
ATOM     24  C   UNL     1       2.499   8.051  17.912  0.00  0.00    +0.000 A 
ATOM     25  C   UNL     1       1.734   8.860  18.761  0.00  0.00    +0.000 A 
BRANCH  23  26
ATOM     26  C   UNL     1       3.873   5.968  17.414  0.00  0.00    +0.000 A 
ATOM     27  C   UNL     1       4.863   6.596  16.619  0.00  0.00    +0.000 A 
ATOM     28  C   UNL     1       5.739   5.878  15.796  0.00  0.00    +0.000 A 
ATOM     29  C   UNL     1       5.685   4.494  15.768  0.00  0.00    +0.000 A 
ATOM     30  C   UNL     1       4.724   3.835  16.527  0.00  0.00    +0.000 A 
ATOM     31  C   UNL     1       3.792   4.547  17.317  0.00  0.00    +0.000 A 
BRANCH  31  32
ATOM     32  C   UNL     1       2.767   3.745  17.974  0.00  0.00    +0.000 A 
ATOM     33  N   UNL     1       1.456   3.719  17.549  0.00  0.00    +0.000 NA
ATOM     34  N   UNL     1       0.815   2.863  18.332  0.00  0.00    +0.000 NA
ATOM     35  N   UNL     1       1.750   2.425  19.186  0.00  0.00    +0.000 N 
ATOM     36  N   UNL     1       2.964   2.973  19.056  0.00  0.00    +0.000 NA
ATOM     37  H   UNL     1       1.551   1.710  19.881  0.00  0.00    +0.000 HD
ENDBRANCH  31  32
ENDBRANCH  23  26
ENDBRANCH   1  20
TORSDOF 8
ENDMDL
MODEL 5
REMARK VINA RESULT:      -9.1      2.942      4.806
REMARK  Name = 
REMARK  10 active torsions:
REMARK  status: ('A' for Active; 'I' for Inactive)
REMARK    1  A    between atoms: C_1  and  C_2
REMARK    2  A    between atoms: C_2  and  C_3
REMARK    3  A    between atoms: N_5  and  C_6
REMARK    4  A    between atoms: C_6  and  C_7
REMARK    5  A    between atoms: C_10  and  C_11
REMARK    6  A    between atoms: C_16  and  C_17
REMARK    7  A    between atoms: N_25  and  C_26
REMARK    8  A    between atoms: C_26  and  C_28
REMARK    9  A    between atoms: C_31  and  O_32
REMARK   10  A    between atoms: O_32  and  C_33
REMARK                            x       y       z     vdW  Elec       q    Type
REMARK                         _______ _______ _______ _____ _____    ______ ____
ROOT
ATOM      1  C   UNL     1       0.709   9.461  20.777  0.00  0.00    +0.000 C 
ENDROOT
BRANCH   1   4
ATOM      2  C   UNL     1      -1.649  11.311  18.912  0.00  0.00    +0.000 A 
ATOM      3  N   UNL     1      -1.164  10.210  19.412  0.00  0.00    +0.000 NA
ATOM      4  N   UNL     1      -0.017  10.541  20.127  0.00  0.00    +0.000 N 
ATOM      5  C   UNL     1       0.271  11.886  20.298  0.00  0.00    +0.000 A 
ATOM      6  N   UNL     1       1.100  12.420  21.137  0.00  0.00    +0.000 NA
ATOM      7  S   UNL     1      -0.728  12.766  19.127  0.00  0.00    +0.000 S 
BRANCH   2   9
ATOM      8  C   UNL     1      -2.828  11.188  16.702  0.00  0.00    +0.000 C 
ATOM      9  C   UNL     1      -2.963  11.412  18.198  0.00  0.00    +0.000 C 
ENDBRANCH   2   9
BRANCH   6  10
ATOM     10  C   UNL     1       0.977  13.761  21.395  0.00  0.00    +0.000 C 
ATOM     11  O   UNL     1       0.310  14.234  22.318  0.00  0.00    +0.000 OA
BRANCH  10  12
ATOM     12  C   UNL     1       1.840  14.715  20.644  0.00  0.00    +0.000 A 
ATOM     13  C   UNL     1       3.131  14.291  20.295  0.00  0.00    +0.000 A 
ATOM     14  C   UNL     1       3.980  15.125  19.571  0.00  0.00    +0.000 A 
ATOM     15  C   UNL     1       3.551  16.390  19.180  0.00  0.00    +0.000 A 
ATOM     16  C   UNL     1       2.269  16.827  19.533  0.00  0.00    +0.000 A 
ATOM     17  C   UNL     1       1.411  15.989  20.264  0.00  0.00    +0.000 A 
BRANCH  15  18
ATOM     18  O   UNL     1       4.483  17.121  18.498  0.00  0.00    +0.000 OA
ATOM     19  C   UNL     1       5.794  17.123  19.048  0.00  0.00    +0.000 C 
ENDBRANCH  15  18
ENDBRANCH  10  12
ENDBRANCH   6  10
ENDBRANCH   1   4
BRANCH   1  20
ATOM     20  C   UNL     1       1.449   8.525  19.841  0.00  0.00    +0.000 A 
ATOM     21  C   UNL     1       1.800   8.899  18.540  0.00  0.00    +0.000 A 
ATOM     22  C   UNL     1       2.571   8.045  17.727  0.00  0.00    +0.000 A 
ATOM     23  C   UNL     1       3.046   6.800  18.188  0.00  0.00    +0.000 A 
ATOM     24  C   UNL     1       2.705   6.466  19.510  0.00  0.00    +0.000 A 
ATOM     25  C   UNL     1       1.887   7.282  20.303  0.00  0.00    +0.000 A 
BRANCH  23  26
ATOM     26  C   UNL     1       3.895   5.901  17.334  0.00  0.00    +0.000 A 
ATOM     27  C   UNL     1       4.919   6.476  16.540  0.00  0.00    +0.000 A 
ATOM     28  C   UNL     1       5.798   5.707  15.768  0.00  0.00    +0.000 A 
ATOM     29  C   UNL     1       5.712   4.325  15.789  0.00  0.00    +0.000 A 
ATOM     30  C   UNL     1       4.717   3.718  16.548  0.00  0.00    +0.000 A 
ATOM     31  C   UNL     1       3.783   4.481  17.287  0.00  0.00    +0.000 A 
BRANCH  31  32
ATOM     32  C   UNL     1       2.724   3.727  17.947  0.00  0.00    +0.000 A 
ATOM     33  N   UNL     1       2.946   2.956  19.068  0.00  0.00    +0.000 NA
ATOM     34  N   UNL     1       1.773   2.454  19.427  0.00  0.00    +0.000 NA
ATOM     35  N   UNL     1       0.912   2.928  18.518  0.00  0.00    +0.000 N 
ATOM     36  N   UNL     1       1.444   3.675  17.543  0.00  0.00    +0.000 NA
ATOM     37  H   UNL     1      -0.086   2.743  18.574  0.00  0.00    +0.000 HD
ENDBRANCH  31  32
ENDBRANCH  23  26
ENDBRANCH   1  20
TORSDOF 8
ENDMDL
MODEL 6
REMARK VINA RESULT:      -9.1      3.430      5.341
REMARK  Name = 
REMARK  10 active torsions:
REMARK  status: ('A' for Active; 'I' for Inactive)
REMARK    1  A    between atoms: C_1  and  C_2
REMARK    2  A    between atoms: C_2  and  C_3
REMARK    3  A    between atoms: N_5  and  C_6
REMARK    4  A    between atoms: C_6  and  C_7
REMARK    5  A    between atoms: C_10  and  C_11
REMARK    6  A    between atoms: C_16  and  C_17
REMARK    7  A    between atoms: N_25  and  C_26
REMARK    8  A    between atoms: C_26  and  C_28
REMARK    9  A    between atoms: C_31  and  O_32
REMARK   10  A    between atoms: O_32  and  C_33
REMARK                            x       y       z     vdW  Elec       q    Type
REMARK                         _______ _______ _______ _____ _____    ______ ____
ROOT
ATOM      1  C   UNL     1       0.688   9.350  20.507  0.00  0.00    +0.000 C 
ENDROOT
BRANCH   1   4
ATOM      2  C   UNL     1      -1.615  11.341  18.720  0.00  0.00    +0.000 A 
ATOM      3  N   UNL     1      -1.239  10.245  19.314  0.00  0.00    +0.000 NA
ATOM      4  N   UNL     1       0.048  10.451  19.802  0.00  0.00    +0.000 N 
ATOM      5  C   UNL     1       0.573  11.731  19.718  0.00  0.00    +0.000 A 
ATOM      6  N   UNL     1       1.604  12.209  20.339  0.00  0.00    +0.000 NA
ATOM      7  S   UNL     1      -0.449  12.619  18.573  0.00  0.00    +0.000 S 
BRANCH   2   9
ATOM      8  C   UNL     1      -3.488  10.451  17.309  0.00  0.00    +0.000 C 
ATOM      9  C   UNL     1      -2.995  11.588  18.188  0.00  0.00    +0.000 C 
ENDBRANCH   2   9
BRANCH   6  10
ATOM     10  C   UNL     1       1.742  13.572  20.397  0.00  0.00    +0.000 C 
ATOM     11  O   UNL     1       1.029  14.316  21.075  0.00  0.00    +0.000 OA
BRANCH  10  12
ATOM     12  C   UNL     1       2.935  14.196  19.760  0.00  0.00    +0.000 A 
ATOM     13  C   UNL     1       3.995  14.582  20.595  0.00  0.00    +0.000 A 
ATOM     14  C   UNL     1       5.149  15.149  20.060  0.00  0.00    +0.000 A 
ATOM     15  C   UNL     1       5.265  15.333  18.686  0.00  0.00    +0.000 A 
ATOM     16  C   UNL     1       4.210  14.963  17.845  0.00  0.00    +0.000 A 
ATOM     17  C   UNL     1       3.043  14.392  18.381  0.00  0.00    +0.000 A 
BRANCH  15  18
ATOM     18  O   UNL     1       6.433  15.921  18.288  0.00  0.00    +0.000 OA
ATOM     19  C   UNL     1       6.777  17.131  18.949  0.00  0.00    +0.000 C 
ENDBRANCH  15  18
ENDBRANCH  10  12
ENDBRANCH   6  10
ENDBRANCH   1   4
BRANCH   1  20
ATOM     20  C   UNL     1       1.497   8.410  19.636  0.00  0.00    +0.000 A 
ATOM     21  C   UNL     1       1.833   8.723  18.315  0.00  0.00    +0.000 A 
ATOM     22  C   UNL     1       2.668   7.874  17.562  0.00  0.00    +0.000 A 
ATOM     23  C   UNL     1       3.223   6.696  18.104  0.00  0.00    +0.000 A 
ATOM     24  C   UNL     1       2.894   6.425  19.444  0.00  0.00    +0.000 A 
ATOM     25  C   UNL     1       2.016   7.231  20.179  0.00  0.00    +0.000 A 
BRANCH  23  26
ATOM     26  C   UNL     1       4.139   5.805  17.313  0.00  0.00    +0.000 A 
ATOM     27  C   UNL     1       5.186   6.393  16.560  0.00  0.00    +0.000 A 
ATOM     28  C   UNL     1       6.123   5.635  15.850  0.00  0.00    +0.000 A 
ATOM     29  C   UNL     1       6.074   4.251  15.896  0.00  0.00    +0.000 A 
ATOM     30  C   UNL     1       5.059   3.631  16.616  0.00  0.00    +0.000 A 
ATOM     31  C   UNL     1       4.068   4.381  17.291  0.00  0.00    +0.000 A 
BRANCH  31  32
ATOM     32  C   UNL     1       2.997   3.612  17.912  0.00  0.00    +0.000 A 
ATOM     33  N   UNL     1       1.699   3.634  17.450  0.00  0.00    +0.000 NA
ATOM     34  N   UNL     1       1.006   2.797  18.208  0.00  0.00    +0.000 NA
ATOM     35  N   UNL     1       1.899   2.322  19.086  0.00  0.00    +0.000 N 
ATOM     36  N   UNL     1       3.135   2.827  18.994  0.00  0.00    +0.000 NA
ATOM     37  H   UNL     1       1.656   1.610  19.770  0.00  0.00    +0.000 HD
ENDBRANCH  31  32
ENDBRANCH  23  26
ENDBRANCH   1  20
TORSDOF 8
ENDMDL
MODEL 7
REMARK VINA RESULT:      -9.0      2.047      2.718
REMARK  Name = 
REMARK  10 active torsions:
REMARK  status: ('A' for Active; 'I' for Inactive)
REMARK    1  A    between atoms: C_1  and  C_2
REMARK    2  A    between atoms: C_2  and  C_3
REMARK    3  A    between atoms: N_5  and  C_6
REMARK    4  A    between atoms: C_6  and  C_7
REMARK    5  A    between atoms: C_10  and  C_11
REMARK    6  A    between atoms: C_16  and  C_17
REMARK    7  A    between atoms: N_25  and  C_26
REMARK    8  A    between atoms: C_26  and  C_28
REMARK    9  A    between atoms: C_31  and  O_32
REMARK   10  A    between atoms: O_32  and  C_33
REMARK                            x       y       z     vdW  Elec       q    Type
REMARK                         _______ _______ _______ _____ _____    ______ ____
ROOT
ATOM      1  C   UNL     1       1.648  10.266  19.005  0.00  0.00    +0.000 C 
ENDROOT
BRANCH   1   4
ATOM      2  C   UNL     1      -1.630  10.485  17.714  0.00  0.00    +0.000 A 
ATOM      3  N   UNL     1      -0.502   9.871  17.930  0.00  0.00    +0.000 NA
ATOM      4  N   UNL     1       0.318  10.736  18.648  0.00  0.00    +0.000 N 
ATOM      5  C   UNL     1      -0.237  11.921  19.104  0.00  0.00    +0.000 A 
ATOM      6  N   UNL     1       0.234  12.724  20.004  0.00  0.00    +0.000 NA
ATOM      7  S   UNL     1      -1.751  12.144  18.209  0.00  0.00    +0.000 S 
BRANCH   2   9
ATOM      8  C   UNL     1      -3.821  10.869  16.556  0.00  0.00    +0.000 C 
ATOM      9  C   UNL     1      -2.840   9.846  17.101  0.00  0.00    +0.000 C 
ENDBRANCH   2   9
BRANCH   6  10
ATOM     10  C   UNL     1      -0.624  13.636  20.562  0.00  0.00    +0.000 C 
ATOM     11  O   UNL     1      -0.791  14.783  20.143  0.00  0.00    +0.000 OA
BRANCH  10  12
ATOM     12  C   UNL     1      -1.560  13.176  21.627  0.00  0.00    +0.000 A 
ATOM     13  C   UNL     1      -2.773  13.866  21.771  0.00  0.00    +0.000 A 
ATOM     14  C   UNL     1      -3.703  13.471  22.731  0.00  0.00    +0.000 A 
ATOM     15  C   UNL     1      -3.438  12.381  23.554  0.00  0.00    +0.000 A 
ATOM     16  C   UNL     1      -2.226  11.694  23.426  0.00  0.00    +0.000 A 
ATOM     17  C   UNL     1      -1.285  12.089  22.460  0.00  0.00    +0.000 A 
BRANCH  15  18
ATOM     18  O   UNL     1      -4.416  12.110  24.470  0.00  0.00    +0.000 OA
ATOM     19  C   UNL     1      -5.699  12.652  24.188  0.00  0.00    +0.000 C 
ENDBRANCH  15  18
ENDBRANCH  10  12
ENDBRANCH   6  10
ENDBRANCH   1   4
BRANCH   1  20
ATOM     20  C   UNL     1       1.849   8.766  18.914  0.00  0.00    +0.000 A 
ATOM     21  C   UNL     1       2.256   8.141  17.731  0.00  0.00    +0.000 A 
ATOM     22  C   UNL     1       2.529   6.759  17.702  0.00  0.00    +0.000 A 
ATOM     23  C   UNL     1       2.433   5.952  18.855  0.00  0.00    +0.000 A 
ATOM     24  C   UNL     1       2.054   6.615  20.036  0.00  0.00    +0.000 A 
ATOM     25  C   UNL     1       1.722   7.976  20.059  0.00  0.00    +0.000 A 
BRANCH  23  26
ATOM     26  C   UNL     1       2.754   4.484  18.834  0.00  0.00    +0.000 A 
ATOM     27  C   UNL     1       1.697   3.549  18.963  0.00  0.00    +0.000 A 
ATOM     28  C   UNL     1       1.899   2.166  18.888  0.00  0.00    +0.000 A 
ATOM     29  C   UNL     1       3.165   1.663  18.640  0.00  0.00    +0.000 A 
ATOM     30  C   UNL     1       4.234   2.544  18.514  0.00  0.00    +0.000 A 
ATOM     31  C   UNL     1       4.059   3.941  18.647  0.00  0.00    +0.000 A 
BRANCH  31  32
ATOM     32  C   UNL     1       5.275   4.743  18.606  0.00  0.00    +0.000 A 
ATOM     33  N   UNL     1       5.784   5.264  17.436  0.00  0.00    +0.000 NA
ATOM     34  N   UNL     1       6.858   5.969  17.764  0.00  0.00    +0.000 NA
ATOM     35  N   UNL     1       6.952   5.837  19.093  0.00  0.00    +0.000 N 
ATOM     36  N   UNL     1       6.039   5.046  19.669  0.00  0.00    +0.000 NA
ATOM     37  H   UNL     1       7.666   6.320  19.632  0.00  0.00    +0.000 HD
ENDBRANCH  31  32
ENDBRANCH  23  26
ENDBRANCH   1  20
TORSDOF 8
ENDMDL
MODEL 8
REMARK VINA RESULT:      -9.0      2.865      4.790
REMARK  Name = 
REMARK  10 active torsions:
REMARK  status: ('A' for Active; 'I' for Inactive)
REMARK    1  A    between atoms: C_1  and  C_2
REMARK    2  A    between atoms: C_2  and  C_3
REMARK    3  A    between atoms: N_5  and  C_6
REMARK    4  A    between atoms: C_6  and  C_7
REMARK    5  A    between atoms: C_10  and  C_11
REMARK    6  A    between atoms: C_16  and  C_17
REMARK    7  A    between atoms: N_25  and  C_26
REMARK    8  A    between atoms: C_26  and  C_28
REMARK    9  A    between atoms: C_31  and  O_32
REMARK   10  A    between atoms: O_32  and  C_33
REMARK                            x       y       z     vdW  Elec       q    Type
REMARK                         _______ _______ _______ _____ _____    ______ ____
ROOT
ATOM      1  C   UNL     1       0.706   9.345  20.633  0.00  0.00    +0.000 C 
ENDROOT
BRANCH   1   4
ATOM      2  C   UNL     1      -1.724  10.807  18.531  0.00  0.00    +0.000 A 
ATOM      3  N   UNL     1      -1.175   9.804  19.154  0.00  0.00    +0.000 NA
ATOM      4  N   UNL     1      -0.078  10.293  19.857  0.00  0.00    +0.000 N 
ATOM      5  C   UNL     1       0.104  11.667  19.892  0.00  0.00    +0.000 A 
ATOM      6  N   UNL     1       0.865  12.347  20.690  0.00  0.00    +0.000 NA
ATOM      7  S   UNL     1      -0.921  12.343  18.613  0.00  0.00    +0.000 S 
BRANCH   2   9
ATOM      8  C   UNL     1      -2.852  11.045  16.304  0.00  0.00    +0.000 C 
ATOM      9  C   UNL     1      -3.020  10.733  17.780  0.00  0.00    +0.000 C 
ENDBRANCH   2   9
BRANCH   6  10
ATOM     10  C   UNL     1       0.635  13.693  20.803  0.00  0.00    +0.000 C 
ATOM     11  O   UNL     1      -0.220  14.195  21.536  0.00  0.00    +0.000 OA
BRANCH  10  12
ATOM     12  C   UNL     1       1.587  14.638  20.153  0.00  0.00    +0.000 A 
ATOM     13  C   UNL     1       2.957  14.349  20.244  0.00  0.00    +0.000 A 
ATOM     14  C   UNL     1       3.898  15.178  19.638  0.00  0.00    +0.000 A 
ATOM     15  C   UNL     1       3.486  16.301  18.927  0.00  0.00    +0.000 A 
ATOM     16  C   UNL     1       2.122  16.605  18.839  0.00  0.00    +0.000 A 
ATOM     17  C   UNL     1       1.170  15.772  19.451  0.00  0.00    +0.000 A 
BRANCH  15  18
ATOM     18  O   UNL     1       4.504  17.046  18.401  0.00  0.00    +0.000 OA
ATOM     19  C   UNL     1       5.695  17.104  19.174  0.00  0.00    +0.000 C 
ENDBRANCH  15  18
ENDBRANCH  10  12
ENDBRANCH   6  10
ENDBRANCH   1   4
BRANCH   1  20
ATOM     20  C   UNL     1       1.637   8.463  19.825  0.00  0.00    +0.000 A 
ATOM     21  C   UNL     1       2.117   7.243  20.314  0.00  0.00    +0.000 A 
ATOM     22  C   UNL     1       2.902   6.399  19.503  0.00  0.00    +0.000 A 
ATOM     23  C   UNL     1       3.215   6.724  18.167  0.00  0.00    +0.000 A 
ATOM     24  C   UNL     1       2.691   7.940  17.694  0.00  0.00    +0.000 A 
ATOM     25  C   UNL     1       1.963   8.812  18.512  0.00  0.00    +0.000 A 
BRANCH  23  26
ATOM     26  C   UNL     1       4.026   5.811  17.290  0.00  0.00    +0.000 A 
ATOM     27  C   UNL     1       5.056   6.364  16.491  0.00  0.00    +0.000 A 
ATOM     28  C   UNL     1       5.900   5.579  15.697  0.00  0.00    +0.000 A 
ATOM     29  C   UNL     1       5.772   4.200  15.702  0.00  0.00    +0.000 A 
ATOM     30  C   UNL     1       4.768   3.614  16.466  0.00  0.00    +0.000 A 
ATOM     31  C   UNL     1       3.868   4.395  17.228  0.00  0.00    +0.000 A 
BRANCH  31  32
ATOM     32  C   UNL     1       2.795   3.667  17.892  0.00  0.00    +0.000 A 
ATOM     33  N   UNL     1       1.482   3.735  17.479  0.00  0.00    +0.000 NA
ATOM     34  N   UNL     1       0.788   2.926  18.267  0.00  0.00    +0.000 NA
ATOM     35  N   UNL     1       1.696   2.420  19.111  0.00  0.00    +0.000 N 
ATOM     36  N   UNL     1       2.945   2.880  18.971  0.00  0.00    +0.000 NA
ATOM     37  H   UNL     1       1.453   1.720  19.807  0.00  0.00    +0.000 HD
ENDBRANCH  31  32
ENDBRANCH  23  26
ENDBRANCH   1  20
TORSDOF 8
ENDMDL
MODEL 9
REMARK VINA RESULT:      -9.0      1.511      2.012
REMARK  Name = 
REMARK  10 active torsions:
REMARK  status: ('A' for Active; 'I' for Inactive)
REMARK    1  A    between atoms: C_1  and  C_2
REMARK    2  A    between atoms: C_2  and  C_3
REMARK    3  A    between atoms: N_5  and  C_6
REMARK    4  A    between atoms: C_6  and  C_7
REMARK    5  A    between atoms: C_10  and  C_11
REMARK    6  A    between atoms: C_16  and  C_17
REMARK    7  A    between atoms: N_25  and  C_26
REMARK    8  A    between atoms: C_26  and  C_28
REMARK    9  A    between atoms: C_31  and  O_32
REMARK   10  A    between atoms: O_32  and  C_33
REMARK                            x       y       z     vdW  Elec       q    Type
REMARK                         _______ _______ _______ _____ _____    ______ ____
ROOT
ATOM      1  C   UNL     1       0.418   9.285  20.683  0.00  0.00    +0.000 C 
ENDROOT
BRANCH   1   4
ATOM      2  C   UNL     1      -1.518  11.254  18.483  0.00  0.00    +0.000 A 
ATOM      3  N   UNL     1      -1.128  10.122  18.996  0.00  0.00    +0.000 NA
ATOM      4  N   UNL     1      -0.174  10.406  19.969  0.00  0.00    +0.000 N 
ATOM      5  C   UNL     1       0.037  11.736  20.297  0.00  0.00    +0.000 A 
ATOM      6  N   UNL     1       0.648  12.211  21.335  0.00  0.00    +0.000 NA
ATOM      7  S   UNL     1      -0.703  12.696  19.002  0.00  0.00    +0.000 S 
BRANCH   2   9
ATOM      8  C   UNL     1      -3.016  10.080  16.850  0.00  0.00    +0.000 C 
ATOM      9  C   UNL     1      -2.646  11.399  17.506  0.00  0.00    +0.000 C 
ENDBRANCH   2   9
BRANCH   6  10
ATOM     10  C   UNL     1       0.437  13.527  21.656  0.00  0.00    +0.000 C 
ATOM     11  O   UNL     1       1.139  14.461  21.261  0.00  0.00    +0.000 OA
BRANCH  10  12
ATOM     12  C   UNL     1      -0.817  13.896  22.372  0.00  0.00    +0.000 A 
ATOM     13  C   UNL     1      -1.252  15.226  22.282  0.00  0.00    +0.000 A 
ATOM     14  C   UNL     1      -2.429  15.631  22.907  0.00  0.00    +0.000 A 
ATOM     15  C   UNL     1      -3.192  14.713  23.624  0.00  0.00    +0.000 A 
ATOM     16  C   UNL     1      -2.761  13.385  23.729  0.00  0.00    +0.000 A 
ATOM     17  C   UNL     1      -1.573  12.974  23.101  0.00  0.00    +0.000 A 
BRANCH  15  18
ATOM     18  O   UNL     1      -4.309  15.237  24.210  0.00  0.00    +0.000 OA
ATOM     19  C   UNL     1      -4.145  16.499  24.843  0.00  0.00    +0.000 C 
ENDBRANCH  15  18
ENDBRANCH  10  12
ENDBRANCH   6  10
ENDBRANCH   1   4
BRANCH   1  20
ATOM     20  C   UNL     1       1.399   8.453  19.879  0.00  0.00    +0.000 A 
ATOM     21  C   UNL     1       1.913   7.243  20.356  0.00  0.00    +0.000 A 
ATOM     22  C   UNL     1       2.746   6.444  19.548  0.00  0.00    +0.000 A 
ATOM     23  C   UNL     1       3.076   6.806  18.225  0.00  0.00    +0.000 A 
ATOM     24  C   UNL     1       2.518   8.011  17.763  0.00  0.00    +0.000 A 
ATOM     25  C   UNL     1       1.740   8.840  18.581  0.00  0.00    +0.000 A 
BRANCH  23  26
ATOM     26  C   UNL     1       3.938   5.941  17.350  0.00  0.00    +0.000 A 
ATOM     27  C   UNL     1       4.956   6.548  16.573  0.00  0.00    +0.000 A 
ATOM     28  C   UNL     1       5.845   5.811  15.783  0.00  0.00    +0.000 A 
ATOM     29  C   UNL     1       5.777   4.427  15.769  0.00  0.00    +0.000 A 
ATOM     30  C   UNL     1       4.789   3.788  16.511  0.00  0.00    +0.000 A 
ATOM     31  C   UNL     1       3.844   4.520  17.268  0.00  0.00    +0.000 A 
BRANCH  31  32
ATOM     32  C   UNL     1       2.794   3.737  17.907  0.00  0.00    +0.000 A 
ATOM     33  N   UNL     1       3.032   2.913  18.986  0.00  0.00    +0.000 NA
ATOM     34  N   UNL     1       1.864   2.395  19.339  0.00  0.00    +0.000 NA
ATOM     35  N   UNL     1       0.990   2.913  18.467  0.00  0.00    +0.000 N 
ATOM     36  N   UNL     1       1.508   3.705  17.520  0.00  0.00    +0.000 NA
ATOM     37  H   UNL     1      -0.007   2.726  18.529  0.00  0.00    +0.000 HD
ENDBRANCH  31  32
ENDBRANCH  23  26
ENDBRANCH   1  20
TORSDOF 8
ENDMDL
