MODEL 1
REMARK VINA RESULT:      -8.0      0.000      0.000
REMARK  Name = 
REMARK  7 active torsions:
REMARK  status: ('A' for Active; 'I' for Inactive)
REMARK    1  A    between atoms: C_1  and  C_2
REMARK    2  A    between atoms: C_6  and  O_7
REMARK    3  A    between atoms: O_7  and  C_8
REMARK    4  A    between atoms: N_10  and  C_11
REMARK    5  A    between atoms: C_11  and  C_12
REMARK    6  A    between atoms: C_11  and  C_13
REMARK    7  A    between atoms: C_11  and  C_14
REMARK                            x       y       z     vdW  Elec       q    Type
REMARK                         _______ _______ _______ _____ _____    ______ ____
ROOT
ATOM      1  C   UNL     1       3.481   6.020  18.181  0.00  0.00    +0.000 A 
ATOM      2  N   UNL     1       4.694   6.446  17.825  0.00  0.00    +0.000 NA
ATOM      3  N   UNL     1       5.530   5.498  18.317  0.00  0.00    +0.000 N 
ATOM      4  C   UNL     1       4.845   4.465  18.923  0.00  0.00    +0.000 A 
ATOM      5  N   UNL     1       5.350   3.354  19.489  0.00  0.00    +0.000 NA
ATOM      6  C   UNL     1       4.376   2.565  19.979  0.00  0.00    +0.000 A 
ATOM      7  N   UNL     1       3.041   2.770  19.961  0.00  0.00    +0.000 NA
ATOM      8  C   UNL     1       2.576   3.903  19.397  0.00  0.00    +0.000 A 
ATOM      9  N   UNL     1       1.212   4.121  19.428  0.00  0.00    +0.000 N 
ATOM     10  C   UNL     1       3.496   4.788  18.839  0.00  0.00    +0.000 A 
ATOM     11  H   UNL     1       0.661   3.305  19.657  0.00  0.00    +0.000 HD
ATOM     12  H   UNL     1       0.819   4.815  18.807  0.00  0.00    +0.000 HD
ENDROOT
BRANCH   3  13
ATOM     13  C   UNL     1       6.986   5.684  18.172  0.00  0.00    +0.000 C 
ATOM     14  C   UNL     1       7.297   7.024  17.454  0.00  0.00    +0.000 C 
ATOM     15  C   UNL     1       7.672   5.714  19.550  0.00  0.00    +0.000 C 
ATOM     16  C   UNL     1       7.610   4.558  17.327  0.00  0.00    +0.000 C 
ENDBRANCH   3  13
BRANCH   1  17
ATOM     17  O   UNL     1       2.387   6.740  17.834  0.00  0.00    +0.000 OA
BRANCH  17  23
ATOM     18  C   UNL     1       1.108   8.888  22.089  0.00  0.00    +0.000 C 
ATOM     19  C   UNL     1       1.307   8.955  20.605  0.00  0.00    +0.000 A 
ATOM     20  C   UNL     1       1.035  10.112  19.874  0.00  0.00    +0.000 A 
ATOM     21  C   UNL     1       1.219  10.132  18.488  0.00  0.00    +0.000 A 
ATOM     22  C   UNL     1       1.684   8.996  17.825  0.00  0.00    +0.000 A 
ATOM     23  C   UNL     1       1.976   7.839  18.549  0.00  0.00    +0.000 A 
ATOM     24  C   UNL     1       1.774   7.819  19.932  0.00  0.00    +0.000 A 
ENDBRANCH  17  23
ENDBRANCH   1  17
TORSDOF 3
ENDMDL
MODEL 2
REMARK VINA RESULT:      -7.7      0.427      1.394
REMARK  Name = 
REMARK  7 active torsions:
REMARK  status: ('A' for Active; 'I' for Inactive)
REMARK    1  A    between atoms: C_1  and  C_2
REMARK    2  A    between atoms: C_6  and  O_7
REMARK    3  A    between atoms: O_7  and  C_8
REMARK    4  A    between atoms: N_10  and  C_11
REMARK    5  A    between atoms: C_11  and  C_12
REMARK    6  A    between atoms: C_11  and  C_13
REMARK    7  A    between atoms: C_11  and  C_14
REMARK                            x       y       z     vdW  Elec       q    Type
REMARK                         _______ _______ _______ _____ _____    ______ ____
ROOT
ATOM      1  C   UNL     1       3.465   6.046  18.265  0.00  0.00    +0.000 A 
ATOM      2  N   UNL     1       4.676   6.485  17.915  0.00  0.00    +0.000 NA
ATOM      3  N   UNL     1       5.514   5.513  18.350  0.00  0.00    +0.000 N 
ATOM      4  C   UNL     1       4.833   4.454  18.914  0.00  0.00    +0.000 A 
ATOM      5  N   UNL     1       5.342   3.315  19.420  0.00  0.00    +0.000 NA
ATOM      6  C   UNL     1       4.371   2.506  19.885  0.00  0.00    +0.000 A 
ATOM      7  N   UNL     1       3.037   2.716  19.893  0.00  0.00    +0.000 NA
ATOM      8  C   UNL     1       2.569   3.875  19.390  0.00  0.00    +0.000 A 
ATOM      9  N   UNL     1       1.206   4.096  19.448  0.00  0.00    +0.000 N 
ATOM     10  C   UNL     1       3.485   4.784  18.863  0.00  0.00    +0.000 A 
ATOM     11  H   UNL     1       0.655   3.271  19.646  0.00  0.00    +0.000 HD
ATOM     12  H   UNL     1       0.808   4.820  18.867  0.00  0.00    +0.000 HD
ENDROOT
BRANCH   3  13
ATOM     13  C   UNL     1       6.969   5.701  18.196  0.00  0.00    +0.000 C 
ATOM     14  C   UNL     1       7.273   7.049  17.489  0.00  0.00    +0.000 C 
ATOM     15  C   UNL     1       7.666   5.718  19.569  0.00  0.00    +0.000 C 
ATOM     16  C   UNL     1       7.588   4.585  17.334  0.00  0.00    +0.000 C 
ENDBRANCH   3  13
BRANCH   1  17
ATOM     17  O   UNL     1       2.370   6.785  17.967  0.00  0.00    +0.000 OA
BRANCH  17  23
ATOM     18  C   UNL     1       0.743  11.376  18.757  0.00  0.00    +0.000 C 
ATOM     19  C   UNL     1       1.110  10.018  19.275  0.00  0.00    +0.000 A 
ATOM     20  C   UNL     1       1.037   9.698  20.630  0.00  0.00    +0.000 A 
ATOM     21  C   UNL     1       1.402   8.424  21.077  0.00  0.00    +0.000 A 
ATOM     22  C   UNL     1       1.834   7.459  20.167  0.00  0.00    +0.000 A 
ATOM     23  C   UNL     1       1.894   7.762  18.807  0.00  0.00    +0.000 A 
ATOM     24  C   UNL     1       1.544   9.043  18.368  0.00  0.00    +0.000 A 
ENDBRANCH  17  23
ENDBRANCH   1  17
TORSDOF 3
ENDMDL
MODEL 3
REMARK VINA RESULT:      -7.3      1.906      3.751
REMARK  Name = 
REMARK  7 active torsions:
REMARK  status: ('A' for Active; 'I' for Inactive)
REMARK    1  A    between atoms: C_1  and  C_2
REMARK    2  A    between atoms: C_6  and  O_7
REMARK    3  A    between atoms: O_7  and  C_8
REMARK    4  A    between atoms: N_10  and  C_11
REMARK    5  A    between atoms: C_11  and  C_12
REMARK    6  A    between atoms: C_11  and  C_13
REMARK    7  A    between atoms: C_11  and  C_14
REMARK                            x       y       z     vdW  Elec       q    Type
REMARK                         _______ _______ _______ _____ _____    ______ ____
ROOT
ATOM      1  C   UNL     1       3.120   6.528  18.142  0.00  0.00    +0.000 A 
ATOM      2  N   UNL     1       2.381   5.844  19.017  0.00  0.00    +0.000 NA
ATOM      3  N   UNL     1       2.703   4.549  18.774  0.00  0.00    +0.000 N 
ATOM      4  C   UNL     1       3.672   4.429  17.799  0.00  0.00    +0.000 A 
ATOM      5  N   UNL     1       4.243   3.304  17.331  0.00  0.00    +0.000 NA
ATOM      6  C   UNL     1       5.156   3.575  16.379  0.00  0.00    +0.000 A 
ATOM      7  N   UNL     1       5.520   4.777  15.884  0.00  0.00    +0.000 NA
ATOM      8  C   UNL     1       4.914   5.879  16.370  0.00  0.00    +0.000 A 
ATOM      9  N   UNL     1       5.264   7.098  15.821  0.00  0.00    +0.000 N 
ATOM     10  C   UNL     1       3.962   5.720  17.376  0.00  0.00    +0.000 A 
ATOM     11  H   UNL     1       6.113   7.083  15.272  0.00  0.00    +0.000 HD
ATOM     12  H   UNL     1       5.023   7.942  16.323  0.00  0.00    +0.000 HD
ENDROOT
BRANCH   3  13
ATOM     13  C   UNL     1       2.006   3.487  19.522  0.00  0.00    +0.000 C 
ATOM     14  C   UNL     1       0.976   4.099  20.509  0.00  0.00    +0.000 C 
ATOM     15  C   UNL     1       1.245   2.553  18.562  0.00  0.00    +0.000 C 
ATOM     16  C   UNL     1       2.994   2.650  20.355  0.00  0.00    +0.000 C 
ENDBRANCH   3  13
BRANCH   1  17
ATOM     17  O   UNL     1       3.051   7.881  18.117  0.00  0.00    +0.000 OA
BRANCH  17  23
ATOM     18  C   UNL     1       0.278   9.057  22.025  0.00  0.00    +0.000 C 
ATOM     19  C   UNL     1       0.583   9.176  20.562  0.00  0.00    +0.000 A 
ATOM     20  C   UNL     1      -0.201   9.946  19.703  0.00  0.00    +0.000 A 
ATOM     21  C   UNL     1       0.107  10.020  18.342  0.00  0.00    +0.000 A 
ATOM     22  C   UNL     1       1.207   9.331  17.832  0.00  0.00    +0.000 A 
ATOM     23  C   UNL     1       2.009   8.572  18.685  0.00  0.00    +0.000 A 
ATOM     24  C   UNL     1       1.687   8.488  20.043  0.00  0.00    +0.000 A 
ENDBRANCH  17  23
ENDBRANCH   1  17
TORSDOF 3
ENDMDL
MODEL 4
REMARK VINA RESULT:      -7.3      3.570      6.771
REMARK  Name = 
REMARK  7 active torsions:
REMARK  status: ('A' for Active; 'I' for Inactive)
REMARK    1  A    between atoms: C_1  and  C_2
REMARK    2  A    between atoms: C_6  and  O_7
REMARK    3  A    between atoms: O_7  and  C_8
REMARK    4  A    between atoms: N_10  and  C_11
REMARK    5  A    between atoms: C_11  and  C_12
REMARK    6  A    between atoms: C_11  and  C_13
REMARK    7  A    between atoms: C_11  and  C_14
REMARK                            x       y       z     vdW  Elec       q    Type
REMARK                         _______ _______ _______ _____ _____    ______ ____
ROOT
ATOM      1  C   UNL     1       5.185   5.133  16.427  0.00  0.00    +0.000 A 
ATOM      2  N   UNL     1       4.224   4.291  16.811  0.00  0.00    +0.000 NA
ATOM      3  N   UNL     1       4.537   4.005  18.100  0.00  0.00    +0.000 N 
ATOM      4  C   UNL     1       5.645   4.703  18.532  0.00  0.00    +0.000 A 
ATOM      5  N   UNL     1       6.214   4.685  19.752  0.00  0.00    +0.000 NA
ATOM      6  C   UNL     1       7.284   5.500  19.808  0.00  0.00    +0.000 A 
ATOM      7  N   UNL     1       7.803   6.271  18.829  0.00  0.00    +0.000 NA
ATOM      8  C   UNL     1       7.212   6.251  17.618  0.00  0.00    +0.000 A 
ATOM      9  N   UNL     1       7.783   7.009  16.613  0.00  0.00    +0.000 N 
ATOM     10  C   UNL     1       6.082   5.454  17.448  0.00  0.00    +0.000 A 
ATOM     11  H   UNL     1       8.451   7.697  16.934  0.00  0.00    +0.000 HD
ATOM     12  H   UNL     1       7.235   7.211  15.788  0.00  0.00    +0.000 HD
ENDROOT
BRANCH   3  13
ATOM     13  C   UNL     1       3.716   3.025  18.834  0.00  0.00    +0.000 C 
ATOM     14  C   UNL     1       2.706   3.746  19.767  0.00  0.00    +0.000 C 
ATOM     15  C   UNL     1       2.913   2.144  17.858  0.00  0.00    +0.000 C 
ATOM     16  C   UNL     1       4.589   2.119  19.722  0.00  0.00    +0.000 C 
ENDBRANCH   3  13
BRANCH   1  17
ATOM     17  O   UNL     1       5.173   5.637  15.170  0.00  0.00    +0.000 OA
BRANCH  17  23
ATOM     18  C   UNL     1       5.186   2.282  11.552  0.00  0.00    +0.000 C 
ATOM     19  C   UNL     1       5.882   3.353  12.337  0.00  0.00    +0.000 A 
ATOM     20  C   UNL     1       7.202   3.720  12.078  0.00  0.00    +0.000 A 
ATOM     21  C   UNL     1       7.823   4.712  12.842  0.00  0.00    +0.000 A 
ATOM     22  C   UNL     1       7.122   5.351  13.865  0.00  0.00    +0.000 A 
ATOM     23  C   UNL     1       5.795   5.005  14.121  0.00  0.00    +0.000 A 
ATOM     24  C   UNL     1       5.185   3.999  13.365  0.00  0.00    +0.000 A 
ENDBRANCH  17  23
ENDBRANCH   1  17
TORSDOF 3
ENDMDL
MODEL 5
REMARK VINA RESULT:      -7.3      1.449      1.718
REMARK  Name = 
REMARK  7 active torsions:
REMARK  status: ('A' for Active; 'I' for Inactive)
REMARK    1  A    between atoms: C_1  and  C_2
REMARK    2  A    between atoms: C_6  and  O_7
REMARK    3  A    between atoms: O_7  and  C_8
REMARK    4  A    between atoms: N_10  and  C_11
REMARK    5  A    between atoms: C_11  and  C_12
REMARK    6  A    between atoms: C_11  and  C_13
REMARK    7  A    between atoms: C_11  and  C_14
REMARK                            x       y       z     vdW  Elec       q    Type
REMARK                         _______ _______ _______ _____ _____    ______ ____
ROOT
ATOM      1  C   UNL     1       3.018   5.833  19.275  0.00  0.00    +0.000 A 
ATOM      2  N   UNL     1       4.085   6.291  18.617  0.00  0.00    +0.000 NA
ATOM      3  N   UNL     1       4.485   5.232  17.870  0.00  0.00    +0.000 N 
ATOM      4  C   UNL     1       3.646   4.147  18.015  0.00  0.00    +0.000 A 
ATOM      5  N   UNL     1       3.726   2.949  17.406  0.00  0.00    +0.000 NA
ATOM      6  C   UNL     1       2.727   2.133  17.793  0.00  0.00    +0.000 A 
ATOM      7  N   UNL     1       1.732   2.383  18.670  0.00  0.00    +0.000 NA
ATOM      8  C   UNL     1       1.695   3.591  19.270  0.00  0.00    +0.000 A 
ATOM      9  N   UNL     1       0.699   3.815  20.200  0.00  0.00    +0.000 N 
ATOM     10  C   UNL     1       2.672   4.525  18.931  0.00  0.00    +0.000 A 
ATOM     11  H   UNL     1      -0.056   3.143  20.177  0.00  0.00    +0.000 HD
ATOM     12  H   UNL     1       0.495   4.767  20.472  0.00  0.00    +0.000 HD
ENDROOT
BRANCH   3  13
ATOM     13  C   UNL     1       5.708   5.354  17.055  0.00  0.00    +0.000 C 
ATOM     14  C   UNL     1       6.228   6.817  17.065  0.00  0.00    +0.000 C 
ATOM     15  C   UNL     1       6.825   4.451  17.609  0.00  0.00    +0.000 C 
ATOM     16  C   UNL     1       5.441   4.976  15.587  0.00  0.00    +0.000 C 
ENDBRANCH   3  13
BRANCH   1  17
ATOM     17  O   UNL     1       2.349   6.652  20.123  0.00  0.00    +0.000 OA
BRANCH  17  23
ATOM     18  C   UNL     1      -0.121  10.817  21.069  0.00  0.00    +0.000 C 
ATOM     19  C   UNL     1       0.626   9.935  20.115  0.00  0.00    +0.000 A 
ATOM     20  C   UNL     1       0.811  10.282  18.777  0.00  0.00    +0.000 A 
ATOM     21  C   UNL     1       1.501   9.427  17.914  0.00  0.00    +0.000 A 
ATOM     22  C   UNL     1       2.019   8.221  18.387  0.00  0.00    +0.000 A 
ATOM     23  C   UNL     1       1.856   7.872  19.728  0.00  0.00    +0.000 A 
ATOM     24  C   UNL     1       1.150   8.724  20.582  0.00  0.00    +0.000 A 
ENDBRANCH  17  23
ENDBRANCH   1  17
TORSDOF 3
ENDMDL
MODEL 6
REMARK VINA RESULT:      -7.2      3.123      6.775
REMARK  Name = 
REMARK  7 active torsions:
REMARK  status: ('A' for Active; 'I' for Inactive)
REMARK    1  A    between atoms: C_1  and  C_2
REMARK    2  A    between atoms: C_6  and  O_7
REMARK    3  A    between atoms: O_7  and  C_8
REMARK    4  A    between atoms: N_10  and  C_11
REMARK    5  A    between atoms: C_11  and  C_12
REMARK    6  A    between atoms: C_11  and  C_13
REMARK    7  A    between atoms: C_11  and  C_14
REMARK                            x       y       z     vdW  Elec       q    Type
REMARK                         _______ _______ _______ _____ _____    ______ ____
ROOT
ATOM      1  C   UNL     1       5.427   4.319  17.000  0.00  0.00    +0.000 A 
ATOM      2  N   UNL     1       4.834   3.217  17.464  0.00  0.00    +0.000 NA
ATOM      3  N   UNL     1       3.720   3.682  18.082  0.00  0.00    +0.000 N 
ATOM      4  C   UNL     1       3.589   5.049  17.958  0.00  0.00    +0.000 A 
ATOM      5  N   UNL     1       2.598   5.833  18.421  0.00  0.00    +0.000 NA
ATOM      6  C   UNL     1       2.806   7.126  18.107  0.00  0.00    +0.000 A 
ATOM      7  N   UNL     1       3.838   7.668  17.427  0.00  0.00    +0.000 NA
ATOM      8  C   UNL     1       4.818   6.851  16.992  0.00  0.00    +0.000 A 
ATOM      9  N   UNL     1       5.891   7.426  16.339  0.00  0.00    +0.000 N 
ATOM     10  C   UNL     1       4.699   5.485  17.245  0.00  0.00    +0.000 A 
ATOM     11  H   UNL     1       5.736   8.378  16.035  0.00  0.00    +0.000 HD
ATOM     12  H   UNL     1       6.500   6.833  15.793  0.00  0.00    +0.000 HD
ENDROOT
BRANCH   3  13
ATOM     13  C   UNL     1       2.845   2.728  18.789  0.00  0.00    +0.000 C 
ATOM     14  C   UNL     1       3.328   1.270  18.562  0.00  0.00    +0.000 C 
ATOM     15  C   UNL     1       2.854   2.999  20.305  0.00  0.00    +0.000 C 
ATOM     16  C   UNL     1       1.396   2.813  18.274  0.00  0.00    +0.000 C 
ENDBRANCH   3  13
BRANCH   1  17
ATOM     17  O   UNL     1       6.586   4.217  16.306  0.00  0.00    +0.000 OA
BRANCH  17  23
ATOM     18  C   UNL     1       4.880   2.967  11.848  0.00  0.00    +0.000 C 
ATOM     19  C   UNL     1       5.860   3.710  12.706  0.00  0.00    +0.000 A 
ATOM     20  C   UNL     1       6.888   4.478  12.160  0.00  0.00    +0.000 A 
ATOM     21  C   UNL     1       7.791   5.144  12.992  0.00  0.00    +0.000 A 
ATOM     22  C   UNL     1       7.666   5.054  14.379  0.00  0.00    +0.000 A 
ATOM     23  C   UNL     1       6.630   4.304  14.936  0.00  0.00    +0.000 A 
ATOM     24  C   UNL     1       5.740   3.625  14.098  0.00  0.00    +0.000 A 
ENDBRANCH  17  23
ENDBRANCH   1  17
TORSDOF 3
ENDMDL
MODEL 7
REMARK VINA RESULT:      -7.0      1.327      3.556
REMARK  Name = 
REMARK  7 active torsions:
REMARK  status: ('A' for Active; 'I' for Inactive)
REMARK    1  A    between atoms: C_1  and  C_2
REMARK    2  A    between atoms: C_6  and  O_7
REMARK    3  A    between atoms: O_7  and  C_8
REMARK    4  A    between atoms: N_10  and  C_11
REMARK    5  A    between atoms: C_11  and  C_12
REMARK    6  A    between atoms: C_11  and  C_13
REMARK    7  A    between atoms: C_11  and  C_14
REMARK                            x       y       z     vdW  Elec       q    Type
REMARK                         _______ _______ _______ _____ _____    ______ ____
ROOT
ATOM      1  C   UNL     1       3.547   6.453  17.848  0.00  0.00    +0.000 A 
ATOM      2  N   UNL     1       2.698   5.524  18.291  0.00  0.00    +0.000 NA
ATOM      3  N   UNL     1       3.490   4.451  18.538  0.00  0.00    +0.000 N 
ATOM      4  C   UNL     1       4.822   4.724  18.307  0.00  0.00    +0.000 A 
ATOM      5  N   UNL     1       5.878   3.906  18.475  0.00  0.00    +0.000 NA
ATOM      6  C   UNL     1       7.032   4.520  18.150  0.00  0.00    +0.000 A 
ATOM      7  N   UNL     1       7.214   5.780  17.702  0.00  0.00    +0.000 NA
ATOM      8  C   UNL     1       6.130   6.563  17.534  0.00  0.00    +0.000 A 
ATOM      9  N   UNL     1       6.328   7.834  17.031  0.00  0.00    +0.000 N 
ATOM     10  C   UNL     1       4.880   6.037  17.858  0.00  0.00    +0.000 A 
ATOM     11  H   UNL     1       7.288   8.151  17.056  0.00  0.00    +0.000 HD
ATOM     12  H   UNL     1       5.588   8.515  17.130  0.00  0.00    +0.000 HD
ENDROOT
BRANCH   3  13
ATOM     13  C   UNL     1       2.866   3.190  18.979  0.00  0.00    +0.000 C 
ATOM     14  C   UNL     1       1.352   3.394  19.252  0.00  0.00    +0.000 C 
ATOM     15  C   UNL     1       3.010   2.103  17.898  0.00  0.00    +0.000 C 
ATOM     16  C   UNL     1       3.500   2.681  20.287  0.00  0.00    +0.000 C 
ENDBRANCH   3  13
BRANCH   1  17
ATOM     17  O   UNL     1       3.084   7.681  17.510  0.00  0.00    +0.000 OA
BRANCH  17  23
ATOM     18  C   UNL     1       1.033   8.611  21.901  0.00  0.00    +0.000 C 
ATOM     19  C   UNL     1       1.121   8.862  20.426  0.00  0.00    +0.000 A 
ATOM     20  C   UNL     1       0.277   9.763  19.777  0.00  0.00    +0.000 A 
ATOM     21  C   UNL     1       0.379   9.960  18.397  0.00  0.00    +0.000 A 
ATOM     22  C   UNL     1       1.334   9.262  17.657  0.00  0.00    +0.000 A 
ATOM     23  C   UNL     1       2.196   8.371  18.298  0.00  0.00    +0.000 A 
ATOM     24  C   UNL     1       2.077   8.166  19.676  0.00  0.00    +0.000 A 
ENDBRANCH  17  23
ENDBRANCH   1  17
TORSDOF 3
ENDMDL
MODEL 8
REMARK VINA RESULT:      -7.0      1.890      3.985
REMARK  Name = 
REMARK  7 active torsions:
REMARK  status: ('A' for Active; 'I' for Inactive)
REMARK    1  A    between atoms: C_1  and  C_2
REMARK    2  A    between atoms: C_6  and  O_7
REMARK    3  A    between atoms: O_7  and  C_8
REMARK    4  A    between atoms: N_10  and  C_11
REMARK    5  A    between atoms: C_11  and  C_12
REMARK    6  A    between atoms: C_11  and  C_13
REMARK    7  A    between atoms: C_11  and  C_14
REMARK                            x       y       z     vdW  Elec       q    Type
REMARK                         _______ _______ _______ _____ _____    ______ ____
ROOT
ATOM      1  C   UNL     1       3.044   6.494  18.152  0.00  0.00    +0.000 A 
ATOM      2  N   UNL     1       2.334   5.772  19.022  0.00  0.00    +0.000 NA
ATOM      3  N   UNL     1       2.722   4.496  18.780  0.00  0.00    +0.000 N 
ATOM      4  C   UNL     1       3.702   4.426  17.811  0.00  0.00    +0.000 A 
ATOM      5  N   UNL     1       4.332   3.331  17.346  0.00  0.00    +0.000 NA
ATOM      6  C   UNL     1       5.236   3.648  16.400  0.00  0.00    +0.000 A 
ATOM      7  N   UNL     1       5.543   4.868  15.909  0.00  0.00    +0.000 NA
ATOM      8  C   UNL     1       4.879   5.938  16.391  0.00  0.00    +0.000 A 
ATOM      9  N   UNL     1       5.171   7.173  15.845  0.00  0.00    +0.000 N 
ATOM     10  C   UNL     1       3.930   5.730  17.390  0.00  0.00    +0.000 A 
ATOM     11  H   UNL     1       6.023   7.201  15.301  0.00  0.00    +0.000 HD
ATOM     12  H   UNL     1       4.885   8.003  16.346  0.00  0.00    +0.000 HD
ENDROOT
BRANCH   3  13
ATOM     13  C   UNL     1       2.074   3.399  19.522  0.00  0.00    +0.000 C 
ATOM     14  C   UNL     1       3.117   2.618  20.366  0.00  0.00    +0.000 C 
ATOM     15  C   UNL     1       1.003   3.948  20.483  0.00  0.00    +0.000 C 
ATOM     16  C   UNL     1       1.415   2.390  18.564  0.00  0.00    +0.000 C 
ENDBRANCH   3  13
BRANCH   1  17
ATOM     17  O   UNL     1       2.907   7.841  18.128  0.00  0.00    +0.000 OA
BRANCH  17  23
ATOM     18  C   UNL     1      -0.958  10.908  18.066  0.00  0.00    +0.000 C 
ATOM     19  C   UNL     1      -0.023  10.008  18.815  0.00  0.00    +0.000 A 
ATOM     20  C   UNL     1      -0.119   9.822  20.194  0.00  0.00    +0.000 A 
ATOM     21  C   UNL     1       0.781   8.986  20.860  0.00  0.00    +0.000 A 
ATOM     22  C   UNL     1       1.780   8.322  20.148  0.00  0.00    +0.000 A 
ATOM     23  C   UNL     1       1.875   8.485  18.766  0.00  0.00    +0.000 A 
ATOM     24  C   UNL     1       0.983   9.337  18.107  0.00  0.00    +0.000 A 
ENDBRANCH  17  23
ENDBRANCH   1  17
TORSDOF 3
ENDMDL
MODEL 9
REMARK VINA RESULT:      -6.9      1.250      3.567
REMARK  Name = 
REMARK  7 active torsions:
REMARK  status: ('A' for Active; 'I' for Inactive)
REMARK    1  A    between atoms: C_1  and  C_2
REMARK    2  A    between atoms: C_6  and  O_7
REMARK    3  A    between atoms: O_7  and  C_8
REMARK    4  A    between atoms: N_10  and  C_11
REMARK    5  A    between atoms: C_11  and  C_12
REMARK    6  A    between atoms: C_11  and  C_13
REMARK    7  A    between atoms: C_11  and  C_14
REMARK                            x       y       z     vdW  Elec       q    Type
REMARK                         _______ _______ _______ _____ _____    ______ ____
ROOT
ATOM      1  C   UNL     1       3.125   6.420  18.178  0.00  0.00    +0.000 A 
ATOM      2  N   UNL     1       2.257   5.602  18.778  0.00  0.00    +0.000 NA
ATOM      3  N   UNL     1       2.989   4.495  19.054  0.00  0.00    +0.000 N 
ATOM      4  C   UNL     1       4.310   4.640  18.684  0.00  0.00    +0.000 A 
ATOM      5  N   UNL     1       5.316   3.758  18.834  0.00  0.00    +0.000 NA
ATOM      6  C   UNL     1       6.475   4.247  18.355  0.00  0.00    +0.000 A 
ATOM      7  N   UNL     1       6.705   5.446  17.779  0.00  0.00    +0.000 NA
ATOM      8  C   UNL     1       5.668   6.296  17.634  0.00  0.00    +0.000 A 
ATOM      9  N   UNL     1       5.909   7.499  17.000  0.00  0.00    +0.000 N 
ATOM     10  C   UNL     1       4.420   5.901  18.111  0.00  0.00    +0.000 A 
ATOM     11  H   UNL     1       6.887   7.739  16.912  0.00  0.00    +0.000 HD
ATOM     12  H   UNL     1       5.232   8.243  17.099  0.00  0.00    +0.000 HD
ENDROOT
BRANCH   3  13
ATOM     13  C   UNL     1       2.320   3.329  19.662  0.00  0.00    +0.000 C 
ATOM     14  C   UNL     1       3.087   2.858  20.927  0.00  0.00    +0.000 C 
ATOM     15  C   UNL     1       0.882   3.684  20.084  0.00  0.00    +0.000 C 
ATOM     16  C   UNL     1       2.277   2.139  18.686  0.00  0.00    +0.000 C 
ENDBRANCH   3  13
BRANCH   1  17
ATOM     17  O   UNL     1       2.721   7.646  17.770  0.00  0.00    +0.000 OA
BRANCH  17  23
ATOM     18  C   UNL     1       0.895   8.991  22.153  0.00  0.00    +0.000 C 
ATOM     19  C   UNL     1       0.946   9.141  20.662  0.00  0.00    +0.000 A 
ATOM     20  C   UNL     1       0.140  10.054  19.982  0.00  0.00    +0.000 A 
ATOM     21  C   UNL     1       0.205  10.155  18.590  0.00  0.00    +0.000 A 
ATOM     22  C   UNL     1       1.085   9.348  17.868  0.00  0.00    +0.000 A 
ATOM     23  C   UNL     1       1.909   8.444  18.539  0.00  0.00    +0.000 A 
ATOM     24  C   UNL     1       1.827   8.335  19.931  0.00  0.00    +0.000 A 
ENDBRANCH  17  23
ENDBRANCH   1  17
TORSDOF 3
ENDMDL
