MODEL 1
REMARK VINA RESULT:      -8.9      0.000      0.000
REMARK  Name = 
REMARK  7 active torsions:
REMARK  status: ('A' for Active; 'I' for Inactive)
REMARK    1  A    between atoms: C_8  and  C_9
REMARK    2  A    between atoms: C_9  and  C_10
REMARK    3  A    between atoms: C_10  and  C_11
REMARK    4  A    between atoms: C_11  and  N_12
REMARK    5  A    between atoms: N_19  and  C_20
REMARK    6  A    between atoms: C_20  and  C_21
REMARK    7  A    between atoms: N_31  and  O_32
REMARK                            x       y       z     vdW  Elec       q    Type
REMARK                         _______ _______ _______ _____ _____    ______ ____
ROOT
ATOM      1  O   UNL     1       3.726   1.918  21.651  0.00  0.00    +0.000 OA
ATOM      2  C   UNL     1       3.063   2.738  21.022  0.00  0.00    +0.000 C 
ATOM      3  C   UNL     1       3.662   3.554  19.893  0.00  0.00    +0.000 A 
ATOM      4  N   UNL     1       4.908   3.198  19.497  0.00  0.00    +0.000 NA
ATOM      5  C   UNL     1       5.572   3.973  18.619  0.00  0.00    +0.000 A 
ATOM      6  C   UNL     1       4.978   5.135  18.132  0.00  0.00    +0.000 A 
ATOM      7  C   UNL     1       3.689   5.515  18.529  0.00  0.00    +0.000 A 
ATOM      8  C   UNL     1       3.387   6.759  17.871  0.00  0.00    +0.000 A 
ATOM      9  C   UNL     1       4.496   7.079  17.112  0.00  0.00    +0.000 A 
ATOM     10  N   UNL     1       5.445   6.094  17.263  0.00  0.00    +0.000 N 
ATOM     11  C   UNL     1       2.968   4.691  19.424  0.00  0.00    +0.000 A 
ATOM     12  C   UNL     1       1.606   5.032  19.961  0.00  0.00    +0.000 C 
ATOM     13  C   UNL     1       0.877   3.804  20.462  0.00  0.00    +0.000 C 
ATOM     14  N   UNL     1       1.770   3.090  21.340  0.00  0.00    +0.000 N 
ENDROOT
BRANCH  14  15
ATOM     15  O   UNL     1       1.160   2.608  22.505  0.00  0.00    +0.000 OA
ATOM     16  H   UNL     1       1.845   1.981  22.819  0.00  0.00    +0.000 HD
ENDBRANCH  14  15
BRANCH   8  17
ATOM     17  C   UNL     1       2.109   7.542  17.986  0.00  0.00    +0.000 C 
BRANCH  17  18
ATOM     18  C   UNL     1       2.325   9.039  18.164  0.00  0.00    +0.000 C 
BRANCH  18  19
ATOM     19  C   UNL     1       1.050   9.858  17.943  0.00  0.00    +0.000 C 
BRANCH  19  20
ATOM     20  N   UNL     1       0.173   9.756  19.115  0.00  0.00    +0.000 NA
ATOM     21  C   UNL     1      -1.114  10.474  18.974  0.00  0.00    +0.000 C 
ATOM     22  C   UNL     1      -1.010  11.995  19.163  0.00  0.00    +0.000 C 
ATOM     23  O   UNL     1      -0.440  12.310  20.438  0.00  0.00    +0.000 OA
ATOM     24  C   UNL     1       0.862  11.730  20.560  0.00  0.00    +0.000 C 
ATOM     25  C   UNL     1       0.831  10.205  20.359  0.00  0.00    +0.000 C 
ENDBRANCH  19  20
ENDBRANCH  18  19
ENDBRANCH  17  18
ENDBRANCH   8  17
BRANCH  10  26
ATOM     26  C   UNL     1       6.649   6.019  16.442  0.00  0.00    +0.000 C 
BRANCH  26  27
ATOM     27  C   UNL     1       6.475   5.286  15.135  0.00  0.00    +0.000 A 
ATOM     28  C   UNL     1       7.465   5.354  14.138  0.00  0.00    +0.000 A 
ATOM     29  C   UNL     1       7.372   4.575  12.983  0.00  0.00    +0.000 A 
ATOM     30  C   UNL     1       6.286   3.727  12.815  0.00  0.00    +0.000 A 
ATOM     31  F   UNL     1       6.215   2.949  11.728  0.00  0.00    +0.000 F 
ATOM     32  C   UNL     1       5.273   3.667  13.767  0.00  0.00    +0.000 A 
ATOM     33  C   UNL     1       5.361   4.450  14.924  0.00  0.00    +0.000 A 
ENDBRANCH  26  27
ENDBRANCH  10  26
TORSDOF 7
ENDMDL
MODEL 2
REMARK VINA RESULT:      -8.8      0.575      1.131
REMARK  Name = 
REMARK  7 active torsions:
REMARK  status: ('A' for Active; 'I' for Inactive)
REMARK    1  A    between atoms: C_8  and  C_9
REMARK    2  A    between atoms: C_9  and  C_10
REMARK    3  A    between atoms: C_10  and  C_11
REMARK    4  A    between atoms: C_11  and  N_12
REMARK    5  A    between atoms: N_19  and  C_20
REMARK    6  A    between atoms: C_20  and  C_21
REMARK    7  A    between atoms: N_31  and  O_32
REMARK                            x       y       z     vdW  Elec       q    Type
REMARK                         _______ _______ _______ _____ _____    ______ ____
ROOT
ATOM      1  O   UNL     1       3.589   1.948  21.696  0.00  0.00    +0.000 OA
ATOM      2  C   UNL     1       2.957   2.746  21.010  0.00  0.00    +0.000 C 
ATOM      3  C   UNL     1       3.614   3.533  19.892  0.00  0.00    +0.000 A 
ATOM      4  N   UNL     1       4.881   3.172  19.574  0.00  0.00    +0.000 NA
ATOM      5  C   UNL     1       5.588   3.925  18.712  0.00  0.00    +0.000 A 
ATOM      6  C   UNL     1       5.017   5.070  18.160  0.00  0.00    +0.000 A 
ATOM      7  C   UNL     1       3.708   5.455  18.476  0.00  0.00    +0.000 A 
ATOM      8  C   UNL     1       3.437   6.678  17.767  0.00  0.00    +0.000 A 
ATOM      9  C   UNL     1       4.585   6.982  17.060  0.00  0.00    +0.000 A 
ATOM     10  N   UNL     1       5.528   6.007  17.291  0.00  0.00    +0.000 N 
ATOM     11  C   UNL     1       2.942   4.653  19.353  0.00  0.00    +0.000 A 
ATOM     12  C   UNL     1       1.552   5.002  19.806  0.00  0.00    +0.000 C 
ATOM     13  C   UNL     1       0.802   3.785  20.301  0.00  0.00    +0.000 C 
ATOM     14  N   UNL     1       1.648   3.101  21.247  0.00  0.00    +0.000 N 
ENDROOT
BRANCH  14  15
ATOM     15  O   UNL     1       0.978   2.648  22.390  0.00  0.00    +0.000 OA
ATOM     16  H   UNL     1       1.406   1.775  22.516  0.00  0.00    +0.000 HD
ENDBRANCH  14  15
BRANCH   8  17
ATOM     17  C   UNL     1       2.153   7.457  17.790  0.00  0.00    +0.000 C 
BRANCH  17  18
ATOM     18  C   UNL     1       2.035   8.404  18.977  0.00  0.00    +0.000 C 
BRANCH  18  19
ATOM     19  C   UNL     1       1.441   9.765  18.602  0.00  0.00    +0.000 C 
BRANCH  19  20
ATOM     20  N   UNL     1       0.181   9.983  19.322  0.00  0.00    +0.000 NA
ATOM     21  C   UNL     1      -0.194  11.407  19.472  0.00  0.00    +0.000 C 
ATOM     22  C   UNL     1       0.582  12.150  20.569  0.00  0.00    +0.000 C 
ATOM     23  O   UNL     1       0.428  11.495  21.832  0.00  0.00    +0.000 OA
ATOM     24  C   UNL     1       0.897  10.146  21.755  0.00  0.00    +0.000 C 
ATOM     25  C   UNL     1       0.172   9.349  20.657  0.00  0.00    +0.000 C 
ENDBRANCH  19  20
ENDBRANCH  18  19
ENDBRANCH  17  18
ENDBRANCH   8  17
BRANCH  10  26
ATOM     26  C   UNL     1       6.775   5.914  16.538  0.00  0.00    +0.000 C 
BRANCH  26  27
ATOM     27  C   UNL     1       6.682   5.116  15.262  0.00  0.00    +0.000 A 
ATOM     28  C   UNL     1       5.645   4.185  15.073  0.00  0.00    +0.000 A 
ATOM     29  C   UNL     1       5.478   3.541  13.845  0.00  0.00    +0.000 A 
ATOM     30  C   UNL     1       6.349   3.818  12.801  0.00  0.00    +0.000 A 
ATOM     31  F   UNL     1       6.166   3.232  11.611  0.00  0.00    +0.000 F 
ATOM     32  C   UNL     1       7.406   4.706  12.972  0.00  0.00    +0.000 A 
ATOM     33  C   UNL     1       7.580   5.351  14.202  0.00  0.00    +0.000 A 
ENDBRANCH  26  27
ENDBRANCH  10  26
TORSDOF 7
ENDMDL
MODEL 3
REMARK VINA RESULT:      -8.7      0.609      1.095
REMARK  Name = 
REMARK  7 active torsions:
REMARK  status: ('A' for Active; 'I' for Inactive)
REMARK    1  A    between atoms: C_8  and  C_9
REMARK    2  A    between atoms: C_9  and  C_10
REMARK    3  A    between atoms: C_10  and  C_11
REMARK    4  A    between atoms: C_11  and  N_12
REMARK    5  A    between atoms: N_19  and  C_20
REMARK    6  A    between atoms: C_20  and  C_21
REMARK    7  A    between atoms: N_31  and  O_32
REMARK                            x       y       z     vdW  Elec       q    Type
REMARK                         _______ _______ _______ _____ _____    ______ ____
ROOT
ATOM      1  O   UNL     1       3.591   1.935  21.744  0.00  0.00    +0.000 OA
ATOM      2  C   UNL     1       2.947   2.712  21.045  0.00  0.00    +0.000 C 
ATOM      3  C   UNL     1       3.597   3.511  19.932  0.00  0.00    +0.000 A 
ATOM      4  N   UNL     1       4.878   3.184  19.633  0.00  0.00    +0.000 NA
ATOM      5  C   UNL     1       5.576   3.952  18.776  0.00  0.00    +0.000 A 
ATOM      6  C   UNL     1       4.981   5.078  18.211  0.00  0.00    +0.000 A 
ATOM      7  C   UNL     1       3.657   5.427  18.506  0.00  0.00    +0.000 A 
ATOM      8  C   UNL     1       3.362   6.639  17.787  0.00  0.00    +0.000 A 
ATOM      9  C   UNL     1       4.511   6.971  17.094  0.00  0.00    +0.000 A 
ATOM     10  N   UNL     1       5.477   6.023  17.343  0.00  0.00    +0.000 N 
ATOM     11  C   UNL     1       2.902   4.609  19.378  0.00  0.00    +0.000 A 
ATOM     12  C   UNL     1       1.496   4.921  19.810  0.00  0.00    +0.000 C 
ATOM     13  C   UNL     1       0.773   3.687  20.302  0.00  0.00    +0.000 C 
ATOM     14  N   UNL     1       1.625   3.031  21.262  0.00  0.00    +0.000 N 
ENDROOT
BRANCH  14  15
ATOM     15  O   UNL     1       0.952   2.567  22.399  0.00  0.00    +0.000 OA
ATOM     16  H   UNL     1       1.584   1.888  22.716  0.00  0.00    +0.000 HD
ENDBRANCH  14  15
BRANCH   8  17
ATOM     17  C   UNL     1       2.056   7.383  17.789  0.00  0.00    +0.000 C 
BRANCH  17  18
ATOM     18  C   UNL     1       2.100   8.689  18.569  0.00  0.00    +0.000 C 
BRANCH  18  19
ATOM     19  C   UNL     1       1.110   9.734  18.043  0.00  0.00    +0.000 C 
BRANCH  19  20
ATOM     20  N   UNL     1       0.376  10.342  19.159  0.00  0.00    +0.000 NA
ATOM     21  C   UNL     1      -1.074  10.507  18.912  0.00  0.00    +0.000 C 
ATOM     22  C   UNL     1      -1.428  11.696  18.008  0.00  0.00    +0.000 C 
ATOM     23  O   UNL     1      -0.908  12.916  18.547  0.00  0.00    +0.000 OA
ATOM     24  C   UNL     1       0.514  12.835  18.684  0.00  0.00    +0.000 C 
ATOM     25  C   UNL     1       0.937  11.647  19.565  0.00  0.00    +0.000 C 
ENDBRANCH  19  20
ENDBRANCH  18  19
ENDBRANCH  17  18
ENDBRANCH   8  17
BRANCH  10  26
ATOM     26  C   UNL     1       6.736   5.962  16.608  0.00  0.00    +0.000 C 
BRANCH  26  27
ATOM     27  C   UNL     1       6.678   5.174  15.324  0.00  0.00    +0.000 A 
ATOM     28  C   UNL     1       5.649   4.240  15.102  0.00  0.00    +0.000 A 
ATOM     29  C   UNL     1       5.514   3.605  13.865  0.00  0.00    +0.000 A 
ATOM     30  C   UNL     1       6.409   3.894  12.846  0.00  0.00    +0.000 A 
ATOM     31  F   UNL     1       6.256   3.318  11.647  0.00  0.00    +0.000 F 
ATOM     32  C   UNL     1       7.458   4.785  13.048  0.00  0.00    +0.000 A 
ATOM     33  C   UNL     1       7.600   5.421  14.287  0.00  0.00    +0.000 A 
ENDBRANCH  26  27
ENDBRANCH  10  26
TORSDOF 7
ENDMDL
MODEL 4
REMARK VINA RESULT:      -8.7      0.617      1.328
REMARK  Name = 
REMARK  7 active torsions:
REMARK  status: ('A' for Active; 'I' for Inactive)
REMARK    1  A    between atoms: C_8  and  C_9
REMARK    2  A    between atoms: C_9  and  C_10
REMARK    3  A    between atoms: C_10  and  C_11
REMARK    4  A    between atoms: C_11  and  N_12
REMARK    5  A    between atoms: N_19  and  C_20
REMARK    6  A    between atoms: C_20  and  C_21
REMARK    7  A    between atoms: N_31  and  O_32
REMARK                            x       y       z     vdW  Elec       q    Type
REMARK                         _______ _______ _______ _____ _____    ______ ____
ROOT
ATOM      1  O   UNL     1       3.765   1.931  21.696  0.00  0.00    +0.000 OA
ATOM      2  C   UNL     1       3.076   2.705  21.038  0.00  0.00    +0.000 C 
ATOM      3  C   UNL     1       3.661   3.533  19.909  0.00  0.00    +0.000 A 
ATOM      4  N   UNL     1       4.932   3.234  19.548  0.00  0.00    +0.000 NA
ATOM      5  C   UNL     1       5.577   4.027  18.673  0.00  0.00    +0.000 A 
ATOM      6  C   UNL     1       4.937   5.150  18.153  0.00  0.00    +0.000 A 
ATOM      7  C   UNL     1       3.622   5.471  18.513  0.00  0.00    +0.000 A 
ATOM      8  C   UNL     1       3.273   6.688  17.827  0.00  0.00    +0.000 A 
ATOM      9  C   UNL     1       4.383   7.051  17.088  0.00  0.00    +0.000 A 
ATOM     10  N   UNL     1       5.376   6.118  17.278  0.00  0.00    +0.000 N 
ATOM     11  C   UNL     1       2.922   4.626  19.404  0.00  0.00    +0.000 A 
ATOM     12  C   UNL     1       1.532   4.906  19.905  0.00  0.00    +0.000 C 
ATOM     13  C   UNL     1       0.854   3.651  20.409  0.00  0.00    +0.000 C 
ATOM     14  N   UNL     1       1.760   2.997  21.320  0.00  0.00    +0.000 N 
ENDROOT
BRANCH  14  15
ATOM     15  O   UNL     1       1.148   2.503  22.478  0.00  0.00    +0.000 OA
ATOM     16  H   UNL     1       1.027   3.333  22.986  0.00  0.00    +0.000 HD
ENDBRANCH  14  15
BRANCH   8  17
ATOM     17  C   UNL     1       1.956   7.407  17.899  0.00  0.00    +0.000 C 
BRANCH  17  18
ATOM     18  C   UNL     1       2.085   8.881  18.256  0.00  0.00    +0.000 C 
BRANCH  18  19
ATOM     19  C   UNL     1       1.279   9.270  19.499  0.00  0.00    +0.000 C 
BRANCH  19  20
ATOM     20  N   UNL     1       1.101  10.725  19.553  0.00  0.00    +0.000 NA
ATOM     21  C   UNL     1       0.805  11.250  20.905  0.00  0.00    +0.000 C 
ATOM     22  C   UNL     1      -0.647  11.039  21.358  0.00  0.00    +0.000 C 
ATOM     23  O   UNL     1      -1.560  11.623  20.423  0.00  0.00    +0.000 OA
ATOM     24  C   UNL     1      -1.383  11.047  19.125  0.00  0.00    +0.000 C 
ATOM     25  C   UNL     1       0.061  11.207  18.621  0.00  0.00    +0.000 C 
ENDBRANCH  19  20
ENDBRANCH  18  19
ENDBRANCH  17  18
ENDBRANCH   8  17
BRANCH  10  26
ATOM     26  C   UNL     1       6.601   6.090  16.486  0.00  0.00    +0.000 C 
BRANCH  26  27
ATOM     27  C   UNL     1       6.537   5.220  15.256  0.00  0.00    +0.000 A 
ATOM     28  C   UNL     1       5.452   4.349  15.050  0.00  0.00    +0.000 A 
ATOM     29  C   UNL     1       5.320   3.641  13.854  0.00  0.00    +0.000 A 
ATOM     30  C   UNL     1       6.275   3.794  12.859  0.00  0.00    +0.000 A 
ATOM     31  F   UNL     1       6.129   3.147  11.696  0.00  0.00    +0.000 F 
ATOM     32  C   UNL     1       7.378   4.619  13.049  0.00  0.00    +0.000 A 
ATOM     33  C   UNL     1       7.516   5.328  14.248  0.00  0.00    +0.000 A 
ENDBRANCH  26  27
ENDBRANCH  10  26
TORSDOF 7
ENDMDL
MODEL 5
REMARK VINA RESULT:      -8.4      2.405      6.734
REMARK  Name = 
REMARK  7 active torsions:
REMARK  status: ('A' for Active; 'I' for Inactive)
REMARK    1  A    between atoms: C_8  and  C_9
REMARK    2  A    between atoms: C_9  and  C_10
REMARK    3  A    between atoms: C_10  and  C_11
REMARK    4  A    between atoms: C_11  and  N_12
REMARK    5  A    between atoms: N_19  and  C_20
REMARK    6  A    between atoms: C_20  and  C_21
REMARK    7  A    between atoms: N_31  and  O_32
REMARK                            x       y       z     vdW  Elec       q    Type
REMARK                         _______ _______ _______ _____ _____    ______ ____
ROOT
ATOM      1  O   UNL     1      -0.589  12.291  19.569  0.00  0.00    +0.000 OA
ATOM      2  C   UNL     1      -0.179  11.335  20.220  0.00  0.00    +0.000 C 
ATOM      3  C   UNL     1       0.800  10.333  19.637  0.00  0.00    +0.000 A 
ATOM      4  N   UNL     1       1.336  10.654  18.435  0.00  0.00    +0.000 NA
ATOM      5  C   UNL     1       2.081   9.746  17.777  0.00  0.00    +0.000 A 
ATOM      6  C   UNL     1       2.290   8.486  18.334  0.00  0.00    +0.000 A 
ATOM      7  C   UNL     1       1.746   8.140  19.577  0.00  0.00    +0.000 A 
ATOM      8  C   UNL     1       2.124   6.777  19.847  0.00  0.00    +0.000 A 
ATOM      9  C   UNL     1       2.872   6.358  18.763  0.00  0.00    +0.000 A 
ATOM     10  N   UNL     1       2.978   7.392  17.862  0.00  0.00    +0.000 N 
ATOM     11  C   UNL     1       0.991   9.097  20.294  0.00  0.00    +0.000 A 
ATOM     12  C   UNL     1       0.313   8.815  21.606  0.00  0.00    +0.000 C 
ATOM     13  C   UNL     1       0.022  10.087  22.372  0.00  0.00    +0.000 C 
ATOM     14  N   UNL     1      -0.639  11.000  21.473  0.00  0.00    +0.000 N 
ENDROOT
BRANCH  14  15
ATOM     15  O   UNL     1      -1.720  11.681  22.046  0.00  0.00    +0.000 OA
ATOM     16  H   UNL     1      -2.035  11.012  22.689  0.00  0.00    +0.000 HD
ENDBRANCH  14  15
BRANCH   8  17
ATOM     17  C   UNL     1       1.776   5.981  21.073  0.00  0.00    +0.000 C 
BRANCH  17  18
ATOM     18  C   UNL     1       2.303   4.553  21.043  0.00  0.00    +0.000 C 
BRANCH  18  19
ATOM     19  C   UNL     1       1.367   3.584  20.315  0.00  0.00    +0.000 C 
BRANCH  19  20
ATOM     20  N   UNL     1       2.082   2.349  19.973  0.00  0.00    +0.000 NA
ATOM     21  C   UNL     1       3.550   2.430  20.149  0.00  0.00    +0.000 C 
ATOM     22  C   UNL     1       4.278   3.182  19.026  0.00  0.00    +0.000 C 
ATOM     23  O   UNL     1       3.995   2.592  17.753  0.00  0.00    +0.000 OA
ATOM     24  C   UNL     1       2.587   2.610  17.496  0.00  0.00    +0.000 C 
ATOM     25  C   UNL     1       1.795   1.887  18.599  0.00  0.00    +0.000 C 
ENDBRANCH  19  20
ENDBRANCH  18  19
ENDBRANCH  17  18
ENDBRANCH   8  17
BRANCH  10  26
ATOM     26  C   UNL     1       3.870   7.350  16.708  0.00  0.00    +0.000 C 
BRANCH  26  27
ATOM     27  C   UNL     1       5.122   6.534  16.910  0.00  0.00    +0.000 A 
ATOM     28  C   UNL     1       6.005   6.824  17.966  0.00  0.00    +0.000 A 
ATOM     29  C   UNL     1       7.094   5.993  18.238  0.00  0.00    +0.000 A 
ATOM     30  C   UNL     1       7.311   4.870  17.452  0.00  0.00    +0.000 A 
ATOM     31  F   UNL     1       8.330   4.050  17.737  0.00  0.00    +0.000 F 
ATOM     32  C   UNL     1       6.477   4.579  16.378  0.00  0.00    +0.000 A 
ATOM     33  C   UNL     1       5.387   5.411  16.100  0.00  0.00    +0.000 A 
ENDBRANCH  26  27
ENDBRANCH  10  26
TORSDOF 7
ENDMDL
MODEL 6
REMARK VINA RESULT:      -8.1      2.317      6.657
REMARK  Name = 
REMARK  7 active torsions:
REMARK  status: ('A' for Active; 'I' for Inactive)
REMARK    1  A    between atoms: C_8  and  C_9
REMARK    2  A    between atoms: C_9  and  C_10
REMARK    3  A    between atoms: C_10  and  C_11
REMARK    4  A    between atoms: C_11  and  N_12
REMARK    5  A    between atoms: N_19  and  C_20
REMARK    6  A    between atoms: C_20  and  C_21
REMARK    7  A    between atoms: N_31  and  O_32
REMARK                            x       y       z     vdW  Elec       q    Type
REMARK                         _______ _______ _______ _____ _____    ______ ____
ROOT
ATOM      1  O   UNL     1      -0.596  12.380  20.065  0.00  0.00    +0.000 OA
ATOM      2  C   UNL     1      -0.233  11.353  20.632  0.00  0.00    +0.000 C 
ATOM      3  C   UNL     1       0.732  10.380  19.981  0.00  0.00    +0.000 A 
ATOM      4  N   UNL     1       1.311  10.796  18.829  0.00  0.00    +0.000 NA
ATOM      5  C   UNL     1       2.047   9.931  18.107  0.00  0.00    +0.000 A 
ATOM      6  C   UNL     1       2.202   8.618  18.546  0.00  0.00    +0.000 A 
ATOM      7  C   UNL     1       1.614   8.173  19.737  0.00  0.00    +0.000 A 
ATOM      8  C   UNL     1       1.943   6.780  19.884  0.00  0.00    +0.000 A 
ATOM      9  C   UNL     1       2.709   6.441  18.785  0.00  0.00    +0.000 A 
ATOM     10  N   UNL     1       2.871   7.551  17.989  0.00  0.00    +0.000 N 
ATOM     11  C   UNL     1       0.867   9.082  20.521  0.00  0.00    +0.000 A 
ATOM     12  C   UNL     1       0.144   8.699  21.783  0.00  0.00    +0.000 C 
ATOM     13  C   UNL     1      -0.130   9.902  22.659  0.00  0.00    +0.000 C 
ATOM     14  N   UNL     1      -0.739  10.916  21.836  0.00  0.00    +0.000 N 
ENDROOT
BRANCH  14  15
ATOM     15  O   UNL     1      -1.815  11.575  22.443  0.00  0.00    +0.000 OA
ATOM     16  H   UNL     1      -2.405  11.705  21.671  0.00  0.00    +0.000 HD
ENDBRANCH  14  15
BRANCH   8  17
ATOM     17  C   UNL     1       1.538   5.883  21.020  0.00  0.00    +0.000 C 
BRANCH  17  18
ATOM     18  C   UNL     1       1.224   4.457  20.588  0.00  0.00    +0.000 C 
BRANCH  18  19
ATOM     19  C   UNL     1       2.277   3.445  21.051  0.00  0.00    +0.000 C 
BRANCH  19  20
ATOM     20  N   UNL     1       2.344   2.319  20.113  0.00  0.00    +0.000 NA
ATOM     21  C   UNL     1       3.686   2.097  19.527  0.00  0.00    +0.000 C 
ATOM     22  C   UNL     1       4.052   3.077  18.403  0.00  0.00    +0.000 C 
ATOM     23  O   UNL     1       3.076   3.037  17.357  0.00  0.00    +0.000 OA
ATOM     24  C   UNL     1       1.781   3.369  17.868  0.00  0.00    +0.000 C 
ATOM     25  C   UNL     1       1.362   2.434  19.015  0.00  0.00    +0.000 C 
ENDBRANCH  19  20
ENDBRANCH  18  19
ENDBRANCH  17  18
ENDBRANCH   8  17
BRANCH  10  26
ATOM     26  C   UNL     1       3.794   7.590  16.860  0.00  0.00    +0.000 C 
BRANCH  26  27
ATOM     27  C   UNL     1       4.921   6.591  16.933  0.00  0.00    +0.000 A 
ATOM     28  C   UNL     1       5.106   5.642  15.911  0.00  0.00    +0.000 A 
ATOM     29  C   UNL     1       6.222   4.803  15.907  0.00  0.00    +0.000 A 
ATOM     30  C   UNL     1       7.157   4.901  16.928  0.00  0.00    +0.000 A 
ATOM     31  F   UNL     1       8.248   4.126  16.904  0.00  0.00    +0.000 F 
ATOM     32  C   UNL     1       6.981   5.804  17.971  0.00  0.00    +0.000 A 
ATOM     33  C   UNL     1       5.862   6.644  17.982  0.00  0.00    +0.000 A 
ENDBRANCH  26  27
ENDBRANCH  10  26
TORSDOF 7
ENDMDL
MODEL 7
REMARK VINA RESULT:      -8.0      2.421      6.798
REMARK  Name = 
REMARK  7 active torsions:
REMARK  status: ('A' for Active; 'I' for Inactive)
REMARK    1  A    between atoms: C_8  and  C_9
REMARK    2  A    between atoms: C_9  and  C_10
REMARK    3  A    between atoms: C_10  and  C_11
REMARK    4  A    between atoms: C_11  and  N_12
REMARK    5  A    between atoms: N_19  and  C_20
REMARK    6  A    between atoms: C_20  and  C_21
REMARK    7  A    between atoms: N_31  and  O_32
REMARK                            x       y       z     vdW  Elec       q    Type
REMARK                         _______ _______ _______ _____ _____    ______ ____
ROOT
ATOM      1  O   UNL     1      -0.517  12.344  19.714  0.00  0.00    +0.000 OA
ATOM      2  C   UNL     1      -0.128  11.349  20.319  0.00  0.00    +0.000 C 
ATOM      3  C   UNL     1       0.856  10.373  19.704  0.00  0.00    +0.000 A 
ATOM      4  N   UNL     1       1.422  10.756  18.533  0.00  0.00    +0.000 NA
ATOM      5  C   UNL     1       2.176   9.880  17.844  0.00  0.00    +0.000 A 
ATOM      6  C   UNL     1       2.362   8.589  18.333  0.00  0.00    +0.000 A 
ATOM      7  C   UNL     1       1.787   8.179  19.543  0.00  0.00    +0.000 A 
ATOM      8  C   UNL     1       2.148   6.800  19.744  0.00  0.00    +0.000 A 
ATOM      9  C   UNL     1       2.918   6.435  18.656  0.00  0.00    +0.000 A 
ATOM     10  N   UNL     1       3.053   7.516  17.817  0.00  0.00    +0.000 N 
ATOM     11  C   UNL     1       1.022   9.100  20.294  0.00  0.00    +0.000 A 
ATOM     12  C   UNL     1       0.312   8.751  21.572  0.00  0.00    +0.000 C 
ATOM     13  C   UNL     1       0.013   9.981  22.402  0.00  0.00    +0.000 C 
ATOM     14  N   UNL     1      -0.621  10.948  21.541  0.00  0.00    +0.000 N 
ENDROOT
BRANCH  14  15
ATOM     15  O   UNL     1      -1.710  11.606  22.126  0.00  0.00    +0.000 OA
ATOM     16  H   UNL     1      -2.100  12.043  21.340  0.00  0.00    +0.000 HD
ENDBRANCH  14  15
BRANCH   8  17
ATOM     17  C   UNL     1       1.766   5.939  20.915  0.00  0.00    +0.000 C 
BRANCH  17  18
ATOM     18  C   UNL     1       1.222   4.574  20.518  0.00  0.00    +0.000 C 
BRANCH  18  19
ATOM     19  C   UNL     1       2.248   3.449  20.681  0.00  0.00    +0.000 C 
BRANCH  19  20
ATOM     20  N   UNL     1       3.269   3.538  19.631  0.00  0.00    +0.000 NA
ATOM     21  C   UNL     1       2.765   3.248  18.269  0.00  0.00    +0.000 C 
ATOM     22  C   UNL     1       2.568   1.754  17.975  0.00  0.00    +0.000 C 
ATOM     23  O   UNL     1       3.785   1.031  18.182  0.00  0.00    +0.000 OA
ATOM     24  C   UNL     1       4.238   1.190  19.531  0.00  0.00    +0.000 C 
ATOM     25  C   UNL     1       4.435   2.671  19.897  0.00  0.00    +0.000 C 
ENDBRANCH  19  20
ENDBRANCH  18  19
ENDBRANCH  17  18
ENDBRANCH   8  17
BRANCH  10  26
ATOM     26  C   UNL     1       3.971   7.531  16.683  0.00  0.00    +0.000 C 
BRANCH  26  27
ATOM     27  C   UNL     1       5.181   6.644  16.841  0.00  0.00    +0.000 A 
ATOM     28  C   UNL     1       6.332   7.112  17.500  0.00  0.00    +0.000 A 
ATOM     29  C   UNL     1       7.402   6.255  17.766  0.00  0.00    +0.000 A 
ATOM     30  C   UNL     1       7.332   4.927  17.369  0.00  0.00    +0.000 A 
ATOM     31  F   UNL     1       8.339   4.095  17.658  0.00  0.00    +0.000 F 
ATOM     32  C   UNL     1       6.222   4.446  16.682  0.00  0.00    +0.000 A 
ATOM     33  C   UNL     1       5.148   5.302  16.410  0.00  0.00    +0.000 A 
ENDBRANCH  26  27
ENDBRANCH  10  26
TORSDOF 7
ENDMDL
MODEL 8
REMARK VINA RESULT:      -7.7      2.954      7.534
REMARK  Name = 
REMARK  7 active torsions:
REMARK  status: ('A' for Active; 'I' for Inactive)
REMARK    1  A    between atoms: C_8  and  C_9
REMARK    2  A    between atoms: C_9  and  C_10
REMARK    3  A    between atoms: C_10  and  C_11
REMARK    4  A    between atoms: C_11  and  N_12
REMARK    5  A    between atoms: N_19  and  C_20
REMARK    6  A    between atoms: C_20  and  C_21
REMARK    7  A    between atoms: N_31  and  O_32
REMARK                            x       y       z     vdW  Elec       q    Type
REMARK                         _______ _______ _______ _____ _____    ______ ____
ROOT
ATOM      1  O   UNL     1      -0.281  11.934  22.217  0.00  0.00    +0.000 OA
ATOM      2  C   UNL     1       0.111  11.544  21.121  0.00  0.00    +0.000 C 
ATOM      3  C   UNL     1       0.443  10.086  20.864  0.00  0.00    +0.000 A 
ATOM      4  N   UNL     1       0.107   9.216  21.847  0.00  0.00    +0.000 NA
ATOM      5  C   UNL     1       0.516   7.937  21.768  0.00  0.00    +0.000 A 
ATOM      6  C   UNL     1       1.284   7.519  20.683  0.00  0.00    +0.000 A 
ATOM      7  C   UNL     1       1.635   8.405  19.656  0.00  0.00    +0.000 A 
ATOM      8  C   UNL     1       2.440   7.672  18.714  0.00  0.00    +0.000 A 
ATOM      9  C   UNL     1       2.543   6.385  19.206  0.00  0.00    +0.000 A 
ATOM     10  N   UNL     1       1.837   6.295  20.383  0.00  0.00    +0.000 N 
ATOM     11  C   UNL     1       1.183   9.744  19.711  0.00  0.00    +0.000 A 
ATOM     12  C   UNL     1       1.550  10.792  18.697  0.00  0.00    +0.000 C 
ATOM     13  C   UNL     1       0.568  11.943  18.701  0.00  0.00    +0.000 C 
ATOM     14  N   UNL     1       0.404  12.378  20.065  0.00  0.00    +0.000 N 
ENDROOT
BRANCH  14  15
ATOM     15  O   UNL     1       0.386  13.769  20.223  0.00  0.00    +0.000 OA
ATOM     16  H   UNL     1       0.350  13.838  21.200  0.00  0.00    +0.000 HD
ENDBRANCH  14  15
BRANCH   8  17
ATOM     17  C   UNL     1       3.037   8.209  17.444  0.00  0.00    +0.000 C 
BRANCH  17  18
ATOM     18  C   UNL     1       4.525   7.922  17.300  0.00  0.00    +0.000 C 
BRANCH  18  19
ATOM     19  C   UNL     1       4.816   6.662  16.479  0.00  0.00    +0.000 C 
BRANCH  19  20
ATOM     20  N   UNL     1       6.229   6.628  16.087  0.00  0.00    +0.000 NA
ATOM     21  C   UNL     1       6.644   5.372  15.421  0.00  0.00    +0.000 C 
ATOM     22  C   UNL     1       6.865   4.194  16.380  0.00  0.00    +0.000 C 
ATOM     23  O   UNL     1       7.831   4.528  17.382  0.00  0.00    +0.000 OA
ATOM     24  C   UNL     1       7.400   5.670  18.129  0.00  0.00    +0.000 C 
ATOM     25  C   UNL     1       7.141   6.885  17.221  0.00  0.00    +0.000 C 
ENDBRANCH  19  20
ENDBRANCH  18  19
ENDBRANCH  17  18
ENDBRANCH   8  17
BRANCH  10  26
ATOM     26  C   UNL     1       1.571   5.027  21.054  0.00  0.00    +0.000 C 
BRANCH  26  27
ATOM     27  C   UNL     1       2.123   3.814  20.348  0.00  0.00    +0.000 A 
ATOM     28  C   UNL     1       1.338   3.106  19.419  0.00  0.00    +0.000 A 
ATOM     29  C   UNL     1       1.886   2.065  18.667  0.00  0.00    +0.000 A 
ATOM     30  C   UNL     1       3.218   1.720  18.842  0.00  0.00    +0.000 A 
ATOM     31  F   UNL     1       3.756   0.750  18.093  0.00  0.00    +0.000 F 
ATOM     32  C   UNL     1       4.008   2.378  19.780  0.00  0.00    +0.000 A 
ATOM     33  C   UNL     1       3.462   3.419  20.539  0.00  0.00    +0.000 A 
ENDBRANCH  26  27
ENDBRANCH  10  26
TORSDOF 7
ENDMDL
MODEL 9
REMARK VINA RESULT:      -7.6      2.909      7.585
REMARK  Name = 
REMARK  7 active torsions:
REMARK  status: ('A' for Active; 'I' for Inactive)
REMARK    1  A    between atoms: C_8  and  C_9
REMARK    2  A    between atoms: C_9  and  C_10
REMARK    3  A    between atoms: C_10  and  C_11
REMARK    4  A    between atoms: C_11  and  N_12
REMARK    5  A    between atoms: N_19  and  C_20
REMARK    6  A    between atoms: C_20  and  C_21
REMARK    7  A    between atoms: N_31  and  O_32
REMARK                            x       y       z     vdW  Elec       q    Type
REMARK                         _______ _______ _______ _____ _____    ______ ____
ROOT
ATOM      1  O   UNL     1      -0.266  12.020  21.938  0.00  0.00    +0.000 OA
ATOM      2  C   UNL     1       0.154  11.597  20.865  0.00  0.00    +0.000 C 
ATOM      3  C   UNL     1       0.481  10.130  20.658  0.00  0.00    +0.000 A 
ATOM      4  N   UNL     1       0.109   9.290  21.654  0.00  0.00    +0.000 NA
ATOM      5  C   UNL     1       0.508   8.006  21.622  0.00  0.00    +0.000 A 
ATOM      6  C   UNL     1       1.303   7.552  20.571  0.00  0.00    +0.000 A 
ATOM      7  C   UNL     1       1.693   8.407  19.532  0.00  0.00    +0.000 A 
ATOM      8  C   UNL     1       2.518   7.642  18.634  0.00  0.00    +0.000 A 
ATOM      9  C   UNL     1       2.596   6.368  19.164  0.00  0.00    +0.000 A 
ATOM     10  N   UNL     1       1.855   6.316  20.322  0.00  0.00    +0.000 N 
ATOM     11  C   UNL     1       1.251   9.750  19.536  0.00  0.00    +0.000 A 
ATOM     12  C   UNL     1       1.657  10.767  18.506  0.00  0.00    +0.000 C 
ATOM     13  C   UNL     1       0.685  11.926  18.449  0.00  0.00    +0.000 C 
ATOM     14  N   UNL     1       0.486  12.399  19.796  0.00  0.00    +0.000 N 
ENDROOT
BRANCH  14  15
ATOM     15  O   UNL     1       0.475  13.794  19.916  0.00  0.00    +0.000 OA
ATOM     16  H   UNL     1       0.661  13.894  20.873  0.00  0.00    +0.000 HD
ENDBRANCH  14  15
BRANCH   8  17
ATOM     17  C   UNL     1       3.157   8.139  17.368  0.00  0.00    +0.000 C 
BRANCH  17  18
ATOM     18  C   UNL     1       4.599   7.682  17.192  0.00  0.00    +0.000 C 
BRANCH  18  19
ATOM     19  C   UNL     1       4.766   6.638  16.084  0.00  0.00    +0.000 C 
BRANCH  19  20
ATOM     20  N   UNL     1       5.002   5.313  16.668  0.00  0.00    +0.000 NA
ATOM     21  C   UNL     1       5.910   5.318  17.837  0.00  0.00    +0.000 C 
ATOM     22  C   UNL     1       7.397   5.445  17.479  0.00  0.00    +0.000 C 
ATOM     23  O   UNL     1       7.796   4.398  16.588  0.00  0.00    +0.000 OA
ATOM     24  C   UNL     1       7.017   4.440  15.388  0.00  0.00    +0.000 C 
ATOM     25  C   UNL     1       5.510   4.338  15.680  0.00  0.00    +0.000 C 
ENDBRANCH  19  20
ENDBRANCH  18  19
ENDBRANCH  17  18
ENDBRANCH   8  17
BRANCH  10  26
ATOM     26  C   UNL     1       1.558   5.069  21.019  0.00  0.00    +0.000 C 
BRANCH  26  27
ATOM     27  C   UNL     1       2.110   3.832  20.357  0.00  0.00    +0.000 A 
ATOM     28  C   UNL     1       1.377   3.163  19.360  0.00  0.00    +0.000 A 
ATOM     29  C   UNL     1       1.938   2.098  18.652  0.00  0.00    +0.000 A 
ATOM     30  C   UNL     1       3.232   1.689  18.942  0.00  0.00    +0.000 A 
ATOM     31  F   UNL     1       3.786   0.695  18.237  0.00  0.00    +0.000 F 
ATOM     32  C   UNL     1       3.967   2.307  19.948  0.00  0.00    +0.000 A 
ATOM     33  C   UNL     1       3.407   3.373  20.662  0.00  0.00    +0.000 A 
ENDBRANCH  26  27
ENDBRANCH  10  26
TORSDOF 7
ENDMDL
