MODEL 1
REMARK VINA RESULT:      -7.5      0.000      0.000
REMARK  Name = 
REMARK  10 active torsions:
REMARK  status: ('A' for Active; 'I' for Inactive)
REMARK    1  A    between atoms: C_1  and  C_2
REMARK    2  A    between atoms: C_2  and  C_3
REMARK    3  A    between atoms: C_2  and  C_4
REMARK    4  A    between atoms: C_2  and  N_5
REMARK    5  A    between atoms: C_6  and  C_8
REMARK    6  A    between atoms: C_8  and  N_9
REMARK    7  A    between atoms: C_11  and  C_12
REMARK    8  A    between atoms: C_12  and  C_13
REMARK    9  A    between atoms: C_13  and  C_14
REMARK   10  A    between atoms: C_14  and  C_15
REMARK                            x       y       z     vdW  Elec       q    Type
REMARK                         _______ _______ _______ _____ _____    ______ ____
ROOT
ATOM      1  N   UNL     1       5.975   5.308  16.372  0.00  0.00    +0.000 N 
ATOM      2  C   UNL     1       4.740   5.042  16.831  0.00  0.00    +0.000 A 
ATOM      3  C   UNL     1       4.288   6.204  17.416  0.00  0.00    +0.000 A 
ATOM      4  N   UNL     1       5.250   7.141  17.290  0.00  0.00    +0.000 NA
ATOM      5  N   UNL     1       6.265   6.569  16.654  0.00  0.00    +0.000 NA
ENDROOT
BRANCH   1   6
ATOM      6  C   UNL     1       6.880   4.357  15.728  0.00  0.00    +0.000 C 
BRANCH   6   8
ATOM      7  N   UNL     1       6.188   3.264  13.586  0.00  0.00    +0.000 N 
ATOM      8  C   UNL     1       6.725   4.345  14.229  0.00  0.00    +0.000 C 
ATOM      9  O   UNL     1       7.113   5.320  13.603  0.00  0.00    +0.000 OA
ATOM     10  H   UNL     1       5.875   2.474  14.172  0.00  0.00    +0.000 HD
BRANCH   7  12
ATOM     11  C   UNL     1       4.632   3.624  11.691  0.00  0.00    +0.000 C 
ATOM     12  C   UNL     1       6.037   3.152  12.128  0.00  0.00    +0.000 C 
ATOM     13  C   UNL     1       6.275   1.697  11.665  0.00  0.00    +0.000 C 
ATOM     14  C   UNL     1       7.079   4.054  11.432  0.00  0.00    +0.000 C 
ENDBRANCH   7  12
ENDBRANCH   6   8
ENDBRANCH   1   6
BRANCH   3  15
ATOM     15  C   UNL     1       2.975   6.397  18.116  0.00  0.00    +0.000 C 
BRANCH  15  16
ATOM     16  C   UNL     1       3.042   5.911  19.566  0.00  0.00    +0.000 C 
BRANCH  16  17
ATOM     17  C   UNL     1       1.947   4.874  19.852  0.00  0.00    +0.000 C 
BRANCH  17  18
ATOM     18  C   UNL     1       2.286   3.564  19.210  0.00  0.00    +0.000 A 
ATOM     19  C   UNL     1       1.507   2.869  18.306  0.00  0.00    +0.000 A 
ATOM     20  N   UNL     1       2.160   1.743  17.978  0.00  0.00    +0.000 N 
ATOM     21  C   UNL     1       3.309   1.779  18.677  0.00  0.00    +0.000 A 
ATOM     22  N   UNL     1       4.292   0.768  18.619  0.00  0.00    +0.000 N 
ATOM     23  N   UNL     1       3.426   2.880  19.445  0.00  0.00    +0.000 NA
ATOM     24  H   UNL     1       1.841   0.999  17.318  0.00  0.00    +0.000 HD
ATOM     25  H   UNL     1       4.153  -0.058  18.017  0.00  0.00    +0.000 HD
ATOM     26  H   UNL     1       5.153   0.848  19.177  0.00  0.00    +0.000 HD
ENDBRANCH  17  18
ENDBRANCH  16  17
ENDBRANCH  15  16
ENDBRANCH   3  15
TORSDOF 7
ENDMDL
MODEL 2
REMARK VINA RESULT:      -7.3      5.513      8.777
REMARK  Name = 
REMARK  10 active torsions:
REMARK  status: ('A' for Active; 'I' for Inactive)
REMARK    1  A    between atoms: C_1  and  C_2
REMARK    2  A    between atoms: C_2  and  C_3
REMARK    3  A    between atoms: C_2  and  C_4
REMARK    4  A    between atoms: C_2  and  N_5
REMARK    5  A    between atoms: C_6  and  C_8
REMARK    6  A    between atoms: C_8  and  N_9
REMARK    7  A    between atoms: C_11  and  C_12
REMARK    8  A    between atoms: C_12  and  C_13
REMARK    9  A    between atoms: C_13  and  C_14
REMARK   10  A    between atoms: C_14  and  C_15
REMARK                            x       y       z     vdW  Elec       q    Type
REMARK                         _______ _______ _______ _____ _____    ______ ____
ROOT
ATOM      1  N   UNL     1       6.824   5.866  17.760  0.00  0.00    +0.000 N 
ATOM      2  C   UNL     1       7.641   6.436  18.663  0.00  0.00    +0.000 A 
ATOM      3  C   UNL     1       7.937   7.690  18.179  0.00  0.00    +0.000 A 
ATOM      4  N   UNL     1       7.289   7.852  17.006  0.00  0.00    +0.000 NA
ATOM      5  N   UNL     1       6.622   6.728  16.775  0.00  0.00    +0.000 NA
ENDROOT
BRANCH   1   6
ATOM      6  C   UNL     1       6.294   4.505  17.813  0.00  0.00    +0.000 C 
BRANCH   6   8
ATOM      7  N   UNL     1       3.972   3.580  17.931  0.00  0.00    +0.000 N 
ATOM      8  C   UNL     1       4.911   4.451  18.409  0.00  0.00    +0.000 C 
ATOM      9  O   UNL     1       4.646   5.224  19.319  0.00  0.00    +0.000 OA
ATOM     10  H   UNL     1       4.260   2.950  17.165  0.00  0.00    +0.000 HD
BRANCH   7  12
ATOM     11  C   UNL     1       1.701   4.557  17.754  0.00  0.00    +0.000 C 
ATOM     12  C   UNL     1       2.591   3.487  18.427  0.00  0.00    +0.000 C 
ATOM     13  C   UNL     1       2.550   3.651  19.963  0.00  0.00    +0.000 C 
ATOM     14  C   UNL     1       2.011   2.099  18.076  0.00  0.00    +0.000 C 
ENDBRANCH   7  12
ENDBRANCH   6   8
ENDBRANCH   1   6
BRANCH   3  15
ATOM     15  C   UNL     1       8.854   8.696  18.809  0.00  0.00    +0.000 C 
BRANCH  15  16
ATOM     16  C   UNL     1       8.624  10.095  18.233  0.00  0.00    +0.000 C 
BRANCH  16  17
ATOM     17  C   UNL     1       9.349  11.161  19.065  0.00  0.00    +0.000 C 
BRANCH  17  18
ATOM     18  C   UNL     1      10.293  11.943  18.203  0.00  0.00    +0.000 A 
ATOM     19  C   UNL     1      11.637  11.684  18.016  0.00  0.00    +0.000 A 
ATOM     20  N   UNL     1      12.125  12.615  17.182  0.00  0.00    +0.000 N 
ATOM     21  C   UNL     1      11.081  13.409  16.881  0.00  0.00    +0.000 A 
ATOM     22  N   UNL     1      11.169  14.526  16.023  0.00  0.00    +0.000 N 
ATOM     23  N   UNL     1       9.938  13.030  17.486  0.00  0.00    +0.000 NA
ATOM     24  H   UNL     1      13.108  12.702  16.840  0.00  0.00    +0.000 HD
ATOM     25  H   UNL     1      12.069  14.776  15.587  0.00  0.00    +0.000 HD
ATOM     26  H   UNL     1      10.336  15.098  15.829  0.00  0.00    +0.000 HD
ENDBRANCH  17  18
ENDBRANCH  16  17
ENDBRANCH  15  16
ENDBRANCH   3  15
TORSDOF 7
ENDMDL
MODEL 3
REMARK VINA RESULT:      -7.3      0.580      1.079
REMARK  Name = 
REMARK  10 active torsions:
REMARK  status: ('A' for Active; 'I' for Inactive)
REMARK    1  A    between atoms: C_1  and  C_2
REMARK    2  A    between atoms: C_2  and  C_3
REMARK    3  A    between atoms: C_2  and  C_4
REMARK    4  A    between atoms: C_2  and  N_5
REMARK    5  A    between atoms: C_6  and  C_8
REMARK    6  A    between atoms: C_8  and  N_9
REMARK    7  A    between atoms: C_11  and  C_12
REMARK    8  A    between atoms: C_12  and  C_13
REMARK    9  A    between atoms: C_13  and  C_14
REMARK   10  A    between atoms: C_14  and  C_15
REMARK                            x       y       z     vdW  Elec       q    Type
REMARK                         _______ _______ _______ _____ _____    ______ ____
ROOT
ATOM      1  N   UNL     1       5.903   4.976  16.842  0.00  0.00    +0.000 N 
ATOM      2  C   UNL     1       4.576   4.771  16.913  0.00  0.00    +0.000 A 
ATOM      3  C   UNL     1       4.091   5.691  17.814  0.00  0.00    +0.000 A 
ATOM      4  N   UNL     1       5.128   6.432  18.259  0.00  0.00    +0.000 NA
ATOM      5  N   UNL     1       6.216   5.975  17.653  0.00  0.00    +0.000 NA
ENDROOT
BRANCH   1   6
ATOM      6  C   UNL     1       6.856   4.194  16.057  0.00  0.00    +0.000 C 
BRANCH   6   8
ATOM      7  N   UNL     1       6.360   3.290  13.777  0.00  0.00    +0.000 N 
ATOM      8  C   UNL     1       6.651   4.363  14.574  0.00  0.00    +0.000 C 
ATOM      9  O   UNL     1       6.774   5.483  14.099  0.00  0.00    +0.000 OA
ATOM     10  H   UNL     1       6.264   2.371  14.239  0.00  0.00    +0.000 HD
BRANCH   7  12
ATOM     11  C   UNL     1       7.181   4.359  11.697  0.00  0.00    +0.000 C 
ATOM     12  C   UNL     1       6.182   3.357  12.319  0.00  0.00    +0.000 C 
ATOM     13  C   UNL     1       4.734   3.762  11.963  0.00  0.00    +0.000 C 
ATOM     14  C   UNL     1       6.458   1.968  11.704  0.00  0.00    +0.000 C 
ENDBRANCH   7  12
ENDBRANCH   6   8
ENDBRANCH   1   6
BRANCH   3  15
ATOM     15  C   UNL     1       2.668   5.829  18.270  0.00  0.00    +0.000 C 
BRANCH  15  16
ATOM     16  C   UNL     1       2.570   5.818  19.797  0.00  0.00    +0.000 C 
BRANCH  16  17
ATOM     17  C   UNL     1       1.645   4.696  20.284  0.00  0.00    +0.000 C 
BRANCH  17  18
ATOM     18  C   UNL     1       1.941   3.421  19.556  0.00  0.00    +0.000 A 
ATOM     19  C   UNL     1       1.048   2.677  18.810  0.00  0.00    +0.000 A 
ATOM     20  N   UNL     1       1.700   1.606  18.330  0.00  0.00    +0.000 N 
ATOM     21  C   UNL     1       2.961   1.722  18.786  0.00  0.00    +0.000 A 
ATOM     22  N   UNL     1       3.982   0.789  18.508  0.00  0.00    +0.000 N 
ATOM     23  N   UNL     1       3.151   2.822  19.541  0.00  0.00    +0.000 NA
ATOM     24  H   UNL     1       1.309   0.846  17.731  0.00  0.00    +0.000 HD
ATOM     25  H   UNL     1       3.784  -0.040  17.927  0.00  0.00    +0.000 HD
ATOM     26  H   UNL     1       4.930   0.929  18.884  0.00  0.00    +0.000 HD
ENDBRANCH  17  18
ENDBRANCH  16  17
ENDBRANCH  15  16
ENDBRANCH   3  15
TORSDOF 7
ENDMDL
MODEL 4
REMARK VINA RESULT:      -7.3      0.941      1.432
REMARK  Name = 
REMARK  10 active torsions:
REMARK  status: ('A' for Active; 'I' for Inactive)
REMARK    1  A    between atoms: C_1  and  C_2
REMARK    2  A    between atoms: C_2  and  C_3
REMARK    3  A    between atoms: C_2  and  C_4
REMARK    4  A    between atoms: C_2  and  N_5
REMARK    5  A    between atoms: C_6  and  C_8
REMARK    6  A    between atoms: C_8  and  N_9
REMARK    7  A    between atoms: C_11  and  C_12
REMARK    8  A    between atoms: C_12  and  C_13
REMARK    9  A    between atoms: C_13  and  C_14
REMARK   10  A    between atoms: C_14  and  C_15
REMARK                            x       y       z     vdW  Elec       q    Type
REMARK                         _______ _______ _______ _____ _____    ______ ____
ROOT
ATOM      1  N   UNL     1       6.013   4.863  16.911  0.00  0.00    +0.000 N 
ATOM      2  C   UNL     1       4.719   5.054  16.601  0.00  0.00    +0.000 A 
ATOM      3  C   UNL     1       4.152   5.688  17.683  0.00  0.00    +0.000 A 
ATOM      4  N   UNL     1       5.112   5.872  18.614  0.00  0.00    +0.000 NA
ATOM      5  N   UNL     1       6.232   5.360  18.119  0.00  0.00    +0.000 NA
ENDROOT
BRANCH   1   6
ATOM      6  C   UNL     1       7.004   4.169  16.091  0.00  0.00    +0.000 C 
BRANCH   6   8
ATOM      7  N   UNL     1       6.371   3.302  13.831  0.00  0.00    +0.000 N 
ATOM      8  C   UNL     1       6.757   4.353  14.616  0.00  0.00    +0.000 C 
ATOM      9  O   UNL     1       6.932   5.464  14.137  0.00  0.00    +0.000 OA
ATOM     10  H   UNL     1       6.235   2.390  14.297  0.00  0.00    +0.000 HD
BRANCH   7  12
ATOM     11  C   UNL     1       6.281   1.986  11.732  0.00  0.00    +0.000 C 
ATOM     12  C   UNL     1       6.146   3.382  12.380  0.00  0.00    +0.000 C 
ATOM     13  C   UNL     1       7.140   4.370  11.728  0.00  0.00    +0.000 C 
ATOM     14  C   UNL     1       4.714   3.894  12.111  0.00  0.00    +0.000 C 
ENDBRANCH   7  12
ENDBRANCH   6   8
ENDBRANCH   1   6
BRANCH   3  15
ATOM     15  C   UNL     1       2.710   6.072  17.837  0.00  0.00    +0.000 C 
BRANCH  15  16
ATOM     16  C   UNL     1       2.104   5.459  19.103  0.00  0.00    +0.000 C 
BRANCH  16  17
ATOM     17  C   UNL     1       1.533   4.063  18.822  0.00  0.00    +0.000 C 
BRANCH  17  18
ATOM     18  C   UNL     1       2.611   3.028  18.918  0.00  0.00    +0.000 A 
ATOM     19  C   UNL     1       2.888   2.046  17.987  0.00  0.00    +0.000 A 
ATOM     20  N   UNL     1       3.919   1.319  18.447  0.00  0.00    +0.000 N 
ATOM     21  C   UNL     1       4.243   1.869  19.631  0.00  0.00    +0.000 A 
ATOM     22  N   UNL     1       5.288   1.395  20.454  0.00  0.00    +0.000 N 
ATOM     23  N   UNL     1       3.466   2.921  19.956  0.00  0.00    +0.000 NA
ATOM     24  H   UNL     1       4.370   0.500  17.982  0.00  0.00    +0.000 HD
ATOM     25  H   UNL     1       5.852   0.583  20.161  0.00  0.00    +0.000 HD
ATOM     26  H   UNL     1       5.491   1.856  21.352  0.00  0.00    +0.000 HD
ENDBRANCH  17  18
ENDBRANCH  16  17
ENDBRANCH  15  16
ENDBRANCH   3  15
TORSDOF 7
ENDMDL
MODEL 5
REMARK VINA RESULT:      -7.2      4.741      8.312
REMARK  Name = 
REMARK  10 active torsions:
REMARK  status: ('A' for Active; 'I' for Inactive)
REMARK    1  A    between atoms: C_1  and  C_2
REMARK    2  A    between atoms: C_2  and  C_3
REMARK    3  A    between atoms: C_2  and  C_4
REMARK    4  A    between atoms: C_2  and  N_5
REMARK    5  A    between atoms: C_6  and  C_8
REMARK    6  A    between atoms: C_8  and  N_9
REMARK    7  A    between atoms: C_11  and  C_12
REMARK    8  A    between atoms: C_12  and  C_13
REMARK    9  A    between atoms: C_13  and  C_14
REMARK   10  A    between atoms: C_14  and  C_15
REMARK                            x       y       z     vdW  Elec       q    Type
REMARK                         _______ _______ _______ _____ _____    ______ ____
ROOT
ATOM      1  N   UNL     1       5.473   5.289  16.852  0.00  0.00    +0.000 N 
ATOM      2  C   UNL     1       6.622   5.453  17.530  0.00  0.00    +0.000 A 
ATOM      3  C   UNL     1       6.854   6.809  17.573  0.00  0.00    +0.000 A 
ATOM      4  N   UNL     1       5.842   7.431  16.932  0.00  0.00    +0.000 NA
ATOM      5  N   UNL     1       5.018   6.483  16.502  0.00  0.00    +0.000 NA
ENDROOT
BRANCH   1   6
ATOM      6  C   UNL     1       4.853   4.013  16.499  0.00  0.00    +0.000 C 
BRANCH   6   8
ATOM      7  N   UNL     1       3.258   4.320  18.402  0.00  0.00    +0.000 N 
ATOM      8  C   UNL     1       3.977   3.477  17.601  0.00  0.00    +0.000 C 
ATOM      9  O   UNL     1       3.944   2.267  17.772  0.00  0.00    +0.000 OA
ATOM     10  H   UNL     1       3.325   5.331  18.203  0.00  0.00    +0.000 HD
BRANCH   7  12
ATOM     11  C   UNL     1       3.185   2.918  20.445  0.00  0.00    +0.000 C 
ATOM     12  C   UNL     1       2.411   3.885  19.523  0.00  0.00    +0.000 C 
ATOM     13  C   UNL     1       1.123   3.207  19.002  0.00  0.00    +0.000 C 
ATOM     14  C   UNL     1       2.000   5.115  20.362  0.00  0.00    +0.000 C 
ENDBRANCH   7  12
ENDBRANCH   6   8
ENDBRANCH   1   6
BRANCH   3  15
ATOM     15  C   UNL     1       8.043   7.492  18.182  0.00  0.00    +0.000 C 
BRANCH  15  16
ATOM     16  C   UNL     1       8.090   8.973  17.800  0.00  0.00    +0.000 C 
BRANCH  16  17
ATOM     17  C   UNL     1       8.859   9.790  18.847  0.00  0.00    +0.000 C 
BRANCH  17  18
ATOM     18  C   UNL     1       9.484  10.994  18.213  0.00  0.00    +0.000 A 
ATOM     19  C   UNL     1       8.841  12.169  17.875  0.00  0.00    +0.000 A 
ATOM     20  N   UNL     1       9.747  12.994  17.326  0.00  0.00    +0.000 N 
ATOM     21  C   UNL     1      10.907  12.313  17.345  0.00  0.00    +0.000 A 
ATOM     22  N   UNL     1      12.125  12.829  16.851  0.00  0.00    +0.000 N 
ATOM     23  N   UNL     1      10.790  11.083  17.882  0.00  0.00    +0.000 NA
ATOM     24  H   UNL     1       9.582  13.959  16.962  0.00  0.00    +0.000 HD
ATOM     25  H   UNL     1      12.161  13.776  16.446  0.00  0.00    +0.000 HD
ATOM     26  H   UNL     1      12.983  12.262  16.891  0.00  0.00    +0.000 HD
ENDBRANCH  17  18
ENDBRANCH  16  17
ENDBRANCH  15  16
ENDBRANCH   3  15
TORSDOF 7
ENDMDL
MODEL 6
REMARK VINA RESULT:      -7.1      0.812      1.338
REMARK  Name = 
REMARK  10 active torsions:
REMARK  status: ('A' for Active; 'I' for Inactive)
REMARK    1  A    between atoms: C_1  and  C_2
REMARK    2  A    between atoms: C_2  and  C_3
REMARK    3  A    between atoms: C_2  and  C_4
REMARK    4  A    between atoms: C_2  and  N_5
REMARK    5  A    between atoms: C_6  and  C_8
REMARK    6  A    between atoms: C_8  and  N_9
REMARK    7  A    between atoms: C_11  and  C_12
REMARK    8  A    between atoms: C_12  and  C_13
REMARK    9  A    between atoms: C_13  and  C_14
REMARK   10  A    between atoms: C_14  and  C_15
REMARK                            x       y       z     vdW  Elec       q    Type
REMARK                         _______ _______ _______ _____ _____    ______ ____
ROOT
ATOM      1  N   UNL     1       6.169   5.422  16.370  0.00  0.00    +0.000 N 
ATOM      2  C   UNL     1       4.862   5.599  16.628  0.00  0.00    +0.000 A 
ATOM      3  C   UNL     1       4.756   6.813  17.269  0.00  0.00    +0.000 A 
ATOM      4  N   UNL     1       5.993   7.342  17.376  0.00  0.00    +0.000 NA
ATOM      5  N   UNL     1       6.832   6.475  16.823  0.00  0.00    +0.000 NA
ENDROOT
BRANCH   1   6
ATOM      6  C   UNL     1       6.776   4.244  15.754  0.00  0.00    +0.000 C 
BRANCH   6   8
ATOM      7  N   UNL     1       6.116   3.217  13.569  0.00  0.00    +0.000 N 
ATOM      8  C   UNL     1       6.670   4.265  14.251  0.00  0.00    +0.000 C 
ATOM      9  O   UNL     1       7.114   5.237  13.657  0.00  0.00    +0.000 OA
ATOM     10  H   UNL     1       5.755   2.428  14.129  0.00  0.00    +0.000 HD
BRANCH   7  12
ATOM     11  C   UNL     1       7.107   3.993  11.433  0.00  0.00    +0.000 C 
ATOM     12  C   UNL     1       6.009   3.137  12.105  0.00  0.00    +0.000 C 
ATOM     13  C   UNL     1       4.612   3.601  11.634  0.00  0.00    +0.000 C 
ATOM     14  C   UNL     1       6.206   1.673  11.654  0.00  0.00    +0.000 C 
ENDBRANCH   7  12
ENDBRANCH   6   8
ENDBRANCH   1   6
BRANCH   3  15
ATOM     15  C   UNL     1       3.499   7.432  17.804  0.00  0.00    +0.000 C 
BRANCH  15  16
ATOM     16  C   UNL     1       2.435   6.370  18.093  0.00  0.00    +0.000 C 
BRANCH  16  17
ATOM     17  C   UNL     1       2.537   5.866  19.539  0.00  0.00    +0.000 C 
BRANCH  17  18
ATOM     18  C   UNL     1       2.883   4.409  19.561  0.00  0.00    +0.000 A 
ATOM     19  C   UNL     1       2.013   3.356  19.355  0.00  0.00    +0.000 A 
ATOM     20  N   UNL     1       2.710   2.215  19.465  0.00  0.00    +0.000 N 
ATOM     21  C   UNL     1       3.974   2.592  19.730  0.00  0.00    +0.000 A 
ATOM     22  N   UNL     1       5.037   1.685  19.923  0.00  0.00    +0.000 N 
ATOM     23  N   UNL     1       4.123   3.930  19.796  0.00  0.00    +0.000 NA
ATOM     24  H   UNL     1       2.345   1.241  19.366  0.00  0.00    +0.000 HD
ATOM     25  H   UNL     1       4.870   0.669  19.865  0.00  0.00    +0.000 HD
ATOM     26  H   UNL     1       5.986   2.031  20.123  0.00  0.00    +0.000 HD
ENDBRANCH  17  18
ENDBRANCH  16  17
ENDBRANCH  15  16
ENDBRANCH   3  15
TORSDOF 7
ENDMDL
MODEL 7
REMARK VINA RESULT:      -7.1      1.061      1.502
REMARK  Name = 
REMARK  10 active torsions:
REMARK  status: ('A' for Active; 'I' for Inactive)
REMARK    1  A    between atoms: C_1  and  C_2
REMARK    2  A    between atoms: C_2  and  C_3
REMARK    3  A    between atoms: C_2  and  C_4
REMARK    4  A    between atoms: C_2  and  N_5
REMARK    5  A    between atoms: C_6  and  C_8
REMARK    6  A    between atoms: C_8  and  N_9
REMARK    7  A    between atoms: C_11  and  C_12
REMARK    8  A    between atoms: C_12  and  C_13
REMARK    9  A    between atoms: C_13  and  C_14
REMARK   10  A    between atoms: C_14  and  C_15
REMARK                            x       y       z     vdW  Elec       q    Type
REMARK                         _______ _______ _______ _____ _____    ______ ____
ROOT
ATOM      1  N   UNL     1       6.222   5.436  16.323  0.00  0.00    +0.000 N 
ATOM      2  C   UNL     1       4.900   5.526  16.546  0.00  0.00    +0.000 A 
ATOM      3  C   UNL     1       4.700   6.710  17.217  0.00  0.00    +0.000 A 
ATOM      4  N   UNL     1       5.899   7.311  17.377  0.00  0.00    +0.000 NA
ATOM      5  N   UNL     1       6.805   6.514  16.826  0.00  0.00    +0.000 NA
ENDROOT
BRANCH   1   6
ATOM      6  C   UNL     1       6.918   4.316  15.692  0.00  0.00    +0.000 C 
BRANCH   6   8
ATOM      7  N   UNL     1       6.207   3.235  13.550  0.00  0.00    +0.000 N 
ATOM      8  C   UNL     1       6.754   4.311  14.194  0.00  0.00    +0.000 C 
ATOM      9  O   UNL     1       7.143   5.286  13.569  0.00  0.00    +0.000 OA
ATOM     10  H   UNL     1       5.892   2.445  14.135  0.00  0.00    +0.000 HD
BRANCH   7  12
ATOM     11  C   UNL     1       6.181   1.659  11.637  0.00  0.00    +0.000 C 
ATOM     12  C   UNL     1       6.045   3.130  12.092  0.00  0.00    +0.000 C 
ATOM     13  C   UNL     1       7.085   4.010  11.363  0.00  0.00    +0.000 C 
ATOM     14  C   UNL     1       4.636   3.622  11.695  0.00  0.00    +0.000 C 
ENDBRANCH   7  12
ENDBRANCH   6   8
ENDBRANCH   1   6
BRANCH   3  15
ATOM     15  C   UNL     1       3.392   7.235  17.731  0.00  0.00    +0.000 C 
BRANCH  15  16
ATOM     16  C   UNL     1       2.983   6.534  19.028  0.00  0.00    +0.000 C 
BRANCH  16  17
ATOM     17  C   UNL     1       2.212   5.240  18.737  0.00  0.00    +0.000 C 
BRANCH  17  18
ATOM     18  C   UNL     1       2.790   4.100  19.518  0.00  0.00    +0.000 A 
ATOM     19  C   UNL     1       2.289   3.576  20.695  0.00  0.00    +0.000 A 
ATOM     20  N   UNL     1       3.096   2.574  21.078  0.00  0.00    +0.000 N 
ATOM     21  C   UNL     1       4.056   2.509  20.137  0.00  0.00    +0.000 A 
ATOM     22  N   UNL     1       5.117   1.579  20.165  0.00  0.00    +0.000 N 
ATOM     23  N   UNL     1       3.904   3.427  19.162  0.00  0.00    +0.000 NA
ATOM     24  H   UNL     1       2.998   1.974  21.926  0.00  0.00    +0.000 HD
ATOM     25  H   UNL     1       5.191   0.898  20.936  0.00  0.00    +0.000 HD
ATOM     26  H   UNL     1       5.825   1.575  19.417  0.00  0.00    +0.000 HD
ENDBRANCH  17  18
ENDBRANCH  16  17
ENDBRANCH  15  16
ENDBRANCH   3  15
TORSDOF 7
ENDMDL
MODEL 8
REMARK VINA RESULT:      -7.0      0.707      1.127
REMARK  Name = 
REMARK  10 active torsions:
REMARK  status: ('A' for Active; 'I' for Inactive)
REMARK    1  A    between atoms: C_1  and  C_2
REMARK    2  A    between atoms: C_2  and  C_3
REMARK    3  A    between atoms: C_2  and  C_4
REMARK    4  A    between atoms: C_2  and  N_5
REMARK    5  A    between atoms: C_6  and  C_8
REMARK    6  A    between atoms: C_8  and  N_9
REMARK    7  A    between atoms: C_11  and  C_12
REMARK    8  A    between atoms: C_12  and  C_13
REMARK    9  A    between atoms: C_13  and  C_14
REMARK   10  A    between atoms: C_14  and  C_15
REMARK                            x       y       z     vdW  Elec       q    Type
REMARK                         _______ _______ _______ _____ _____    ______ ____
ROOT
ATOM      1  N   UNL     1       6.109   5.412  16.409  0.00  0.00    +0.000 N 
ATOM      2  C   UNL     1       4.846   5.277  16.847  0.00  0.00    +0.000 A 
ATOM      3  C   UNL     1       4.502   6.484  17.412  0.00  0.00    +0.000 A 
ATOM      4  N   UNL     1       5.556   7.319  17.295  0.00  0.00    +0.000 NA
ATOM      5  N   UNL     1       6.519   6.641  16.684  0.00  0.00    +0.000 NA
ENDROOT
BRANCH   1   6
ATOM      6  C   UNL     1       6.924   4.368  15.790  0.00  0.00    +0.000 C 
BRANCH   6   8
ATOM      7  N   UNL     1       6.184   3.339  13.633  0.00  0.00    +0.000 N 
ATOM      8  C   UNL     1       6.808   4.364  14.288  0.00  0.00    +0.000 C 
ATOM      9  O   UNL     1       7.307   5.294  13.670  0.00  0.00    +0.000 OA
ATOM     10  H   UNL     1       5.778   2.587  14.212  0.00  0.00    +0.000 HD
BRANCH   7  12
ATOM     11  C   UNL     1       4.641   3.649  11.718  0.00  0.00    +0.000 C 
ATOM     12  C   UNL     1       6.059   3.236  12.171  0.00  0.00    +0.000 C 
ATOM     13  C   UNL     1       6.372   1.799  11.697  0.00  0.00    +0.000 C 
ATOM     14  C   UNL     1       7.069   4.194  11.502  0.00  0.00    +0.000 C 
ENDBRANCH   7  12
ENDBRANCH   6   8
ENDBRANCH   1   6
BRANCH   3  15
ATOM     15  C   UNL     1       3.204   6.817  18.086  0.00  0.00    +0.000 C 
BRANCH  15  16
ATOM     16  C   UNL     1       2.202   5.666  17.959  0.00  0.00    +0.000 C 
BRANCH  16  17
ATOM     17  C   UNL     1       2.072   4.899  19.282  0.00  0.00    +0.000 C 
BRANCH  17  18
ATOM     18  C   UNL     1       3.016   3.737  19.307  0.00  0.00    +0.000 A 
ATOM     19  C   UNL     1       4.197   3.656  20.019  0.00  0.00    +0.000 A 
ATOM     20  N   UNL     1       4.750   2.459  19.768  0.00  0.00    +0.000 N 
ATOM     21  C   UNL     1       3.904   1.844  18.922  0.00  0.00    +0.000 A 
ATOM     22  N   UNL     1       4.119   0.549  18.404  0.00  0.00    +0.000 N 
ATOM     23  N   UNL     1       2.826   2.593  18.615  0.00  0.00    +0.000 NA
ATOM     24  H   UNL     1       5.648   2.087  20.150  0.00  0.00    +0.000 HD
ATOM     25  H   UNL     1       4.962   0.018  18.667  0.00  0.00    +0.000 HD
ATOM     26  H   UNL     1       3.436   0.128  17.759  0.00  0.00    +0.000 HD
ENDBRANCH  17  18
ENDBRANCH  16  17
ENDBRANCH  15  16
ENDBRANCH   3  15
TORSDOF 7
ENDMDL
MODEL 9
REMARK VINA RESULT:      -6.9      5.723      8.930
REMARK  Name = 
REMARK  10 active torsions:
REMARK  status: ('A' for Active; 'I' for Inactive)
REMARK    1  A    between atoms: C_1  and  C_2
REMARK    2  A    between atoms: C_2  and  C_3
REMARK    3  A    between atoms: C_2  and  C_4
REMARK    4  A    between atoms: C_2  and  N_5
REMARK    5  A    between atoms: C_6  and  C_8
REMARK    6  A    between atoms: C_8  and  N_9
REMARK    7  A    between atoms: C_11  and  C_12
REMARK    8  A    between atoms: C_12  and  C_13
REMARK    9  A    between atoms: C_13  and  C_14
REMARK   10  A    between atoms: C_14  and  C_15
REMARK                            x       y       z     vdW  Elec       q    Type
REMARK                         _______ _______ _______ _____ _____    ______ ____
ROOT
ATOM      1  N   UNL     1       7.311   6.165  17.808  0.00  0.00    +0.000 N 
ATOM      2  C   UNL     1       8.035   6.827  18.727  0.00  0.00    +0.000 A 
ATOM      3  C   UNL     1       8.207   8.102  18.238  0.00  0.00    +0.000 A 
ATOM      4  N   UNL     1       7.579   8.184  17.046  0.00  0.00    +0.000 NA
ATOM      5  N   UNL     1       7.045   6.992  16.809  0.00  0.00    +0.000 NA
ENDROOT
BRANCH   1   6
ATOM      6  C   UNL     1       6.930   4.755  17.861  0.00  0.00    +0.000 C 
BRANCH   6   8
ATOM      7  N   UNL     1       4.772   3.503  18.053  0.00  0.00    +0.000 N 
ATOM      8  C   UNL     1       5.555   4.554  18.443  0.00  0.00    +0.000 C 
ATOM      9  O   UNL     1       5.151   5.369  19.259  0.00  0.00    +0.000 OA
ATOM     10  H   UNL     1       5.173   2.846  17.364  0.00  0.00    +0.000 HD
BRANCH   7  12
ATOM     11  C   UNL     1       2.517   4.497  18.318  0.00  0.00    +0.000 C 
ATOM     12  C   UNL     1       3.407   3.253  18.539  0.00  0.00    +0.000 C 
ATOM     13  C   UNL     1       3.423   2.871  20.036  0.00  0.00    +0.000 C 
ATOM     14  C   UNL     1       2.787   2.079  17.750  0.00  0.00    +0.000 C 
ENDBRANCH   7  12
ENDBRANCH   6   8
ENDBRANCH   1   6
BRANCH   3  15
ATOM     15  C   UNL     1       8.991   9.206  18.882  0.00  0.00    +0.000 C 
BRANCH  15  16
ATOM     16  C   UNL     1       8.834  10.521  18.114  0.00  0.00    +0.000 C 
BRANCH  16  17
ATOM     17  C   UNL     1      10.197  11.172  17.846  0.00  0.00    +0.000 C 
BRANCH  17  18
ATOM     18  C   UNL     1      10.045  12.652  17.676  0.00  0.00    +0.000 A 
ATOM     19  C   UNL     1      11.033  13.537  17.289  0.00  0.00    +0.000 A 
ATOM     20  N   UNL     1      10.498  14.768  17.263  0.00  0.00    +0.000 N 
ATOM     21  C   UNL     1       9.213  14.607  17.627  0.00  0.00    +0.000 A 
ATOM     22  N   UNL     1       8.289  15.669  17.729  0.00  0.00    +0.000 N 
ATOM     23  N   UNL     1       8.894  13.323  17.887  0.00  0.00    +0.000 NA
ATOM     24  H   UNL     1      10.980  15.660  17.014  0.00  0.00    +0.000 HD
ATOM     25  H   UNL     1       8.584  16.636  17.522  0.00  0.00    +0.000 HD
ATOM     26  H   UNL     1       7.317  15.487  18.012  0.00  0.00    +0.000 HD
ENDBRANCH  17  18
ENDBRANCH  16  17
ENDBRANCH  15  16
ENDBRANCH   3  15
TORSDOF 7
ENDMDL
