MODEL 1
REMARK VINA RESULT:      -8.3      0.000      0.000
REMARK  Name = 
REMARK  4 active torsions:
REMARK  status: ('A' for Active; 'I' for Inactive)
REMARK    1  A    between atoms: C_1  and  C_2
REMARK    2  A    between atoms: C_2  and  N_3
REMARK    3  A    between atoms: C_2  and  C_25
REMARK    4  A    between atoms: C_4  and  C_6
REMARK                            x       y       z     vdW  Elec       q    Type
REMARK                         _______ _______ _______ _____ _____    ______ ____
ROOT
ATOM      1  C   UNL     1       2.932   5.478  19.391  0.00  0.00    +0.000 A 
ATOM      2  C   UNL     1       2.354   5.167  18.191  0.00  0.00    +0.000 A 
ATOM      3  C   UNL     1       1.489   6.059  17.455  0.00  0.00    +0.000 A 
ATOM      4  C   UNL     1       2.005   7.280  17.505  0.00  0.00    +0.000 A 
ATOM      5  N   UNL     1       2.198   7.798  18.778  0.00  0.00    +0.000 N 
ATOM      6  C   UNL     1       1.879   9.137  18.856  0.00  0.00    +0.000 A 
ATOM      7  O   UNL     1       2.114   9.978  17.994  0.00  0.00    +0.000 OA
ATOM      8  C   UNL     1       1.066   9.462  19.998  0.00  0.00    +0.000 A 
ATOM      9  C   UNL     1       0.104  10.483  19.816  0.00  0.00    +0.000 A 
ATOM     10  C   UNL     1      -0.713  10.904  20.850  0.00  0.00    +0.000 A 
ATOM     11  C   UNL     1      -1.706  11.881  20.584  0.00  0.00    +0.000 A 
ATOM     12  C   UNL     1      -2.471  12.423  21.605  0.00  0.00    +0.000 A 
ATOM     13  C   UNL     1      -2.221  11.999  22.904  0.00  0.00    +0.000 A 
ATOM     14  C   UNL     1      -1.262  10.983  23.160  0.00  0.00    +0.000 A 
ATOM     15  C   UNL     1      -0.494  10.353  22.126  0.00  0.00    +0.000 A 
ATOM     16  C   UNL     1       0.462   9.212  22.237  0.00  0.00    +0.000 A 
ATOM     17  C   UNL     1       1.211   8.688  21.138  0.00  0.00    +0.000 A 
ATOM     18  N   UNL     1       1.988   7.405  21.101  0.00  0.00    +0.000 NA
ATOM     19  C   UNL     1       2.360   6.932  19.917  0.00  0.00    +0.000 A 
ENDROOT
BRANCH   1  21
ATOM     20  N   UNL     1       5.237   4.032  19.327  0.00  0.00    +0.000 N 
ATOM     21  C   UNL     1       3.972   4.346  19.592  0.00  0.00    +0.000 C 
ATOM     22  O   UNL     1       3.562   3.303  20.172  0.00  0.00    +0.000 OA
ATOM     23  H   UNL     1       5.363   3.133  19.763  0.00  0.00    +0.000 HD
BRANCH  20  25
ATOM     24  C   UNL     1       7.079   5.653  19.305  0.00  0.00    +0.000 C 
ATOM     25  C   UNL     1       6.443   4.424  18.603  0.00  0.00    +0.000 C 
BRANCH  25  26
ATOM     26  C   UNL     1       6.218   4.710  17.107  0.00  0.00    +0.000 C 
ATOM     27  C   UNL     1       5.185   3.804  16.399  0.00  0.00    +0.000 C 
ATOM     28  C   UNL     1       5.057   4.195  14.924  0.00  0.00    +0.000 C 
ATOM     29  C   UNL     1       6.424   4.245  14.253  0.00  0.00    +0.000 C 
ATOM     30  C   UNL     1       7.406   5.102  15.043  0.00  0.00    +0.000 C 
ATOM     31  N   UNL     1       7.508   4.635  16.414  0.00  0.00    +0.000 NA
ATOM     32  H   UNL     1       8.210   5.185  16.909  0.00  0.00    +0.000 HD
ENDBRANCH  25  26
ENDBRANCH  20  25
ENDBRANCH   1  21
TORSDOF 3
ENDMDL
MODEL 2
REMARK VINA RESULT:      -8.2      1.920      3.013
REMARK  Name = 
REMARK  4 active torsions:
REMARK  status: ('A' for Active; 'I' for Inactive)
REMARK    1  A    between atoms: C_1  and  C_2
REMARK    2  A    between atoms: C_2  and  N_3
REMARK    3  A    between atoms: C_2  and  C_25
REMARK    4  A    between atoms: C_4  and  C_6
REMARK                            x       y       z     vdW  Elec       q    Type
REMARK                         _______ _______ _______ _____ _____    ______ ____
ROOT
ATOM      1  C   UNL     1       1.751   7.745  19.667  0.00  0.00    +0.000 A 
ATOM      2  C   UNL     1       1.625   7.996  18.328  0.00  0.00    +0.000 A 
ATOM      3  C   UNL     1       1.149   9.243  17.780  0.00  0.00    +0.000 A 
ATOM      4  C   UNL     1       1.697  10.239  18.465  0.00  0.00    +0.000 A 
ATOM      5  N   UNL     1       1.453  10.232  19.832  0.00  0.00    +0.000 N 
ATOM      6  C   UNL     1       1.223  11.495  20.332  0.00  0.00    +0.000 A 
ATOM      7  O   UNL     1       1.811  12.517  19.992  0.00  0.00    +0.000 OA
ATOM      8  C   UNL     1       0.077  11.562  21.200  0.00  0.00    +0.000 A 
ATOM      9  C   UNL     1      -0.680  12.756  21.152  0.00  0.00    +0.000 A 
ATOM     10  C   UNL     1      -1.784  12.950  21.964  0.00  0.00    +0.000 A 
ATOM     11  C   UNL     1      -2.543  14.138  21.818  0.00  0.00    +0.000 A 
ATOM     12  C   UNL     1      -3.584  14.436  22.682  0.00  0.00    +0.000 A 
ATOM     13  C   UNL     1      -3.851  13.547  23.715  0.00  0.00    +0.000 A 
ATOM     14  C   UNL     1      -3.123  12.332  23.827  0.00  0.00    +0.000 A 
ATOM     15  C   UNL     1      -2.079  11.957  22.918  0.00  0.00    +0.000 A 
ATOM     16  C   UNL     1      -1.311  10.680  22.854  0.00  0.00    +0.000 A 
ATOM     17  C   UNL     1      -0.254  10.429  21.925  0.00  0.00    +0.000 A 
ATOM     18  N   UNL     1       0.391   9.108  21.622  0.00  0.00    +0.000 NA
ATOM     19  C   UNL     1       1.132   9.011  20.524  0.00  0.00    +0.000 A 
ENDROOT
BRANCH   1  21
ATOM     20  N   UNL     1       3.444   5.719  19.007  0.00  0.00    +0.000 N 
ATOM     21  C   UNL     1       2.566   6.428  19.711  0.00  0.00    +0.000 C 
ATOM     22  O   UNL     1       2.374   5.682  20.712  0.00  0.00    +0.000 OA
ATOM     23  H   UNL     1       3.649   4.927  19.594  0.00  0.00    +0.000 HD
BRANCH  20  25
ATOM     24  C   UNL     1       3.790   4.226  17.090  0.00  0.00    +0.000 C 
ATOM     25  C   UNL     1       4.134   5.599  17.726  0.00  0.00    +0.000 C 
BRANCH  25  26
ATOM     26  C   UNL     1       5.660   5.790  17.808  0.00  0.00    +0.000 C 
ATOM     27  C   UNL     1       6.301   5.489  19.181  0.00  0.00    +0.000 C 
ATOM     28  C   UNL     1       7.814   5.715  19.125  0.00  0.00    +0.000 C 
ATOM     29  C   UNL     1       8.138   7.093  18.561  0.00  0.00    +0.000 C 
ATOM     30  C   UNL     1       7.419   7.341  17.239  0.00  0.00    +0.000 C 
ATOM     31  N   UNL     1       5.987   7.156  17.392  0.00  0.00    +0.000 NA
ATOM     32  H   UNL     1       5.520   7.383  16.513  0.00  0.00    +0.000 HD
ENDBRANCH  25  26
ENDBRANCH  20  25
ENDBRANCH   1  21
TORSDOF 3
ENDMDL
MODEL 3
REMARK VINA RESULT:      -8.1      3.204      4.622
REMARK  Name = 
REMARK  4 active torsions:
REMARK  status: ('A' for Active; 'I' for Inactive)
REMARK    1  A    between atoms: C_1  and  C_2
REMARK    2  A    between atoms: C_2  and  N_3
REMARK    3  A    between atoms: C_2  and  C_25
REMARK    4  A    between atoms: C_4  and  C_6
REMARK                            x       y       z     vdW  Elec       q    Type
REMARK                         _______ _______ _______ _____ _____    ______ ____
ROOT
ATOM      1  C   UNL     1       1.561   8.095  20.239  0.00  0.00    +0.000 A 
ATOM      2  C   UNL     1       1.105   8.147  21.528  0.00  0.00    +0.000 A 
ATOM      3  C   UNL     1       0.464   9.300  22.113  0.00  0.00    +0.000 A 
ATOM      4  C   UNL     1      -0.378   9.809  21.224  0.00  0.00    +0.000 A 
ATOM      5  N   UNL     1       0.184  10.182  20.011  0.00  0.00    +0.000 N 
ATOM      6  C   UNL     1      -0.341  11.360  19.525  0.00  0.00    +0.000 A 
ATOM      7  O   UNL     1      -1.520  11.696  19.590  0.00  0.00    +0.000 OA
ATOM      8  C   UNL     1       0.662  12.284  19.067  0.00  0.00    +0.000 A 
ATOM      9  C   UNL     1       0.395  13.657  19.273  0.00  0.00    +0.000 A 
ATOM     10  C   UNL     1       1.270  14.640  18.845  0.00  0.00    +0.000 A 
ATOM     11  C   UNL     1       0.980  15.995  19.146  0.00  0.00    +0.000 A 
ATOM     12  C   UNL     1       1.758  17.025  18.642  0.00  0.00    +0.000 A 
ATOM     13  C   UNL     1       2.821  16.694  17.811  0.00  0.00    +0.000 A 
ATOM     14  C   UNL     1       3.140  15.334  17.554  0.00  0.00    +0.000 A 
ATOM     15  C   UNL     1       2.398  14.238  18.106  0.00  0.00    +0.000 A 
ATOM     16  C   UNL     1       2.681  12.776  18.007  0.00  0.00    +0.000 A 
ATOM     17  C   UNL     1       1.843  11.761  18.564  0.00  0.00    +0.000 A 
ATOM     18  N   UNL     1       2.172  10.306  18.734  0.00  0.00    +0.000 NA
ATOM     19  C   UNL     1       1.406   9.582  19.542  0.00  0.00    +0.000 A 
ENDROOT
BRANCH   1  21
ATOM     20  N   UNL     1       2.540   5.765  19.231  0.00  0.00    +0.000 N 
ATOM     21  C   UNL     1       1.867   6.591  20.026  0.00  0.00    +0.000 C 
ATOM     22  O   UNL     1       1.299   5.785  20.815  0.00  0.00    +0.000 OA
ATOM     23  H   UNL     1       2.382   4.854  19.631  0.00  0.00    +0.000 HD
BRANCH  20  25
ATOM     24  C   UNL     1       3.192   4.211  17.446  0.00  0.00    +0.000 C 
ATOM     25  C   UNL     1       3.317   5.655  17.999  0.00  0.00    +0.000 C 
BRANCH  25  26
ATOM     26  C   UNL     1       4.797   6.053  18.146  0.00  0.00    +0.000 C 
ATOM     27  C   UNL     1       5.580   6.226  16.824  0.00  0.00    +0.000 C 
ATOM     28  C   UNL     1       7.030   6.623  17.112  0.00  0.00    +0.000 C 
ATOM     29  C   UNL     1       7.670   5.665  18.108  0.00  0.00    +0.000 C 
ATOM     30  C   UNL     1       6.809   5.495  19.356  0.00  0.00    +0.000 C 
ATOM     31  N   UNL     1       5.467   5.069  19.000  0.00  0.00    +0.000 NA
ATOM     32  H   UNL     1       4.926   4.907  19.849  0.00  0.00    +0.000 HD
ENDBRANCH  25  26
ENDBRANCH  20  25
ENDBRANCH   1  21
TORSDOF 3
ENDMDL
MODEL 4
REMARK VINA RESULT:      -8.0      4.178     10.350
REMARK  Name = 
REMARK  4 active torsions:
REMARK  status: ('A' for Active; 'I' for Inactive)
REMARK    1  A    between atoms: C_1  and  C_2
REMARK    2  A    between atoms: C_2  and  N_3
REMARK    3  A    between atoms: C_2  and  C_25
REMARK    4  A    between atoms: C_4  and  C_6
REMARK                            x       y       z     vdW  Elec       q    Type
REMARK                         _______ _______ _______ _____ _____    ______ ____
ROOT
ATOM      1  C   UNL     1      -0.648  13.428  22.631  0.00  0.00    +0.000 A 
ATOM      2  C   UNL     1      -0.024  14.486  22.028  0.00  0.00    +0.000 A 
ATOM      3  C   UNL     1       0.648  14.409  20.753  0.00  0.00    +0.000 A 
ATOM      4  C   UNL     1      -0.096  13.682  19.930  0.00  0.00    +0.000 A 
ATOM      5  N   UNL     1      -0.381  12.393  20.360  0.00  0.00    +0.000 N 
ATOM      6  C   UNL     1      -0.329  11.471  19.337  0.00  0.00    +0.000 A 
ATOM      7  O   UNL     1      -0.726  11.655  18.190  0.00  0.00    +0.000 OA
ATOM      8  C   UNL     1       0.409  10.285  19.677  0.00  0.00    +0.000 A 
ATOM      9  C   UNL     1       1.154   9.685  18.635  0.00  0.00    +0.000 A 
ATOM     10  C   UNL     1       1.877   8.522  18.834  0.00  0.00    +0.000 A 
ATOM     11  C   UNL     1       2.660   8.011  17.769  0.00  0.00    +0.000 A 
ATOM     12  C   UNL     1       3.309   6.790  17.876  0.00  0.00    +0.000 A 
ATOM     13  C   UNL     1       3.150   6.067  19.051  0.00  0.00    +0.000 A 
ATOM     14  C   UNL     1       2.408   6.606  20.135  0.00  0.00    +0.000 A 
ATOM     15  C   UNL     1       1.773   7.892  20.088  0.00  0.00    +0.000 A 
ATOM     16  C   UNL     1       1.058   8.620  21.177  0.00  0.00    +0.000 A 
ATOM     17  C   UNL     1       0.422   9.888  21.005  0.00  0.00    +0.000 A 
ATOM     18  N   UNL     1      -0.091  10.798  22.083  0.00  0.00    +0.000 NA
ATOM     19  C   UNL     1      -0.368  12.056  21.760  0.00  0.00    +0.000 A 
ENDROOT
BRANCH   1  21
ATOM     20  N   UNL     1      -2.675  14.174  24.288  0.00  0.00    +0.000 N 
ATOM     21  C   UNL     1      -1.447  14.091  23.782  0.00  0.00    +0.000 C 
ATOM     22  O   UNL     1      -0.802  14.867  24.540  0.00  0.00    +0.000 OA
ATOM     23  H   UNL     1      -2.566  14.753  25.104  0.00  0.00    +0.000 HD
BRANCH  20  25
ATOM     24  C   UNL     1      -4.374  12.458  24.726  0.00  0.00    +0.000 C 
ATOM     25  C   UNL     1      -4.081  13.839  24.081  0.00  0.00    +0.000 C 
BRANCH  25  26
ATOM     26  C   UNL     1      -4.526  13.854  22.607  0.00  0.00    +0.000 C 
ATOM     27  C   UNL     1      -5.522  14.970  22.219  0.00  0.00    +0.000 C 
ATOM     28  C   UNL     1      -5.878  14.874  20.734  0.00  0.00    +0.000 C 
ATOM     29  C   UNL     1      -6.331  13.465  20.372  0.00  0.00    +0.000 C 
ATOM     30  C   UNL     1      -5.330  12.416  20.845  0.00  0.00    +0.000 C 
ATOM     31  N   UNL     1      -5.087  12.543  22.271  0.00  0.00    +0.000 NA
ATOM     32  H   UNL     1      -4.461  11.798  22.576  0.00  0.00    +0.000 HD
ENDBRANCH  25  26
ENDBRANCH  20  25
ENDBRANCH   1  21
TORSDOF 3
ENDMDL
MODEL 5
REMARK VINA RESULT:      -8.0      3.093      4.444
REMARK  Name = 
REMARK  4 active torsions:
REMARK  status: ('A' for Active; 'I' for Inactive)
REMARK    1  A    between atoms: C_1  and  C_2
REMARK    2  A    between atoms: C_2  and  N_3
REMARK    3  A    between atoms: C_2  and  C_25
REMARK    4  A    between atoms: C_4  and  C_6
REMARK                            x       y       z     vdW  Elec       q    Type
REMARK                         _______ _______ _______ _____ _____    ______ ____
ROOT
ATOM      1  C   UNL     1       1.744   7.812  20.124  0.00  0.00    +0.000 A 
ATOM      2  C   UNL     1       1.159   7.825  21.361  0.00  0.00    +0.000 A 
ATOM      3  C   UNL     1       0.390   8.930  21.880  0.00  0.00    +0.000 A 
ATOM      4  C   UNL     1      -0.391   9.389  20.910  0.00  0.00    +0.000 A 
ATOM      5  N   UNL     1       0.264   9.806  19.760  0.00  0.00    +0.000 N 
ATOM      6  C   UNL     1      -0.286  10.951  19.225  0.00  0.00    +0.000 A 
ATOM      7  O   UNL     1      -1.485  11.210  19.172  0.00  0.00    +0.000 OA
ATOM      8  C   UNL     1       0.695  11.941  18.869  0.00  0.00    +0.000 A 
ATOM      9  C   UNL     1       0.320  13.293  19.048  0.00  0.00    +0.000 A 
ATOM     10  C   UNL     1       1.167  14.333  18.709  0.00  0.00    +0.000 A 
ATOM     11  C   UNL     1       0.761  15.664  18.980  0.00  0.00    +0.000 A 
ATOM     12  C   UNL     1       1.516  16.746  18.556  0.00  0.00    +0.000 A 
ATOM     13  C   UNL     1       2.676  16.490  17.835  0.00  0.00    +0.000 A 
ATOM     14  C   UNL     1       3.107  15.156  17.612  0.00  0.00    +0.000 A 
ATOM     15  C   UNL     1       2.387  14.010  18.086  0.00  0.00    +0.000 A 
ATOM     16  C   UNL     1       2.773  12.570  18.015  0.00  0.00    +0.000 A 
ATOM     17  C   UNL     1       1.952  11.499  18.487  0.00  0.00    +0.000 A 
ATOM     18  N   UNL     1       2.356  10.068  18.688  0.00  0.00    +0.000 NA
ATOM     19  C   UNL     1       1.563   9.290  19.415  0.00  0.00    +0.000 A 
ENDROOT
BRANCH   1  21
ATOM     20  N   UNL     1       2.826   5.529  19.112  0.00  0.00    +0.000 N 
ATOM     21  C   UNL     1       2.167   6.332  19.943  0.00  0.00    +0.000 C 
ATOM     22  O   UNL     1       1.768   5.522  20.824  0.00  0.00    +0.000 OA
ATOM     23  H   UNL     1       2.800   4.630  19.566  0.00  0.00    +0.000 HD
BRANCH  20  25
ATOM     24  C   UNL     1       2.997   4.123  17.108  0.00  0.00    +0.000 C 
ATOM     25  C   UNL     1       3.472   5.424  17.807  0.00  0.00    +0.000 C 
BRANCH  25  26
ATOM     26  C   UNL     1       5.010   5.484  17.854  0.00  0.00    +0.000 C 
ATOM     27  C   UNL     1       5.641   5.414  19.263  0.00  0.00    +0.000 C 
ATOM     28  C   UNL     1       7.167   5.480  19.167  0.00  0.00    +0.000 C 
ATOM     29  C   UNL     1       7.609   6.676  18.331  0.00  0.00    +0.000 C 
ATOM     30  C   UNL     1       6.896   6.713  16.984  0.00  0.00    +0.000 C 
ATOM     31  N   UNL     1       5.455   6.699  17.166  0.00  0.00    +0.000 NA
ATOM     32  H   UNL     1       4.998   6.782  16.257  0.00  0.00    +0.000 HD
ENDBRANCH  25  26
ENDBRANCH  20  25
ENDBRANCH   1  21
TORSDOF 3
ENDMDL
MODEL 6
REMARK VINA RESULT:      -8.0      2.923      9.928
REMARK  Name = 
REMARK  4 active torsions:
REMARK  status: ('A' for Active; 'I' for Inactive)
REMARK    1  A    between atoms: C_1  and  C_2
REMARK    2  A    between atoms: C_2  and  N_3
REMARK    3  A    between atoms: C_2  and  C_25
REMARK    4  A    between atoms: C_4  and  C_6
REMARK                            x       y       z     vdW  Elec       q    Type
REMARK                         _______ _______ _______ _____ _____    ______ ____
ROOT
ATOM      1  C   UNL     1       0.386  10.330  21.628  0.00  0.00    +0.000 A 
ATOM      2  C   UNL     1       0.823  11.563  21.227  0.00  0.00    +0.000 A 
ATOM      3  C   UNL     1       1.589  11.798  20.026  0.00  0.00    +0.000 A 
ATOM      4  C   UNL     1       1.072  11.065  19.049  0.00  0.00    +0.000 A 
ATOM      5  N   UNL     1       1.024   9.698  19.285  0.00  0.00    +0.000 N 
ATOM      6  C   UNL     1       1.339   8.958  18.165  0.00  0.00    +0.000 A 
ATOM      7  O   UNL     1       0.999   9.223  17.016  0.00  0.00    +0.000 OA
ATOM      8  C   UNL     1       2.277   7.899  18.428  0.00  0.00    +0.000 A 
ATOM      9  C   UNL     1       3.203   7.608  17.400  0.00  0.00    +0.000 A 
ATOM     10  C   UNL     1       4.131   6.589  17.525  0.00  0.00    +0.000 A 
ATOM     11  C   UNL     1       5.078   6.394  16.488  0.00  0.00    +0.000 A 
ATOM     12  C   UNL     1       5.952   5.319  16.507  0.00  0.00    +0.000 A 
ATOM     13  C   UNL     1       5.859   4.420  17.562  0.00  0.00    +0.000 A 
ATOM     14  C   UNL     1       4.944   4.647  18.625  0.00  0.00    +0.000 A 
ATOM     15  C   UNL     1       4.066   5.780  18.674  0.00  0.00    +0.000 A 
ATOM     16  C   UNL     1       3.139   6.195  19.767  0.00  0.00    +0.000 A 
ATOM     17  C   UNL     1       2.271   7.328  19.691  0.00  0.00    +0.000 A 
ATOM     18  N   UNL     1       1.506   7.961  20.816  0.00  0.00    +0.000 NA
ATOM     19  C   UNL     1       1.003   9.175  20.626  0.00  0.00    +0.000 A 
ENDROOT
BRANCH   1  21
ATOM     20  N   UNL     1      -1.608  11.485  23.077  0.00  0.00    +0.000 N 
ATOM     21  C   UNL     1      -0.615  10.657  22.766  0.00  0.00    +0.000 C 
ATOM     22  O   UNL     1      -0.508   9.972  23.821  0.00  0.00    +0.000 OA
ATOM     23  H   UNL     1      -1.912  11.175  23.986  0.00  0.00    +0.000 HD
BRANCH  20  25
ATOM     24  C   UNL     1      -1.932  13.864  23.584  0.00  0.00    +0.000 C 
ATOM     25  C   UNL     1      -2.344  12.679  22.672  0.00  0.00    +0.000 C 
BRANCH  25  26
ATOM     26  C   UNL     1      -3.875  12.508  22.664  0.00  0.00    +0.000 C 
ATOM     27  C   UNL     1      -4.586  12.889  21.347  0.00  0.00    +0.000 C 
ATOM     28  C   UNL     1      -6.095  12.670  21.473  0.00  0.00    +0.000 C 
ATOM     29  C   UNL     1      -6.644  13.362  22.715  0.00  0.00    +0.000 C 
ATOM     30  C   UNL     1      -5.852  12.987  23.962  0.00  0.00    +0.000 C 
ATOM     31  N   UNL     1      -4.440  13.273  23.778  0.00  0.00    +0.000 NA
ATOM     32  H   UNL     1      -3.937  13.070  24.642  0.00  0.00    +0.000 HD
ENDBRANCH  25  26
ENDBRANCH  20  25
ENDBRANCH   1  21
TORSDOF 3
ENDMDL
MODEL 7
REMARK VINA RESULT:      -7.9      3.004      9.042
REMARK  Name = 
REMARK  4 active torsions:
REMARK  status: ('A' for Active; 'I' for Inactive)
REMARK    1  A    between atoms: C_1  and  C_2
REMARK    2  A    between atoms: C_2  and  N_3
REMARK    3  A    between atoms: C_2  and  C_25
REMARK    4  A    between atoms: C_4  and  C_6
REMARK                            x       y       z     vdW  Elec       q    Type
REMARK                         _______ _______ _______ _____ _____    ______ ____
ROOT
ATOM      1  C   UNL     1      -0.068  11.168  21.265  0.00  0.00    +0.000 A 
ATOM      2  C   UNL     1       0.738  12.235  20.975  0.00  0.00    +0.000 A 
ATOM      3  C   UNL     1       1.843  12.186  20.049  0.00  0.00    +0.000 A 
ATOM      4  C   UNL     1       1.467  11.490  18.984  0.00  0.00    +0.000 A 
ATOM      5  N   UNL     1       1.039  10.194  19.234  0.00  0.00    +0.000 N 
ATOM      6  C   UNL     1       1.475   9.301  18.279  0.00  0.00    +0.000 A 
ATOM      7  O   UNL     1       1.544   9.521  17.074  0.00  0.00    +0.000 OA
ATOM      8  C   UNL     1       2.029   8.096  18.838  0.00  0.00    +0.000 A 
ATOM      9  C   UNL     1       3.113   7.517  18.138  0.00  0.00    +0.000 A 
ATOM     10  C   UNL     1       3.706   6.340  18.561  0.00  0.00    +0.000 A 
ATOM     11  C   UNL     1       4.834   5.849  17.857  0.00  0.00    +0.000 A 
ATOM     12  C   UNL     1       5.393   4.619  18.164  0.00  0.00    +0.000 A 
ATOM     13  C   UNL     1       4.800   3.865  19.169  0.00  0.00    +0.000 A 
ATOM     14  C   UNL     1       3.702   4.382  19.907  0.00  0.00    +0.000 A 
ATOM     15  C   UNL     1       3.133   5.676  19.662  0.00  0.00    +0.000 A 
ATOM     16  C   UNL     1       2.059   6.382  20.420  0.00  0.00    +0.000 A 
ATOM     17  C   UNL     1       1.536   7.662  20.058  0.00  0.00    +0.000 A 
ATOM     18  N   UNL     1       0.653   8.548  20.889  0.00  0.00    +0.000 NA
ATOM     19  C   UNL     1       0.520   9.818  20.523  0.00  0.00    +0.000 A 
ENDROOT
BRANCH   1  21
ATOM     20  N   UNL     1      -2.416  12.409  21.861  0.00  0.00    +0.000 N 
ATOM     21  C   UNL     1      -1.244  11.808  22.046  0.00  0.00    +0.000 C 
ATOM     22  O   UNL     1      -1.127  11.848  23.302  0.00  0.00    +0.000 OA
ATOM     23  H   UNL     1      -2.757  12.576  22.794  0.00  0.00    +0.000 HD
BRANCH  20  25
ATOM     24  C   UNL     1      -4.668  13.338  21.566  0.00  0.00    +0.000 C 
ATOM     25  C   UNL     1      -3.327  12.981  20.874  0.00  0.00    +0.000 C 
BRANCH  25  26
ATOM     26  C   UNL     1      -3.572  12.085  19.645  0.00  0.00    +0.000 C 
ATOM     27  C   UNL     1      -2.376  11.926  18.681  0.00  0.00    +0.000 C 
ATOM     28  C   UNL     1      -2.751  11.014  17.511  0.00  0.00    +0.000 C 
ATOM     29  C   UNL     1      -4.043  11.479  16.850  0.00  0.00    +0.000 C 
ATOM     30  C   UNL     1      -5.157  11.676  17.872  0.00  0.00    +0.000 C 
ATOM     31  N   UNL     1      -4.738  12.593  18.917  0.00  0.00    +0.000 NA
ATOM     32  H   UNL     1      -5.516  12.755  19.558  0.00  0.00    +0.000 HD
ENDBRANCH  25  26
ENDBRANCH  20  25
ENDBRANCH   1  21
TORSDOF 3
ENDMDL
MODEL 8
REMARK VINA RESULT:      -7.9      2.916      4.120
REMARK  Name = 
REMARK  4 active torsions:
REMARK  status: ('A' for Active; 'I' for Inactive)
REMARK    1  A    between atoms: C_1  and  C_2
REMARK    2  A    between atoms: C_2  and  N_3
REMARK    3  A    between atoms: C_2  and  C_25
REMARK    4  A    between atoms: C_4  and  C_6
REMARK                            x       y       z     vdW  Elec       q    Type
REMARK                         _______ _______ _______ _____ _____    ______ ____
ROOT
ATOM      1  C   UNL     1       2.129   7.087  18.862  0.00  0.00    +0.000 A 
ATOM      2  C   UNL     1       2.130   6.779  20.196  0.00  0.00    +0.000 A 
ATOM      3  C   UNL     1       1.783   7.711  21.241  0.00  0.00    +0.000 A 
ATOM      4  C   UNL     1       0.723   8.405  20.849  0.00  0.00    +0.000 A 
ATOM      5  N   UNL     1       0.870   9.106  19.660  0.00  0.00    +0.000 N 
ATOM      6  C   UNL     1       0.278  10.350  19.705  0.00  0.00    +0.000 A 
ATOM      7  O   UNL     1      -0.792  10.613  20.245  0.00  0.00    +0.000 OA
ATOM      8  C   UNL     1       1.121  11.399  19.196  0.00  0.00    +0.000 A 
ATOM      9  C   UNL     1       1.013  12.659  19.831  0.00  0.00    +0.000 A 
ATOM     10  C   UNL     1       1.749  13.752  19.408  0.00  0.00    +0.000 A 
ATOM     11  C   UNL     1       1.648  14.967  20.131  0.00  0.00    +0.000 A 
ATOM     12  C   UNL     1       2.270  16.122  19.684  0.00  0.00    +0.000 A 
ATOM     13  C   UNL     1       2.978  16.063  18.490  0.00  0.00    +0.000 A 
ATOM     14  C   UNL     1       3.119  14.832  17.795  0.00  0.00    +0.000 A 
ATOM     15  C   UNL     1       2.543  13.601  18.256  0.00  0.00    +0.000 A 
ATOM     16  C   UNL     1       2.697  12.229  17.690  0.00  0.00    +0.000 A 
ATOM     17  C   UNL     1       2.038  11.073  18.209  0.00  0.00    +0.000 A 
ATOM     18  N   UNL     1       2.325   9.638  17.873  0.00  0.00    +0.000 NA
ATOM     19  C   UNL     1       1.833   8.698  18.671  0.00  0.00    +0.000 A 
ENDROOT
BRANCH   1  21
ATOM     20  N   UNL     1       3.128   4.708  17.994  0.00  0.00    +0.000 N 
ATOM     21  C   UNL     1       2.265   5.705  18.174  0.00  0.00    +0.000 C 
ATOM     22  O   UNL     1       1.274   5.315  17.495  0.00  0.00    +0.000 OA
ATOM     23  H   UNL     1       2.610   4.028  17.462  0.00  0.00    +0.000 HD
BRANCH  20  25
ATOM     24  C   UNL     1       4.561   3.257  19.358  0.00  0.00    +0.000 C 
ATOM     25  C   UNL     1       4.507   4.269  18.184  0.00  0.00    +0.000 C 
BRANCH  25  26
ATOM     26  C   UNL     1       5.512   5.415  18.409  0.00  0.00    +0.000 C 
ATOM     27  C   UNL     1       5.802   6.303  17.178  0.00  0.00    +0.000 C 
ATOM     28  C   UNL     1       6.808   7.399  17.538  0.00  0.00    +0.000 C 
ATOM     29  C   UNL     1       8.046   6.805  18.198  0.00  0.00    +0.000 C 
ATOM     30  C   UNL     1       7.677   5.890  19.361  0.00  0.00    +0.000 C 
ATOM     31  N   UNL     1       6.762   4.851  18.925  0.00  0.00    +0.000 NA
ATOM     32  H   UNL     1       6.573   4.217  19.701  0.00  0.00    +0.000 HD
ENDBRANCH  25  26
ENDBRANCH  20  25
ENDBRANCH   1  21
TORSDOF 3
ENDMDL
MODEL 9
REMARK VINA RESULT:      -7.9      1.860      3.183
REMARK  Name = 
REMARK  4 active torsions:
REMARK  status: ('A' for Active; 'I' for Inactive)
REMARK    1  A    between atoms: C_1  and  C_2
REMARK    2  A    between atoms: C_2  and  N_3
REMARK    3  A    between atoms: C_2  and  C_25
REMARK    4  A    between atoms: C_4  and  C_6
REMARK                            x       y       z     vdW  Elec       q    Type
REMARK                         _______ _______ _______ _____ _____    ______ ____
ROOT
ATOM      1  C   UNL     1       1.475   8.080  19.921  0.00  0.00    +0.000 A 
ATOM      2  C   UNL     1       1.416   8.366  18.584  0.00  0.00    +0.000 A 
ATOM      3  C   UNL     1       1.022   9.646  18.048  0.00  0.00    +0.000 A 
ATOM      4  C   UNL     1       1.585  10.599  18.779  0.00  0.00    +0.000 A 
ATOM      5  N   UNL     1       1.284  10.573  20.134  0.00  0.00    +0.000 N 
ATOM      6  C   UNL     1       1.091  11.834  20.655  0.00  0.00    +0.000 A 
ATOM      7  O   UNL     1       1.740  12.834  20.364  0.00  0.00    +0.000 OA
ATOM      8  C   UNL     1      -0.085  11.936  21.477  0.00  0.00    +0.000 A 
ATOM      9  C   UNL     1      -0.784  13.164  21.428  0.00  0.00    +0.000 A 
ATOM     10  C   UNL     1      -1.911  13.391  22.199  0.00  0.00    +0.000 A 
ATOM     11  C   UNL     1      -2.608  14.617  22.050  0.00  0.00    +0.000 A 
ATOM     12  C   UNL     1      -3.670  14.944  22.878  0.00  0.00    +0.000 A 
ATOM     13  C   UNL     1      -4.020  14.044  23.878  0.00  0.00    +0.000 A 
ATOM     14  C   UNL     1      -3.354  12.795  23.990  0.00  0.00    +0.000 A 
ATOM     15  C   UNL     1      -2.291  12.393  23.115  0.00  0.00    +0.000 A 
ATOM     16  C   UNL     1      -1.580  11.082  23.051  0.00  0.00    +0.000 A 
ATOM     17  C   UNL     1      -0.498  10.803  22.160  0.00  0.00    +0.000 A 
ATOM     18  N   UNL     1       0.098   9.460  21.852  0.00  0.00    +0.000 NA
ATOM     19  C   UNL     1       0.879   9.353  20.782  0.00  0.00    +0.000 A 
ENDROOT
BRANCH   1  21
ATOM     20  N   UNL     1       2.934   5.897  19.203  0.00  0.00    +0.000 N 
ATOM     21  C   UNL     1       2.226   6.725  19.966  0.00  0.00    +0.000 C 
ATOM     22  O   UNL     1       2.181   6.094  21.059  0.00  0.00    +0.000 OA
ATOM     23  H   UNL     1       3.204   5.155  19.827  0.00  0.00    +0.000 HD
BRANCH  20  25
ATOM     24  C   UNL     1       2.824   4.229  17.406  0.00  0.00    +0.000 C 
ATOM     25  C   UNL     1       3.382   5.610  17.843  0.00  0.00    +0.000 C 
BRANCH  25  26
ATOM     26  C   UNL     1       4.909   5.662  17.654  0.00  0.00    +0.000 C 
ATOM     27  C   UNL     1       5.471   4.813  16.492  0.00  0.00    +0.000 C 
ATOM     28  C   UNL     1       6.993   4.957  16.414  0.00  0.00    +0.000 C 
ATOM     29  C   UNL     1       7.636   4.684  17.768  0.00  0.00    +0.000 C 
ATOM     30  C   UNL     1       6.986   5.509  18.873  0.00  0.00    +0.000 C 
ATOM     31  N   UNL     1       5.553   5.277  18.912  0.00  0.00    +0.000 NA
ATOM     32  H   UNL     1       5.146   5.792  19.693  0.00  0.00    +0.000 HD
ENDBRANCH  25  26
ENDBRANCH  20  25
ENDBRANCH   1  21
TORSDOF 3
ENDMDL
