MODEL 1
REMARK VINA RESULT:      -8.7      0.000      0.000
REMARK  Name = 
REMARK  7 active torsions:
REMARK  status: ('A' for Active; 'I' for Inactive)
REMARK    1  A    between atoms: C_2  and  C_3
REMARK    2  A    between atoms: C_3  and  N_4
REMARK    3  A    between atoms: C_8  and  C_9
REMARK    4  A    between atoms: C_9  and  C_10
REMARK    5  A    between atoms: N_21  and  C_22
REMARK    6  A    between atoms: C_22  and  C_23
REMARK    7  A    between atoms: C_23  and  C_24
REMARK                            x       y       z     vdW  Elec       q    Type
REMARK                         _______ _______ _______ _____ _____    ______ ____
ROOT
ATOM      1  N   UNL     1       3.372   3.645  19.692  0.00  0.00    +0.000 N 
ATOM      2  C   UNL     1       3.028   2.493  19.059  0.00  0.00    +0.000 C 
ATOM      3  O   UNL     1       2.166   1.693  19.386  0.00  0.00    +0.000 OA
ATOM      4  N   UNL     1       3.798   2.375  17.927  0.00  0.00    +0.000 N 
ATOM      5  C   UNL     1       4.680   3.504  17.735  0.00  0.00    +0.000 C 
ATOM      6  C   UNL     1       4.363   4.290  19.009  0.00  0.00    +0.000 C 
ATOM      7  O   UNL     1       4.884   5.350  19.333  0.00  0.00    +0.000 OA
ATOM      8  H   UNL     1       3.730   1.573  17.312  0.00  0.00    +0.000 HD
ENDROOT
BRANCH   1   9
ATOM      9  C   UNL     1       2.794   4.104  20.938  0.00  0.00    +0.000 C 
BRANCH   9  11
ATOM     10  O   UNL     1       0.590   5.016  20.459  0.00  0.00    +0.000 OA
ATOM     11  C   UNL     1       1.780   5.224  20.680  0.00  0.00    +0.000 C 
ATOM     12  N   UNL     1       2.328   6.498  20.663  0.00  0.00    +0.000 N 
ATOM     13  H   UNL     1       3.277   6.637  20.986  0.00  0.00    +0.000 HD
BRANCH  12  14
ATOM     14  C   UNL     1       1.477   7.659  20.438  0.00  0.00    +0.000 C 
BRANCH  14  15
ATOM     15  C   UNL     1       1.009   8.327  21.734  0.00  0.00    +0.000 C 
BRANCH  15  16
ATOM     16  C   UNL     1       0.194   9.573  21.478  0.00  0.00    +0.000 A 
ATOM     17  C   UNL     1      -0.247  10.364  22.550  0.00  0.00    +0.000 A 
ATOM     18  C   UNL     1      -1.029  11.499  22.323  0.00  0.00    +0.000 A 
ATOM     19  C   UNL     1      -1.381  11.857  21.024  0.00  0.00    +0.000 A 
ATOM     20  C   UNL     1      -0.946  11.084  19.950  0.00  0.00    +0.000 A 
ATOM     21  C   UNL     1      -0.162   9.948  20.175  0.00  0.00    +0.000 A 
ENDBRANCH  15  16
ENDBRANCH  14  15
ENDBRANCH  12  14
ENDBRANCH   9  11
ENDBRANCH   1   9
BRANCH   5  22
ATOM     22  C   UNL     1       4.348   4.348  16.501  0.00  0.00    +0.000 C 
BRANCH  22  23
ATOM     23  C   UNL     1       5.561   4.763  15.722  0.00  0.00    +0.000 A 
ATOM     24  C   UNL     1       6.600   5.554  16.171  0.00  0.00    +0.000 A 
ATOM     25  N   UNL     1       7.531   5.655  15.171  0.00  0.00    +0.000 N 
ATOM     26  C   UNL     1       7.128   4.934  14.070  0.00  0.00    +0.000 A 
ATOM     27  C   UNL     1       7.774   4.716  12.848  0.00  0.00    +0.000 A 
ATOM     28  C   UNL     1       7.114   3.934  11.896  0.00  0.00    +0.000 A 
ATOM     29  C   UNL     1       5.846   3.418  12.148  0.00  0.00    +0.000 A 
ATOM     30  C   UNL     1       5.213   3.649  13.375  0.00  0.00    +0.000 A 
ATOM     31  C   UNL     1       5.873   4.403  14.368  0.00  0.00    +0.000 A 
ATOM     32  H   UNL     1       8.397   6.172  15.228  0.00  0.00    +0.000 HD
ENDBRANCH  22  23
ENDBRANCH   5  22
TORSDOF 7
ENDMDL
MODEL 2
REMARK VINA RESULT:      -8.7      4.055      8.388
REMARK  Name = 
REMARK  7 active torsions:
REMARK  status: ('A' for Active; 'I' for Inactive)
REMARK    1  A    between atoms: C_2  and  C_3
REMARK    2  A    between atoms: C_3  and  N_4
REMARK    3  A    between atoms: C_8  and  C_9
REMARK    4  A    between atoms: C_9  and  C_10
REMARK    5  A    between atoms: N_21  and  C_22
REMARK    6  A    between atoms: C_22  and  C_23
REMARK    7  A    between atoms: C_23  and  C_24
REMARK                            x       y       z     vdW  Elec       q    Type
REMARK                         _______ _______ _______ _____ _____    ______ ____
ROOT
ATOM      1  N   UNL     1       5.049   5.064  18.293  0.00  0.00    +0.000 N 
ATOM      2  C   UNL     1       4.383   4.176  19.075  0.00  0.00    +0.000 C 
ATOM      3  O   UNL     1       4.809   3.133  19.547  0.00  0.00    +0.000 OA
ATOM      4  N   UNL     1       3.116   4.661  19.299  0.00  0.00    +0.000 N 
ATOM      5  C   UNL     1       2.902   5.954  18.692  0.00  0.00    +0.000 C 
ATOM      6  C   UNL     1       4.248   6.126  17.984  0.00  0.00    +0.000 C 
ATOM      7  O   UNL     1       4.565   7.087  17.293  0.00  0.00    +0.000 OA
ATOM      8  H   UNL     1       2.431   4.145  19.838  0.00  0.00    +0.000 HD
ENDROOT
BRANCH   1   9
ATOM      9  C   UNL     1       6.408   4.890  17.822  0.00  0.00    +0.000 C 
BRANCH   9  11
ATOM     10  O   UNL     1       7.836   5.533  19.684  0.00  0.00    +0.000 OA
ATOM     11  C   UNL     1       7.364   5.813  18.585  0.00  0.00    +0.000 C 
ATOM     12  N   UNL     1       7.613   7.023  17.955  0.00  0.00    +0.000 N 
ATOM     13  H   UNL     1       7.321   7.156  16.996  0.00  0.00    +0.000 HD
BRANCH  12  14
ATOM     14  C   UNL     1       8.513   7.995  18.564  0.00  0.00    +0.000 C 
BRANCH  14  15
ATOM     15  C   UNL     1       8.276   9.427  18.076  0.00  0.00    +0.000 C 
BRANCH  15  16
ATOM     16  C   UNL     1       9.269  10.406  18.657  0.00  0.00    +0.000 A 
ATOM     17  C   UNL     1      10.150  11.106  17.818  0.00  0.00    +0.000 A 
ATOM     18  C   UNL     1      11.092  11.988  18.352  0.00  0.00    +0.000 A 
ATOM     19  C   UNL     1      11.167  12.181  19.730  0.00  0.00    +0.000 A 
ATOM     20  C   UNL     1      10.296  11.497  20.574  0.00  0.00    +0.000 A 
ATOM     21  C   UNL     1       9.351  10.614  20.042  0.00  0.00    +0.000 A 
ENDBRANCH  15  16
ENDBRANCH  14  15
ENDBRANCH  12  14
ENDBRANCH   9  11
ENDBRANCH   1   9
BRANCH   5  22
ATOM     22  C   UNL     1       2.692   7.087  19.702  0.00  0.00    +0.000 C 
BRANCH  22  23
ATOM     23  C   UNL     1       1.886   8.227  19.155  0.00  0.00    +0.000 A 
ATOM     24  C   UNL     1       1.790   8.611  17.831  0.00  0.00    +0.000 A 
ATOM     25  N   UNL     1       0.918   9.664  17.748  0.00  0.00    +0.000 N 
ATOM     26  C   UNL     1       0.428   9.977  18.996  0.00  0.00    +0.000 A 
ATOM     27  C   UNL     1      -0.511  10.941  19.381  0.00  0.00    +0.000 A 
ATOM     28  C   UNL     1      -0.818  11.040  20.741  0.00  0.00    +0.000 A 
ATOM     29  C   UNL     1      -0.185  10.229  21.679  0.00  0.00    +0.000 A 
ATOM     30  C   UNL     1       0.755   9.272  21.276  0.00  0.00    +0.000 A 
ATOM     31  C   UNL     1       1.054   9.124  19.905  0.00  0.00    +0.000 A 
ATOM     32  H   UNL     1       0.657  10.142  16.897  0.00  0.00    +0.000 HD
ENDBRANCH  22  23
ENDBRANCH   5  22
TORSDOF 7
ENDMDL
MODEL 3
REMARK VINA RESULT:      -8.5      2.330      7.776
REMARK  Name = 
REMARK  7 active torsions:
REMARK  status: ('A' for Active; 'I' for Inactive)
REMARK    1  A    between atoms: C_2  and  C_3
REMARK    2  A    between atoms: C_3  and  N_4
REMARK    3  A    between atoms: C_8  and  C_9
REMARK    4  A    between atoms: C_9  and  C_10
REMARK    5  A    between atoms: N_21  and  C_22
REMARK    6  A    between atoms: C_22  and  C_23
REMARK    7  A    between atoms: C_23  and  C_24
REMARK                            x       y       z     vdW  Elec       q    Type
REMARK                         _______ _______ _______ _____ _____    ______ ____
ROOT
ATOM      1  N   UNL     1       2.106   3.363  19.713  0.00  0.00    +0.000 N 
ATOM      2  C   UNL     1       2.480   3.573  21.002  0.00  0.00    +0.000 C 
ATOM      3  O   UNL     1       2.948   2.760  21.783  0.00  0.00    +0.000 OA
ATOM      4  N   UNL     1       2.283   4.901  21.299  0.00  0.00    +0.000 N 
ATOM      5  C   UNL     1       1.797   5.656  20.167  0.00  0.00    +0.000 C 
ATOM      6  C   UNL     1       1.654   4.522  19.150  0.00  0.00    +0.000 C 
ATOM      7  O   UNL     1       1.245   4.650  18.002  0.00  0.00    +0.000 OA
ATOM      8  H   UNL     1       2.470   5.278  22.219  0.00  0.00    +0.000 HD
ENDROOT
BRANCH   1   9
ATOM      9  C   UNL     1       2.146   2.079  19.043  0.00  0.00    +0.000 C 
BRANCH   9  11
ATOM     10  O   UNL     1       4.097   0.955  18.124  0.00  0.00    +0.000 OA
ATOM     11  C   UNL     1       3.402   1.966  18.172  0.00  0.00    +0.000 C 
ATOM     12  N   UNL     1       3.722   3.124  17.479  0.00  0.00    +0.000 N 
ATOM     13  H   UNL     1       3.053   3.881  17.436  0.00  0.00    +0.000 HD
BRANCH  12  14
ATOM     14  C   UNL     1       4.888   3.156  16.604  0.00  0.00    +0.000 C 
BRANCH  14  15
ATOM     15  C   UNL     1       5.197   4.553  16.060  0.00  0.00    +0.000 C 
BRANCH  15  16
ATOM     16  C   UNL     1       6.137   5.326  16.955  0.00  0.00    +0.000 A 
ATOM     17  C   UNL     1       6.419   6.675  16.692  0.00  0.00    +0.000 A 
ATOM     18  C   UNL     1       7.313   7.386  17.497  0.00  0.00    +0.000 A 
ATOM     19  C   UNL     1       7.936   6.758  18.573  0.00  0.00    +0.000 A 
ATOM     20  C   UNL     1       7.661   5.421  18.849  0.00  0.00    +0.000 A 
ATOM     21  C   UNL     1       6.766   4.708  18.046  0.00  0.00    +0.000 A 
ENDBRANCH  15  16
ENDBRANCH  14  15
ENDBRANCH  12  14
ENDBRANCH   9  11
ENDBRANCH   1   9
BRANCH   5  22
ATOM     22  C   UNL     1       2.788   6.704  19.649  0.00  0.00    +0.000 C 
BRANCH  22  23
ATOM     23  C   UNL     1       2.122   7.946  19.135  0.00  0.00    +0.000 A 
ATOM     24  C   UNL     1       2.223   8.470  17.861  0.00  0.00    +0.000 A 
ATOM     25  N   UNL     1       1.426   9.582  17.786  0.00  0.00    +0.000 N 
ATOM     26  C   UNL     1       0.794   9.797  18.989  0.00  0.00    +0.000 A 
ATOM     27  C   UNL     1      -0.136  10.777  19.358  0.00  0.00    +0.000 A 
ATOM     28  C   UNL     1      -0.614  10.755  20.671  0.00  0.00    +0.000 A 
ATOM     29  C   UNL     1      -0.155   9.811  21.585  0.00  0.00    +0.000 A 
ATOM     30  C   UNL     1       0.778   8.840  21.200  0.00  0.00    +0.000 A 
ATOM     31  C   UNL     1       1.248   8.815  19.870  0.00  0.00    +0.000 A 
ATOM     32  H   UNL     1       1.306  10.162  16.968  0.00  0.00    +0.000 HD
ENDBRANCH  22  23
ENDBRANCH   5  22
TORSDOF 7
ENDMDL
MODEL 4
REMARK VINA RESULT:      -8.5      4.427      7.989
REMARK  Name = 
REMARK  7 active torsions:
REMARK  status: ('A' for Active; 'I' for Inactive)
REMARK    1  A    between atoms: C_2  and  C_3
REMARK    2  A    between atoms: C_3  and  N_4
REMARK    3  A    between atoms: C_8  and  C_9
REMARK    4  A    between atoms: C_9  and  C_10
REMARK    5  A    between atoms: N_21  and  C_22
REMARK    6  A    between atoms: C_22  and  C_23
REMARK    7  A    between atoms: C_23  and  C_24
REMARK                            x       y       z     vdW  Elec       q    Type
REMARK                         _______ _______ _______ _____ _____    ______ ____
ROOT
ATOM      1  N   UNL     1       6.330   5.042  17.787  0.00  0.00    +0.000 N 
ATOM      2  C   UNL     1       6.055   4.894  19.109  0.00  0.00    +0.000 C 
ATOM      3  O   UNL     1       6.682   5.346  20.054  0.00  0.00    +0.000 OA
ATOM      4  N   UNL     1       4.898   4.162  19.231  0.00  0.00    +0.000 N 
ATOM      5  C   UNL     1       4.318   3.824  17.952  0.00  0.00    +0.000 C 
ATOM      6  C   UNL     1       5.384   4.414  17.028  0.00  0.00    +0.000 C 
ATOM      7  O   UNL     1       5.362   4.368  15.803  0.00  0.00    +0.000 OA
ATOM      8  H   UNL     1       4.518   3.906  20.134  0.00  0.00    +0.000 HD
ENDROOT
BRANCH   1   9
ATOM      9  C   UNL     1       7.486   5.736  17.258  0.00  0.00    +0.000 C 
BRANCH   9  11
ATOM     10  O   UNL     1       6.316   7.832  16.864  0.00  0.00    +0.000 OA
ATOM     11  C   UNL     1       7.287   7.253  17.343  0.00  0.00    +0.000 C 
ATOM     12  N   UNL     1       8.325   7.932  17.964  0.00  0.00    +0.000 N 
ATOM     13  H   UNL     1       9.033   7.411  18.465  0.00  0.00    +0.000 HD
BRANCH  12  14
ATOM     14  C   UNL     1       8.264   9.379  18.123  0.00  0.00    +0.000 C 
BRANCH  14  15
ATOM     15  C   UNL     1       9.091   9.894  19.305  0.00  0.00    +0.000 C 
BRANCH  15  16
ATOM     16  C   UNL     1       9.973  11.060  18.926  0.00  0.00    +0.000 A 
ATOM     17  C   UNL     1       9.694  11.818  17.779  0.00  0.00    +0.000 A 
ATOM     18  C   UNL     1      10.524  12.878  17.405  0.00  0.00    +0.000 A 
ATOM     19  C   UNL     1      11.644  13.192  18.172  0.00  0.00    +0.000 A 
ATOM     20  C   UNL     1      11.930  12.452  19.316  0.00  0.00    +0.000 A 
ATOM     21  C   UNL     1      11.100  11.391  19.693  0.00  0.00    +0.000 A 
ENDBRANCH  15  16
ENDBRANCH  14  15
ENDBRANCH  12  14
ENDBRANCH   9  11
ENDBRANCH   1   9
BRANCH   5  22
ATOM     22  C   UNL     1       2.965   4.494  17.688  0.00  0.00    +0.000 C 
BRANCH  22  23
ATOM     23  C   UNL     1       2.480   5.325  18.839  0.00  0.00    +0.000 A 
ATOM     24  C   UNL     1       2.245   4.891  20.129  0.00  0.00    +0.000 A 
ATOM     25  N   UNL     1       1.859   5.966  20.884  0.00  0.00    +0.000 N 
ATOM     26  C   UNL     1       1.843   7.107  20.115  0.00  0.00    +0.000 A 
ATOM     27  C   UNL     1       1.557   8.431  20.470  0.00  0.00    +0.000 A 
ATOM     28  C   UNL     1       1.614   9.399  19.462  0.00  0.00    +0.000 A 
ATOM     29  C   UNL     1       1.914   9.048  18.149  0.00  0.00    +0.000 A 
ATOM     30  C   UNL     1       2.194   7.719  17.811  0.00  0.00    +0.000 A 
ATOM     31  C   UNL     1       2.181   6.728  18.816  0.00  0.00    +0.000 A 
ATOM     32  H   UNL     1       1.627   5.938  21.867  0.00  0.00    +0.000 HD
ENDBRANCH  22  23
ENDBRANCH   5  22
TORSDOF 7
ENDMDL
MODEL 5
REMARK VINA RESULT:      -8.3      1.007      1.551
REMARK  Name = 
REMARK  7 active torsions:
REMARK  status: ('A' for Active; 'I' for Inactive)
REMARK    1  A    between atoms: C_2  and  C_3
REMARK    2  A    between atoms: C_3  and  N_4
REMARK    3  A    between atoms: C_8  and  C_9
REMARK    4  A    between atoms: C_9  and  C_10
REMARK    5  A    between atoms: N_21  and  C_22
REMARK    6  A    between atoms: C_22  and  C_23
REMARK    7  A    between atoms: C_23  and  C_24
REMARK                            x       y       z     vdW  Elec       q    Type
REMARK                         _______ _______ _______ _____ _____    ______ ____
ROOT
ATOM      1  N   UNL     1       3.466   2.654  19.354  0.00  0.00    +0.000 N 
ATOM      2  C   UNL     1       2.567   2.209  18.439  0.00  0.00    +0.000 C 
ATOM      3  O   UNL     1       1.474   1.707  18.652  0.00  0.00    +0.000 OA
ATOM      4  N   UNL     1       3.070   2.453  17.183  0.00  0.00    +0.000 N 
ATOM      5  C   UNL     1       4.345   3.132  17.219  0.00  0.00    +0.000 C 
ATOM      6  C   UNL     1       4.563   3.179  18.733  0.00  0.00    +0.000 C 
ATOM      7  O   UNL     1       5.544   3.656  19.291  0.00  0.00    +0.000 OA
ATOM      8  H   UNL     1       2.576   2.177  16.344  0.00  0.00    +0.000 HD
ENDROOT
BRANCH   1   9
ATOM      9  C   UNL     1       3.301   2.550  20.790  0.00  0.00    +0.000 C 
BRANCH   9  11
ATOM     10  O   UNL     1       1.591   3.482  22.246  0.00  0.00    +0.000 OA
ATOM     11  C   UNL     1       2.361   3.645  21.303  0.00  0.00    +0.000 C 
ATOM     12  N   UNL     1       2.410   4.826  20.578  0.00  0.00    +0.000 N 
ATOM     13  H   UNL     1       3.150   4.967  19.903  0.00  0.00    +0.000 HD
BRANCH  12  14
ATOM     14  C   UNL     1       1.575   5.957  20.962  0.00  0.00    +0.000 C 
BRANCH  14  15
ATOM     15  C   UNL     1       1.956   7.259  20.251  0.00  0.00    +0.000 C 
BRANCH  15  16
ATOM     16  C   UNL     1       1.176   8.446  20.765  0.00  0.00    +0.000 A 
ATOM     17  C   UNL     1       0.792   9.475  19.892  0.00  0.00    +0.000 A 
ATOM     18  C   UNL     1       0.099  10.592  20.367  0.00  0.00    +0.000 A 
ATOM     19  C   UNL     1      -0.217  10.694  21.719  0.00  0.00    +0.000 A 
ATOM     20  C   UNL     1       0.153   9.678  22.597  0.00  0.00    +0.000 A 
ATOM     21  C   UNL     1       0.846   8.559  22.123  0.00  0.00    +0.000 A 
ENDBRANCH  15  16
ENDBRANCH  14  15
ENDBRANCH  12  14
ENDBRANCH   9  11
ENDBRANCH   1   9
BRANCH   5  22
ATOM     22  C   UNL     1       4.307   4.554  16.650  0.00  0.00    +0.000 C 
BRANCH  22  23
ATOM     23  C   UNL     1       5.526   4.906  15.850  0.00  0.00    +0.000 A 
ATOM     24  C   UNL     1       6.597   5.672  16.269  0.00  0.00    +0.000 A 
ATOM     25  N   UNL     1       7.520   5.714  15.258  0.00  0.00    +0.000 N 
ATOM     26  C   UNL     1       7.081   4.980  14.180  0.00  0.00    +0.000 A 
ATOM     27  C   UNL     1       7.707   4.708  12.958  0.00  0.00    +0.000 A 
ATOM     28  C   UNL     1       7.010   3.926  12.032  0.00  0.00    +0.000 A 
ATOM     29  C   UNL     1       5.728   3.462  12.309  0.00  0.00    +0.000 A 
ATOM     30  C   UNL     1       5.116   3.745  13.536  0.00  0.00    +0.000 A 
ATOM     31  C   UNL     1       5.811   4.501  14.503  0.00  0.00    +0.000 A 
ATOM     32  H   UNL     1       8.404   6.202  15.293  0.00  0.00    +0.000 HD
ENDBRANCH  22  23
ENDBRANCH   5  22
TORSDOF 7
ENDMDL
MODEL 6
REMARK VINA RESULT:      -8.1      1.044      1.577
REMARK  Name = 
REMARK  7 active torsions:
REMARK  status: ('A' for Active; 'I' for Inactive)
REMARK    1  A    between atoms: C_2  and  C_3
REMARK    2  A    between atoms: C_3  and  N_4
REMARK    3  A    between atoms: C_8  and  C_9
REMARK    4  A    between atoms: C_9  and  C_10
REMARK    5  A    between atoms: N_21  and  C_22
REMARK    6  A    between atoms: C_22  and  C_23
REMARK    7  A    between atoms: C_23  and  C_24
REMARK                            x       y       z     vdW  Elec       q    Type
REMARK                         _______ _______ _______ _____ _____    ______ ____
ROOT
ATOM      1  N   UNL     1       3.472   3.127  19.291  0.00  0.00    +0.000 N 
ATOM      2  C   UNL     1       2.752   2.506  18.322  0.00  0.00    +0.000 C 
ATOM      3  O   UNL     1       1.675   1.943  18.440  0.00  0.00    +0.000 OA
ATOM      4  N   UNL     1       3.423   2.641  17.130  0.00  0.00    +0.000 N 
ATOM      5  C   UNL     1       4.631   3.423  17.260  0.00  0.00    +0.000 C 
ATOM      6  C   UNL     1       4.614   3.665  18.770  0.00  0.00    +0.000 C 
ATOM      7  O   UNL     1       5.466   4.284  19.397  0.00  0.00    +0.000 OA
ATOM      8  H   UNL     1       3.081   2.229  16.271  0.00  0.00    +0.000 HD
ENDROOT
BRANCH   1   9
ATOM      9  C   UNL     1       3.098   3.179  20.690  0.00  0.00    +0.000 C 
BRANCH   9  11
ATOM     10  O   UNL     1       0.753   3.749  20.998  0.00  0.00    +0.000 OA
ATOM     11  C   UNL     1       1.916   4.132  20.895  0.00  0.00    +0.000 C 
ATOM     12  N   UNL     1       2.260   5.476  20.903  0.00  0.00    +0.000 N 
ATOM     13  H   UNL     1       3.235   5.740  20.956  0.00  0.00    +0.000 HD
BRANCH  12  14
ATOM     14  C   UNL     1       1.236   6.494  21.099  0.00  0.00    +0.000 C 
BRANCH  14  15
ATOM     15  C   UNL     1       1.795   7.920  21.109  0.00  0.00    +0.000 C 
BRANCH  15  16
ATOM     16  C   UNL     1       1.051   8.837  20.167  0.00  0.00    +0.000 A 
ATOM     17  C   UNL     1       1.490   9.003  18.844  0.00  0.00    +0.000 A 
ATOM     18  C   UNL     1       0.827   9.874  17.977  0.00  0.00    +0.000 A 
ATOM     19  C   UNL     1      -0.282  10.591  18.421  0.00  0.00    +0.000 A 
ATOM     20  C   UNL     1      -0.733  10.432  19.729  0.00  0.00    +0.000 A 
ATOM     21  C   UNL     1      -0.071   9.559  20.598  0.00  0.00    +0.000 A 
ENDBRANCH  15  16
ENDBRANCH  14  15
ENDBRANCH  12  14
ENDBRANCH   9  11
ENDBRANCH   1   9
BRANCH   5  22
ATOM     22  C   UNL     1       4.588   4.761  16.513  0.00  0.00    +0.000 C 
BRANCH  22  23
ATOM     23  C   UNL     1       5.750   4.962  15.588  0.00  0.00    +0.000 A 
ATOM     24  C   UNL     1       6.911   5.660  15.860  0.00  0.00    +0.000 A 
ATOM     25  N   UNL     1       7.738   5.565  14.771  0.00  0.00    +0.000 N 
ATOM     26  C   UNL     1       7.145   4.807  13.787  0.00  0.00    +0.000 A 
ATOM     27  C   UNL     1       7.633   4.413  12.536  0.00  0.00    +0.000 A 
ATOM     28  C   UNL     1       6.795   3.637  11.729  0.00  0.00    +0.000 A 
ATOM     29  C   UNL     1       5.511   3.298  12.147  0.00  0.00    +0.000 A 
ATOM     30  C   UNL     1       5.039   3.704  13.401  0.00  0.00    +0.000 A 
ATOM     31  C   UNL     1       5.878   4.455  14.251  0.00  0.00    +0.000 A 
ATOM     32  H   UNL     1       8.656   5.979  14.697  0.00  0.00    +0.000 HD
ENDBRANCH  22  23
ENDBRANCH   5  22
TORSDOF 7
ENDMDL
MODEL 7
REMARK VINA RESULT:      -8.1      2.412      7.716
REMARK  Name = 
REMARK  7 active torsions:
REMARK  status: ('A' for Active; 'I' for Inactive)
REMARK    1  A    between atoms: C_2  and  C_3
REMARK    2  A    between atoms: C_3  and  N_4
REMARK    3  A    between atoms: C_8  and  C_9
REMARK    4  A    between atoms: C_9  and  C_10
REMARK    5  A    between atoms: N_21  and  C_22
REMARK    6  A    between atoms: C_22  and  C_23
REMARK    7  A    between atoms: C_23  and  C_24
REMARK                            x       y       z     vdW  Elec       q    Type
REMARK                         _______ _______ _______ _____ _____    ______ ____
ROOT
ATOM      1  N   UNL     1       2.097   3.454  19.868  0.00  0.00    +0.000 N 
ATOM      2  C   UNL     1       2.318   3.687  21.187  0.00  0.00    +0.000 C 
ATOM      3  O   UNL     1       2.709   2.893  22.028  0.00  0.00    +0.000 OA
ATOM      4  N   UNL     1       2.062   5.014  21.441  0.00  0.00    +0.000 N 
ATOM      5  C   UNL     1       1.693   5.745  20.251  0.00  0.00    +0.000 C 
ATOM      6  C   UNL     1       1.690   4.596  19.240  0.00  0.00    +0.000 C 
ATOM      7  O   UNL     1       1.412   4.702  18.051  0.00  0.00    +0.000 OA
ATOM      8  H   UNL     1       2.134   5.406  22.371  0.00  0.00    +0.000 HD
ENDROOT
BRANCH   1   9
ATOM      9  C   UNL     1       2.239   2.164  19.224  0.00  0.00    +0.000 C 
BRANCH   9  11
ATOM     10  O   UNL     1       2.499   1.876  16.823  0.00  0.00    +0.000 OA
ATOM     11  C   UNL     1       2.955   2.310  17.878  0.00  0.00    +0.000 C 
ATOM     12  N   UNL     1       4.193   2.931  17.953  0.00  0.00    +0.000 N 
ATOM     13  H   UNL     1       4.467   3.395  18.809  0.00  0.00    +0.000 HD
BRANCH  12  14
ATOM     14  C   UNL     1       4.981   3.146  16.746  0.00  0.00    +0.000 C 
BRANCH  14  15
ATOM     15  C   UNL     1       4.989   4.604  16.280  0.00  0.00    +0.000 C 
BRANCH  15  16
ATOM     16  C   UNL     1       6.027   5.433  16.999  0.00  0.00    +0.000 A 
ATOM     17  C   UNL     1       6.912   4.831  17.907  0.00  0.00    +0.000 A 
ATOM     18  C   UNL     1       7.853   5.597  18.599  0.00  0.00    +0.000 A 
ATOM     19  C   UNL     1       7.921   6.973  18.394  0.00  0.00    +0.000 A 
ATOM     20  C   UNL     1       7.053   7.583  17.491  0.00  0.00    +0.000 A 
ATOM     21  C   UNL     1       6.111   6.818  16.796  0.00  0.00    +0.000 A 
ENDBRANCH  15  16
ENDBRANCH  14  15
ENDBRANCH  12  14
ENDBRANCH   9  11
ENDBRANCH   1   9
BRANCH   5  22
ATOM     22  C   UNL     1       2.715   6.808  19.834  0.00  0.00    +0.000 C 
BRANCH  22  23
ATOM     23  C   UNL     1       2.091   8.016  19.201  0.00  0.00    +0.000 A 
ATOM     24  C   UNL     1       2.249   8.439  17.895  0.00  0.00    +0.000 A 
ATOM     25  N   UNL     1       1.474   9.552  17.705  0.00  0.00    +0.000 N 
ATOM     26  C   UNL     1       0.800   9.868  18.863  0.00  0.00    +0.000 A 
ATOM     27  C   UNL     1      -0.127  10.885  19.118  0.00  0.00    +0.000 A 
ATOM     28  C   UNL     1      -0.655  10.972  20.410  0.00  0.00    +0.000 A 
ATOM     29  C   UNL     1      -0.246  10.094  21.410  0.00  0.00    +0.000 A 
ATOM     30  C   UNL     1       0.684   9.084  21.137  0.00  0.00    +0.000 A 
ATOM     31  C   UNL     1       1.203   8.950  19.833  0.00  0.00    +0.000 A 
ATOM     32  H   UNL     1       1.395  10.069  16.840  0.00  0.00    +0.000 HD
ENDBRANCH  22  23
ENDBRANCH   5  22
TORSDOF 7
ENDMDL
MODEL 8
REMARK VINA RESULT:      -8.1      1.964      8.546
REMARK  Name = 
REMARK  7 active torsions:
REMARK  status: ('A' for Active; 'I' for Inactive)
REMARK    1  A    between atoms: C_2  and  C_3
REMARK    2  A    between atoms: C_3  and  N_4
REMARK    3  A    between atoms: C_8  and  C_9
REMARK    4  A    between atoms: C_9  and  C_10
REMARK    5  A    between atoms: N_21  and  C_22
REMARK    6  A    between atoms: C_22  and  C_23
REMARK    7  A    between atoms: C_23  and  C_24
REMARK                            x       y       z     vdW  Elec       q    Type
REMARK                         _______ _______ _______ _____ _____    ______ ____
ROOT
ATOM      1  N   UNL     1       2.811   4.011  20.023  0.00  0.00    +0.000 N 
ATOM      2  C   UNL     1       1.575   3.702  20.494  0.00  0.00    +0.000 C 
ATOM      3  O   UNL     1       1.185   2.622  20.909  0.00  0.00    +0.000 OA
ATOM      4  N   UNL     1       0.804   4.840  20.469  0.00  0.00    +0.000 N 
ATOM      5  C   UNL     1       1.539   5.997  20.007  0.00  0.00    +0.000 C 
ATOM      6  C   UNL     1       2.875   5.330  19.676  0.00  0.00    +0.000 C 
ATOM      7  O   UNL     1       3.856   5.904  19.218  0.00  0.00    +0.000 OA
ATOM      8  H   UNL     1      -0.168   4.838  20.751  0.00  0.00    +0.000 HD
ENDROOT
BRANCH   1   9
ATOM      9  C   UNL     1       3.896   3.064  19.876  0.00  0.00    +0.000 C 
BRANCH   9  11
ATOM     10  O   UNL     1       3.716   1.694  17.874  0.00  0.00    +0.000 OA
ATOM     11  C   UNL     1       4.120   2.729  18.398  0.00  0.00    +0.000 C 
ATOM     12  N   UNL     1       4.866   3.670  17.705  0.00  0.00    +0.000 N 
ATOM     13  H   UNL     1       5.059   4.567  18.132  0.00  0.00    +0.000 HD
BRANCH  12  14
ATOM     14  C   UNL     1       5.148   3.484  16.287  0.00  0.00    +0.000 C 
BRANCH  14  15
ATOM     15  C   UNL     1       6.471   4.116  15.845  0.00  0.00    +0.000 C 
BRANCH  15  16
ATOM     16  C   UNL     1       6.994   5.119  16.846  0.00  0.00    +0.000 A 
ATOM     17  C   UNL     1       6.919   6.494  16.578  0.00  0.00    +0.000 A 
ATOM     18  C   UNL     1       7.431   7.426  17.485  0.00  0.00    +0.000 A 
ATOM     19  C   UNL     1       8.024   6.994  18.669  0.00  0.00    +0.000 A 
ATOM     20  C   UNL     1       8.100   5.633  18.951  0.00  0.00    +0.000 A 
ATOM     21  C   UNL     1       7.588   4.698  18.045  0.00  0.00    +0.000 A 
ENDBRANCH  15  16
ENDBRANCH  14  15
ENDBRANCH  12  14
ENDBRANCH   9  11
ENDBRANCH   1   9
BRANCH   5  22
ATOM     22  C   UNL     1       1.740   7.072  21.080  0.00  0.00    +0.000 C 
BRANCH  22  23
ATOM     23  C   UNL     1       1.245   8.425  20.664  0.00  0.00    +0.000 A 
ATOM     24  C   UNL     1       1.447   9.039  19.442  0.00  0.00    +0.000 A 
ATOM     25  N   UNL     1       0.793  10.242  19.449  0.00  0.00    +0.000 N 
ATOM     26  C   UNL     1       0.154  10.430  20.654  0.00  0.00    +0.000 A 
ATOM     27  C   UNL     1      -0.662  11.482  21.087  0.00  0.00    +0.000 A 
ATOM     28  C   UNL     1      -1.178  11.409  22.384  0.00  0.00    +0.000 A 
ATOM     29  C   UNL     1      -0.864  10.342  23.221  0.00  0.00    +0.000 A 
ATOM     30  C   UNL     1      -0.044   9.300  22.771  0.00  0.00    +0.000 A 
ATOM     31  C   UNL     1       0.460   9.330  21.454  0.00  0.00    +0.000 A 
ATOM     32  H   UNL     1       0.769  10.899  18.682  0.00  0.00    +0.000 HD
ENDBRANCH  22  23
ENDBRANCH   5  22
TORSDOF 7
ENDMDL
MODEL 9
REMARK VINA RESULT:      -8.0      4.775      8.076
REMARK  Name = 
REMARK  7 active torsions:
REMARK  status: ('A' for Active; 'I' for Inactive)
REMARK    1  A    between atoms: C_2  and  C_3
REMARK    2  A    between atoms: C_3  and  N_4
REMARK    3  A    between atoms: C_8  and  C_9
REMARK    4  A    between atoms: C_9  and  C_10
REMARK    5  A    between atoms: N_21  and  C_22
REMARK    6  A    between atoms: C_22  and  C_23
REMARK    7  A    between atoms: C_23  and  C_24
REMARK                            x       y       z     vdW  Elec       q    Type
REMARK                         _______ _______ _______ _____ _____    ______ ____
ROOT
ATOM      1  N   UNL     1       6.455   5.462  17.540  0.00  0.00    +0.000 N 
ATOM      2  C   UNL     1       7.065   4.430  16.903  0.00  0.00    +0.000 C 
ATOM      3  O   UNL     1       8.183   3.983  17.110  0.00  0.00    +0.000 OA
ATOM      4  N   UNL     1       6.189   3.913  15.979  0.00  0.00    +0.000 N 
ATOM      5  C   UNL     1       4.906   4.577  15.999  0.00  0.00    +0.000 C 
ATOM      6  C   UNL     1       5.195   5.650  17.051  0.00  0.00    +0.000 C 
ATOM      7  O   UNL     1       4.401   6.507  17.423  0.00  0.00    +0.000 OA
ATOM      8  H   UNL     1       6.444   3.149  15.366  0.00  0.00    +0.000 HD
ENDROOT
BRANCH   1   9
ATOM      9  C   UNL     1       7.072   6.275  18.569  0.00  0.00    +0.000 C 
BRANCH   9  11
ATOM     10  O   UNL     1       7.840   7.680  16.739  0.00  0.00    +0.000 OA
ATOM     11  C   UNL     1       7.752   7.500  17.951  0.00  0.00    +0.000 C 
ATOM     12  N   UNL     1       8.312   8.370  18.875  0.00  0.00    +0.000 N 
ATOM     13  H   UNL     1       8.098   8.260  19.857  0.00  0.00    +0.000 HD
BRANCH  12  14
ATOM     14  C   UNL     1       8.983   9.584  18.426  0.00  0.00    +0.000 C 
BRANCH  14  15
ATOM     15  C   UNL     1       9.584  10.402  19.573  0.00  0.00    +0.000 C 
BRANCH  15  16
ATOM     16  C   UNL     1      10.420  11.559  19.079  0.00  0.00    +0.000 A 
ATOM     17  C   UNL     1      10.118  12.183  17.859  0.00  0.00    +0.000 A 
ATOM     18  C   UNL     1      10.907  13.232  17.381  0.00  0.00    +0.000 A 
ATOM     19  C   UNL     1      12.007  13.670  18.114  0.00  0.00    +0.000 A 
ATOM     20  C   UNL     1      12.315  13.063  19.330  0.00  0.00    +0.000 A 
ATOM     21  C   UNL     1      11.526  12.014  19.811  0.00  0.00    +0.000 A 
ENDBRANCH  15  16
ENDBRANCH  14  15
ENDBRANCH  12  14
ENDBRANCH   9  11
ENDBRANCH   1   9
BRANCH   5  22
ATOM     22  C   UNL     1       3.752   3.683  16.465  0.00  0.00    +0.000 C 
BRANCH  22  23
ATOM     23  C   UNL     1       3.878   3.248  17.895  0.00  0.00    +0.000 A 
ATOM     24  C   UNL     1       4.944   2.575  18.462  0.00  0.00    +0.000 A 
ATOM     25  N   UNL     1       4.688   2.409  19.798  0.00  0.00    +0.000 N 
ATOM     26  C   UNL     1       3.475   2.970  20.124  0.00  0.00    +0.000 A 
ATOM     27  C   UNL     1       2.835   3.076  21.365  0.00  0.00    +0.000 A 
ATOM     28  C   UNL     1       1.585   3.701  21.397  0.00  0.00    +0.000 A 
ATOM     29  C   UNL     1       0.988   4.171  20.231  0.00  0.00    +0.000 A 
ATOM     30  C   UNL     1       1.642   4.053  18.998  0.00  0.00    +0.000 A 
ATOM     31  C   UNL     1       2.921   3.461  18.942  0.00  0.00    +0.000 A 
ATOM     32  H   UNL     1       5.301   1.952  20.458  0.00  0.00    +0.000 HD
ENDBRANCH  22  23
ENDBRANCH   5  22
TORSDOF 7
ENDMDL
