MODEL 1
REMARK VINA RESULT:      -7.5      0.000      0.000
REMARK  Name = 
REMARK  13 active torsions:
REMARK  status: ('A' for Active; 'I' for Inactive)
REMARK    1  A    between atoms: C_1  and  C_2
REMARK    2  A    between atoms: N_4  and  C_5
REMARK    3  A    between atoms: C_6  and  C_7
REMARK    4  A    between atoms: C_8  and  N_9
REMARK    5  A    between atoms: N_9  and  S_10
REMARK    6  A    between atoms: S_10  and  C_13
REMARK    7  A    between atoms: N_17  and  C_18
REMARK    8  A    between atoms: N_17  and  C_19
REMARK    9  A    between atoms: C_19  and  C_20
REMARK   10  A    between atoms: C_23  and  C_24
REMARK   11  A    between atoms: C_24  and  N_25
REMARK   12  A    between atoms: N_25  and  C_26
REMARK   13  A    between atoms: N_25  and  C_27
REMARK                            x       y       z     vdW  Elec       q    Type
REMARK                         _______ _______ _______ _____ _____    ______ ____
ROOT
ATOM      1  C   UNL     1       3.303   4.842  18.757  0.00  0.00    +0.000 A 
ATOM      2  C   UNL     1       3.260   5.253  20.078  0.00  0.00    +0.000 A 
ATOM      3  C   UNL     1       2.659   6.470  20.383  0.00  0.00    +0.000 A 
ATOM      4  C   UNL     1       2.110   7.275  19.380  0.00  0.00    +0.000 A 
ATOM      5  N   UNL     1       1.576   8.511  19.684  0.00  0.00    +0.000 N 
ATOM      6  C   UNL     1       0.810   8.746  20.897  0.00  0.00    +0.000 C 
ATOM      7  N   UNL     1       2.155   6.861  18.091  0.00  0.00    +0.000 NA
ATOM      8  C   UNL     1       2.710   5.646  17.805  0.00  0.00    +0.000 A 
ENDROOT
BRANCH   1   9
ATOM      9  S   UNL     1       4.005   3.288  18.322  0.00  0.00    +0.000 S 
ATOM     10  O   UNL     1       3.476   2.925  17.024  0.00  0.00    +0.000 OA
ATOM     11  O   UNL     1       3.856   2.401  19.458  0.00  0.00    +0.000 OA
BRANCH   9  12
ATOM     12  N   UNL     1       5.665   3.555  18.068  0.00  0.00    +0.000 N 
ATOM     13  H   UNL     1       6.051   2.717  17.632  0.00  0.00    +0.000 HD
BRANCH  12  21
ATOM     14  C   UNL     1       5.180   4.786  15.148  0.00  0.00    +0.000 C 
ATOM     15  C   UNL     1       5.951   5.328  16.293  0.00  0.00    +0.000 A 
ATOM     16  N   UNL     1       6.522   6.532  16.185  0.00  0.00    +0.000 NA
ATOM     17  N   UNL     1       7.052   6.760  17.398  0.00  0.00    +0.000 N 
ATOM     18  C   UNL     1       7.772   7.993  17.619  0.00  0.00    +0.000 C 
ATOM     19  C   UNL     1       6.824   5.747  18.297  0.00  0.00    +0.000 A 
ATOM     20  C   UNL     1       7.282   5.792  19.709  0.00  0.00    +0.000 C 
ATOM     21  C   UNL     1       6.148   4.775  17.586  0.00  0.00    +0.000 A 
ENDBRANCH  12  21
ENDBRANCH   9  12
ENDBRANCH   1   9
BRANCH   5  22
ATOM     22  C   UNL     1       1.621   9.583  18.691  0.00  0.00    +0.000 C 
BRANCH  22  23
ATOM     23  C   UNL     1       0.220  10.103  18.407  0.00  0.00    +0.000 A 
ATOM     24  C   UNL     1      -0.218  11.315  18.962  0.00  0.00    +0.000 A 
ATOM     25  C   UNL     1      -1.496  11.807  18.696  0.00  0.00    +0.000 A 
ATOM     26  C   UNL     1      -2.373  11.106  17.858  0.00  0.00    +0.000 A 
ATOM     27  C   UNL     1      -1.938   9.899  17.297  0.00  0.00    +0.000 A 
ATOM     28  C   UNL     1      -0.657   9.402  17.567  0.00  0.00    +0.000 A 
BRANCH  26  29
ATOM     29  C   UNL     1      -3.766  11.634  17.583  0.00  0.00    +0.000 C 
BRANCH  29  30
ATOM     30  N   UNL     1      -4.707  11.483  18.710  0.00  0.00    +0.000 NA
ATOM     31  C   UNL     1      -4.979  12.763  19.369  0.00  0.00    +0.000 C 
ATOM     32  C   UNL     1      -5.967  10.911  18.227  0.00  0.00    +0.000 C 
ENDBRANCH  29  30
ENDBRANCH  26  29
ENDBRANCH  22  23
ENDBRANCH   5  22
TORSDOF 7
ENDMDL
MODEL 2
REMARK VINA RESULT:      -7.4      0.696      1.184
REMARK  Name = 
REMARK  13 active torsions:
REMARK  status: ('A' for Active; 'I' for Inactive)
REMARK    1  A    between atoms: C_1  and  C_2
REMARK    2  A    between atoms: N_4  and  C_5
REMARK    3  A    between atoms: C_6  and  C_7
REMARK    4  A    between atoms: C_8  and  N_9
REMARK    5  A    between atoms: N_9  and  S_10
REMARK    6  A    between atoms: S_10  and  C_13
REMARK    7  A    between atoms: N_17  and  C_18
REMARK    8  A    between atoms: N_17  and  C_19
REMARK    9  A    between atoms: C_19  and  C_20
REMARK   10  A    between atoms: C_23  and  C_24
REMARK   11  A    between atoms: C_24  and  N_25
REMARK   12  A    between atoms: N_25  and  C_26
REMARK   13  A    between atoms: N_25  and  C_27
REMARK                            x       y       z     vdW  Elec       q    Type
REMARK                         _______ _______ _______ _____ _____    ______ ____
ROOT
ATOM      1  C   UNL     1       3.162   4.650  18.582  0.00  0.00    +0.000 A 
ATOM      2  C   UNL     1       3.172   4.852  19.952  0.00  0.00    +0.000 A 
ATOM      3  C   UNL     1       2.669   6.047  20.457  0.00  0.00    +0.000 A 
ATOM      4  C   UNL     1       2.167   7.036  19.605  0.00  0.00    +0.000 A 
ATOM      5  N   UNL     1       1.732   8.246  20.111  0.00  0.00    +0.000 N 
ATOM      6  C   UNL     1       1.006   8.343  21.365  0.00  0.00    +0.000 C 
ATOM      7  N   UNL     1       2.160   6.826  18.267  0.00  0.00    +0.000 NA
ATOM      8  C   UNL     1       2.616   5.634  17.782  0.00  0.00    +0.000 A 
ENDROOT
BRANCH   1   9
ATOM      9  S   UNL     1       3.738   3.136  17.894  0.00  0.00    +0.000 S 
ATOM     10  O   UNL     1       3.141   3.006  16.581  0.00  0.00    +0.000 OA
ATOM     11  O   UNL     1       3.566   2.102  18.893  0.00  0.00    +0.000 OA
BRANCH   9  12
ATOM     12  N   UNL     1       5.403   3.331  17.608  0.00  0.00    +0.000 N 
ATOM     13  H   UNL     1       5.726   2.515  17.087  0.00  0.00    +0.000 HD
BRANCH  12  21
ATOM     14  C   UNL     1       5.299   4.628  14.678  0.00  0.00    +0.000 C 
ATOM     15  C   UNL     1       5.915   5.143  15.925  0.00  0.00    +0.000 A 
ATOM     16  N   UNL     1       6.496   6.347  15.919  0.00  0.00    +0.000 NA
ATOM     17  N   UNL     1       6.864   6.546  17.195  0.00  0.00    +0.000 N 
ATOM     18  C   UNL     1       7.549   7.772  17.534  0.00  0.00    +0.000 C 
ATOM     19  C   UNL     1       6.522   5.514  18.034  0.00  0.00    +0.000 A 
ATOM     20  C   UNL     1       6.794   5.526  19.494  0.00  0.00    +0.000 C 
ATOM     21  C   UNL     1       5.944   4.560  17.220  0.00  0.00    +0.000 A 
ENDBRANCH  12  21
ENDBRANCH   9  12
ENDBRANCH   1   9
BRANCH   5  22
ATOM     22  C   UNL     1       1.843   9.453  19.294  0.00  0.00    +0.000 C 
BRANCH  22  23
ATOM     23  C   UNL     1       0.472  10.076  19.080  0.00  0.00    +0.000 A 
ATOM     24  C   UNL     1      -0.327   9.690  17.993  0.00  0.00    +0.000 A 
ATOM     25  C   UNL     1      -1.591  10.246  17.796  0.00  0.00    +0.000 A 
ATOM     26  C   UNL     1      -2.100  11.201  18.686  0.00  0.00    +0.000 A 
ATOM     27  C   UNL     1      -1.309  11.585  19.776  0.00  0.00    +0.000 A 
ATOM     28  C   UNL     1      -0.038  11.030  19.972  0.00  0.00    +0.000 A 
BRANCH  26  29
ATOM     29  C   UNL     1      -3.467  11.815  18.462  0.00  0.00    +0.000 C 
BRANCH  29  30
ATOM     30  N   UNL     1      -4.426  10.926  17.779  0.00  0.00    +0.000 NA
ATOM     31  C   UNL     1      -5.722  10.893  18.464  0.00  0.00    +0.000 C 
ATOM     32  C   UNL     1      -4.621  11.379  16.399  0.00  0.00    +0.000 C 
ENDBRANCH  29  30
ENDBRANCH  26  29
ENDBRANCH  22  23
ENDBRANCH   5  22
TORSDOF 7
ENDMDL
MODEL 3
REMARK VINA RESULT:      -7.4      1.907      2.845
REMARK  Name = 
REMARK  13 active torsions:
REMARK  status: ('A' for Active; 'I' for Inactive)
REMARK    1  A    between atoms: C_1  and  C_2
REMARK    2  A    between atoms: N_4  and  C_5
REMARK    3  A    between atoms: C_6  and  C_7
REMARK    4  A    between atoms: C_8  and  N_9
REMARK    5  A    between atoms: N_9  and  S_10
REMARK    6  A    between atoms: S_10  and  C_13
REMARK    7  A    between atoms: N_17  and  C_18
REMARK    8  A    between atoms: N_17  and  C_19
REMARK    9  A    between atoms: C_19  and  C_20
REMARK   10  A    between atoms: C_23  and  C_24
REMARK   11  A    between atoms: C_24  and  N_25
REMARK   12  A    between atoms: N_25  and  C_26
REMARK   13  A    between atoms: N_25  and  C_27
REMARK                            x       y       z     vdW  Elec       q    Type
REMARK                         _______ _______ _______ _____ _____    ______ ____
ROOT
ATOM      1  C   UNL     1       2.023   6.956  19.644  0.00  0.00    +0.000 A 
ATOM      2  C   UNL     1       2.198   7.622  18.443  0.00  0.00    +0.000 A 
ATOM      3  C   UNL     1       1.908   8.981  18.381  0.00  0.00    +0.000 A 
ATOM      4  C   UNL     1       1.442   9.671  19.504  0.00  0.00    +0.000 A 
ATOM      5  N   UNL     1       1.093  11.005  19.416  0.00  0.00    +0.000 N 
ATOM      6  C   UNL     1       1.847  11.949  18.608  0.00  0.00    +0.000 C 
ATOM      7  N   UNL     1       1.277   9.010  20.675  0.00  0.00    +0.000 NA
ATOM      8  C   UNL     1       1.602   7.686  20.739  0.00  0.00    +0.000 A 
ENDROOT
BRANCH   1   9
ATOM      9  S   UNL     1       2.423   5.249  19.792  0.00  0.00    +0.000 S 
ATOM     10  O   UNL     1       1.733   4.552  18.726  0.00  0.00    +0.000 OA
ATOM     11  O   UNL     1       2.230   4.866  21.176  0.00  0.00    +0.000 OA
BRANCH   9  12
ATOM     12  N   UNL     1       4.077   5.101  19.423  0.00  0.00    +0.000 N 
ATOM     13  H   UNL     1       4.532   4.647  20.215  0.00  0.00    +0.000 HD
BRANCH  12  21
ATOM     14  C   UNL     1       3.761   2.195  18.106  0.00  0.00    +0.000 C 
ATOM     15  C   UNL     1       4.392   3.423  17.563  0.00  0.00    +0.000 A 
ATOM     16  N   UNL     1       4.888   3.408  16.321  0.00  0.00    +0.000 NA
ATOM     17  N   UNL     1       5.295   4.670  16.110  0.00  0.00    +0.000 N 
ATOM     18  C   UNL     1       5.908   4.998  14.844  0.00  0.00    +0.000 C 
ATOM     19  C   UNL     1       5.060   5.509  17.172  0.00  0.00    +0.000 A 
ATOM     20  C   UNL     1       5.391   6.957  17.157  0.00  0.00    +0.000 C 
ATOM     21  C   UNL     1       4.515   4.707  18.155  0.00  0.00    +0.000 A 
ENDBRANCH  12  21
ENDBRANCH   9  12
ENDBRANCH   1   9
BRANCH   5  22
ATOM     22  C   UNL     1       0.048  11.539  20.286  0.00  0.00    +0.000 C 
BRANCH  22  23
ATOM     23  C   UNL     1      -1.301  11.498  19.583  0.00  0.00    +0.000 A 
ATOM     24  C   UNL     1      -2.334  12.367  19.967  0.00  0.00    +0.000 A 
ATOM     25  C   UNL     1      -3.568  12.346  19.319  0.00  0.00    +0.000 A 
ATOM     26  C   UNL     1      -3.806  11.462  18.258  0.00  0.00    +0.000 A 
ATOM     27  C   UNL     1      -2.776  10.598  17.866  0.00  0.00    +0.000 A 
ATOM     28  C   UNL     1      -1.538  10.614  18.519  0.00  0.00    +0.000 A 
BRANCH  26  29
ATOM     29  C   UNL     1      -5.153  11.431  17.565  0.00  0.00    +0.000 C 
BRANCH  29  30
ATOM     30  N   UNL     1      -6.301  11.681  18.459  0.00  0.00    +0.000 NA
ATOM     31  C   UNL     1      -7.324  12.508  17.814  0.00  0.00    +0.000 C 
ATOM     32  C   UNL     1      -6.897  10.404  18.864  0.00  0.00    +0.000 C 
ENDBRANCH  29  30
ENDBRANCH  26  29
ENDBRANCH  22  23
ENDBRANCH   5  22
TORSDOF 7
ENDMDL
MODEL 4
REMARK VINA RESULT:      -7.4      2.141      3.341
REMARK  Name = 
REMARK  13 active torsions:
REMARK  status: ('A' for Active; 'I' for Inactive)
REMARK    1  A    between atoms: C_1  and  C_2
REMARK    2  A    between atoms: N_4  and  C_5
REMARK    3  A    between atoms: C_6  and  C_7
REMARK    4  A    between atoms: C_8  and  N_9
REMARK    5  A    between atoms: N_9  and  S_10
REMARK    6  A    between atoms: S_10  and  C_13
REMARK    7  A    between atoms: N_17  and  C_18
REMARK    8  A    between atoms: N_17  and  C_19
REMARK    9  A    between atoms: C_19  and  C_20
REMARK   10  A    between atoms: C_23  and  C_24
REMARK   11  A    between atoms: C_24  and  N_25
REMARK   12  A    between atoms: N_25  and  C_26
REMARK   13  A    between atoms: N_25  and  C_27
REMARK                            x       y       z     vdW  Elec       q    Type
REMARK                         _______ _______ _______ _____ _____    ______ ____
ROOT
ATOM      1  C   UNL     1       1.978   7.460  19.488  0.00  0.00    +0.000 A 
ATOM      2  C   UNL     1       2.004   8.180  18.306  0.00  0.00    +0.000 A 
ATOM      3  C   UNL     1       1.611   9.515  18.325  0.00  0.00    +0.000 A 
ATOM      4  C   UNL     1       1.190  10.126  19.510  0.00  0.00    +0.000 A 
ATOM      5  N   UNL     1       0.739  11.432  19.506  0.00  0.00    +0.000 N 
ATOM      6  C   UNL     1       1.352  12.459  18.680  0.00  0.00    +0.000 C 
ATOM      7  N   UNL     1       1.172   9.413  20.661  0.00  0.00    +0.000 NA
ATOM      8  C   UNL     1       1.598   8.116  20.643  0.00  0.00    +0.000 A 
ENDROOT
BRANCH   1   9
ATOM      9  S   UNL     1       2.513   5.784  19.531  0.00  0.00    +0.000 S 
ATOM     10  O   UNL     1       1.467   5.015  20.171  0.00  0.00    +0.000 OA
ATOM     11  O   UNL     1       3.869   5.765  20.043  0.00  0.00    +0.000 OA
BRANCH   9  12
ATOM     12  N   UNL     1       2.543   5.239  17.920  0.00  0.00    +0.000 N 
ATOM     13  H   UNL     1       2.034   5.918  17.354  0.00  0.00    +0.000 HD
BRANCH  12  21
ATOM     14  C   UNL     1       3.349   2.141  17.768  0.00  0.00    +0.000 C 
ATOM     15  C   UNL     1       4.076   3.338  17.279  0.00  0.00    +0.000 A 
ATOM     16  N   UNL     1       5.230   3.180  16.622  0.00  0.00    +0.000 NA
ATOM     17  N   UNL     1       5.573   4.423  16.248  0.00  0.00    +0.000 N 
ATOM     18  C   UNL     1       6.806   4.610  15.519  0.00  0.00    +0.000 C 
ATOM     19  C   UNL     1       4.665   5.382  16.626  0.00  0.00    +0.000 A 
ATOM     20  C   UNL     1       4.814   6.822  16.291  0.00  0.00    +0.000 C 
ATOM     21  C   UNL     1       3.700   4.706  17.345  0.00  0.00    +0.000 A 
ENDBRANCH  12  21
ENDBRANCH   9  12
ENDBRANCH   1   9
BRANCH   5  22
ATOM     22  C   UNL     1      -0.267  11.852  20.478  0.00  0.00    +0.000 C 
BRANCH  22  23
ATOM     23  C   UNL     1      -1.649  11.864  19.842  0.00  0.00    +0.000 A 
ATOM     24  C   UNL     1      -1.904  11.129  18.675  0.00  0.00    +0.000 A 
ATOM     25  C   UNL     1      -3.171  11.122  18.092  0.00  0.00    +0.000 A 
ATOM     26  C   UNL     1      -4.226  11.846  18.664  0.00  0.00    +0.000 A 
ATOM     27  C   UNL     1      -3.978  12.577  19.832  0.00  0.00    +0.000 A 
ATOM     28  C   UNL     1      -2.705  12.587  20.416  0.00  0.00    +0.000 A 
BRANCH  26  29
ATOM     29  C   UNL     1      -5.598  11.850  18.021  0.00  0.00    +0.000 C 
BRANCH  29  30
ATOM     30  N   UNL     1      -6.676  12.352  18.895  0.00  0.00    +0.000 NA
ATOM     31  C   UNL     1      -7.666  13.133  18.147  0.00  0.00    +0.000 C 
ATOM     32  C   UNL     1      -7.346  11.223  19.548  0.00  0.00    +0.000 C 
ENDBRANCH  29  30
ENDBRANCH  26  29
ENDBRANCH  22  23
ENDBRANCH   5  22
TORSDOF 7
ENDMDL
MODEL 5
REMARK VINA RESULT:      -7.3      1.661      2.667
REMARK  Name = 
REMARK  13 active torsions:
REMARK  status: ('A' for Active; 'I' for Inactive)
REMARK    1  A    between atoms: C_1  and  C_2
REMARK    2  A    between atoms: N_4  and  C_5
REMARK    3  A    between atoms: C_6  and  C_7
REMARK    4  A    between atoms: C_8  and  N_9
REMARK    5  A    between atoms: N_9  and  S_10
REMARK    6  A    between atoms: S_10  and  C_13
REMARK    7  A    between atoms: N_17  and  C_18
REMARK    8  A    between atoms: N_17  and  C_19
REMARK    9  A    between atoms: C_19  and  C_20
REMARK   10  A    between atoms: C_23  and  C_24
REMARK   11  A    between atoms: C_24  and  N_25
REMARK   12  A    between atoms: N_25  and  C_26
REMARK   13  A    between atoms: N_25  and  C_27
REMARK                            x       y       z     vdW  Elec       q    Type
REMARK                         _______ _______ _______ _____ _____    ______ ____
ROOT
ATOM      1  C   UNL     1       2.462   6.807  19.001  0.00  0.00    +0.000 A 
ATOM      2  C   UNL     1       2.565   7.624  17.889  0.00  0.00    +0.000 A 
ATOM      3  C   UNL     1       2.140   8.945  17.986  0.00  0.00    +0.000 A 
ATOM      4  C   UNL     1       1.610   9.447  19.178  0.00  0.00    +0.000 A 
ATOM      5  N   UNL     1       1.129  10.740  19.246  0.00  0.00    +0.000 N 
ATOM      6  C   UNL     1       1.781  11.844  18.562  0.00  0.00    +0.000 C 
ATOM      7  N   UNL     1       1.516   8.639  20.261  0.00  0.00    +0.000 NA
ATOM      8  C   UNL     1       1.974   7.355  20.171  0.00  0.00    +0.000 A 
ENDROOT
BRANCH   1   9
ATOM      9  S   UNL     1       3.032   5.143  18.949  0.00  0.00    +0.000 S 
ATOM     10  O   UNL     1       2.504   4.544  17.741  0.00  0.00    +0.000 OA
ATOM     11  O   UNL     1       2.780   4.547  20.245  0.00  0.00    +0.000 OA
BRANCH   9  12
ATOM     12  N   UNL     1       4.715   5.210  18.711  0.00  0.00    +0.000 N 
ATOM     13  H   UNL     1       5.151   4.594  19.399  0.00  0.00    +0.000 HD
BRANCH  12  21
ATOM     14  C   UNL     1       6.421   7.558  17.350  0.00  0.00    +0.000 C 
ATOM     15  C   UNL     1       6.028   6.233  16.813  0.00  0.00    +0.000 A 
ATOM     16  N   UNL     1       6.450   5.868  15.597  0.00  0.00    +0.000 NA
ATOM     17  N   UNL     1       6.005   4.610  15.453  0.00  0.00    +0.000 N 
ATOM     18  C   UNL     1       6.281   3.915  14.217  0.00  0.00    +0.000 C 
ATOM     19  C   UNL     1       5.322   4.138  16.547  0.00  0.00    +0.000 A 
ATOM     20  C   UNL     1       4.769   2.763  16.633  0.00  0.00    +0.000 C 
ATOM     21  C   UNL     1       5.279   5.198  17.432  0.00  0.00    +0.000 A 
ENDBRANCH  12  21
ENDBRANCH   9  12
ENDBRANCH   1   9
BRANCH   5  22
ATOM     22  C   UNL     1       0.038  11.059  20.164  0.00  0.00    +0.000 C 
BRANCH  22  23
ATOM     23  C   UNL     1      -1.278  11.165  19.408  0.00  0.00    +0.000 A 
ATOM     24  C   UNL     1      -2.238  12.121  19.775  0.00  0.00    +0.000 A 
ATOM     25  C   UNL     1      -3.442  12.235  19.079  0.00  0.00    +0.000 A 
ATOM     26  C   UNL     1      -3.719  11.401  17.987  0.00  0.00    +0.000 A 
ATOM     27  C   UNL     1      -2.762  10.450  17.613  0.00  0.00    +0.000 A 
ATOM     28  C   UNL     1      -1.555  10.332  18.314  0.00  0.00    +0.000 A 
BRANCH  26  29
ATOM     29  C   UNL     1      -5.034  11.516  17.242  0.00  0.00    +0.000 C 
BRANCH  29  30
ATOM     30  N   UNL     1      -6.177  11.915  18.087  0.00  0.00    +0.000 NA
ATOM     31  C   UNL     1      -7.133  12.748  17.352  0.00  0.00    +0.000 C 
ATOM     32  C   UNL     1      -6.861  10.719  18.586  0.00  0.00    +0.000 C 
ENDBRANCH  29  30
ENDBRANCH  26  29
ENDBRANCH  22  23
ENDBRANCH   5  22
TORSDOF 7
ENDMDL
MODEL 6
REMARK VINA RESULT:      -7.2      1.670      2.247
REMARK  Name = 
REMARK  13 active torsions:
REMARK  status: ('A' for Active; 'I' for Inactive)
REMARK    1  A    between atoms: C_1  and  C_2
REMARK    2  A    between atoms: N_4  and  C_5
REMARK    3  A    between atoms: C_6  and  C_7
REMARK    4  A    between atoms: C_8  and  N_9
REMARK    5  A    between atoms: N_9  and  S_10
REMARK    6  A    between atoms: S_10  and  C_13
REMARK    7  A    between atoms: N_17  and  C_18
REMARK    8  A    between atoms: N_17  and  C_19
REMARK    9  A    between atoms: C_19  and  C_20
REMARK   10  A    between atoms: C_23  and  C_24
REMARK   11  A    between atoms: C_24  and  N_25
REMARK   12  A    between atoms: N_25  and  C_26
REMARK   13  A    between atoms: N_25  and  C_27
REMARK                            x       y       z     vdW  Elec       q    Type
REMARK                         _______ _______ _______ _____ _____    ______ ____
ROOT
ATOM      1  C   UNL     1       2.121   5.485  19.886  0.00  0.00    +0.000 A 
ATOM      2  C   UNL     1       2.215   5.868  18.559  0.00  0.00    +0.000 A 
ATOM      3  C   UNL     1       2.060   7.213  18.237  0.00  0.00    +0.000 A 
ATOM      4  C   UNL     1       1.807   8.168  19.227  0.00  0.00    +0.000 A 
ATOM      5  N   UNL     1       1.588   9.489  18.890  0.00  0.00    +0.000 N 
ATOM      6  C   UNL     1       2.329  10.150  17.829  0.00  0.00    +0.000 C 
ATOM      7  N   UNL     1       1.720   7.781  20.522  0.00  0.00    +0.000 NA
ATOM      8  C   UNL     1       1.915   6.466  20.835  0.00  0.00    +0.000 A 
ENDROOT
BRANCH   1   9
ATOM      9  S   UNL     1       2.360   3.806  20.354  0.00  0.00    +0.000 S 
ATOM     10  O   UNL     1       1.535   2.995  19.484  0.00  0.00    +0.000 OA
ATOM     11  O   UNL     1       2.225   3.724  21.794  0.00  0.00    +0.000 OA
BRANCH   9  12
ATOM     12  N   UNL     1       3.963   3.407  19.945  0.00  0.00    +0.000 N 
ATOM     13  H   UNL     1       4.144   2.463  20.286  0.00  0.00    +0.000 HD
BRANCH  12  21
ATOM     14  C   UNL     1       2.948   2.346  17.096  0.00  0.00    +0.000 C 
ATOM     15  C   UNL     1       4.072   3.255  17.428  0.00  0.00    +0.000 A 
ATOM     16  N   UNL     1       4.793   3.792  16.438  0.00  0.00    +0.000 NA
ATOM     17  N   UNL     1       5.652   4.615  17.059  0.00  0.00    +0.000 N 
ATOM     18  C   UNL     1       6.605   5.352  16.262  0.00  0.00    +0.000 C 
ATOM     19  C   UNL     1       5.498   4.643  18.424  0.00  0.00    +0.000 A 
ATOM     20  C   UNL     1       6.310   5.506  19.319  0.00  0.00    +0.000 C 
ATOM     21  C   UNL     1       4.504   3.724  18.696  0.00  0.00    +0.000 A 
ENDBRANCH  12  21
ENDBRANCH   9  12
ENDBRANCH   1   9
BRANCH   5  22
ATOM     22  C   UNL     1       0.717  10.314  19.725  0.00  0.00    +0.000 C 
BRANCH  22  23
ATOM     23  C   UNL     1      -0.594  10.597  19.007  0.00  0.00    +0.000 A 
ATOM     24  C   UNL     1      -1.415  11.660  19.411  0.00  0.00    +0.000 A 
ATOM     25  C   UNL     1      -2.612  11.936  18.750  0.00  0.00    +0.000 A 
ATOM     26  C   UNL     1      -3.021  11.161  17.656  0.00  0.00    +0.000 A 
ATOM     27  C   UNL     1      -2.201  10.103  17.245  0.00  0.00    +0.000 A 
ATOM     28  C   UNL     1      -1.002   9.822  17.911  0.00  0.00    +0.000 A 
BRANCH  26  29
ATOM     29  C   UNL     1      -4.328  11.453  16.949  0.00  0.00    +0.000 C 
BRANCH  29  30
ATOM     30  N   UNL     1      -5.411  11.914  17.841  0.00  0.00    +0.000 NA
ATOM     31  C   UNL     1      -6.357  12.789  17.142  0.00  0.00    +0.000 C 
ATOM     32  C   UNL     1      -6.131  10.757  18.380  0.00  0.00    +0.000 C 
ENDBRANCH  29  30
ENDBRANCH  26  29
ENDBRANCH  22  23
ENDBRANCH   5  22
TORSDOF 7
ENDMDL
MODEL 7
REMARK VINA RESULT:      -7.1      5.204      7.884
REMARK  Name = 
REMARK  13 active torsions:
REMARK  status: ('A' for Active; 'I' for Inactive)
REMARK    1  A    between atoms: C_1  and  C_2
REMARK    2  A    between atoms: N_4  and  C_5
REMARK    3  A    between atoms: C_6  and  C_7
REMARK    4  A    between atoms: C_8  and  N_9
REMARK    5  A    between atoms: N_9  and  S_10
REMARK    6  A    between atoms: S_10  and  C_13
REMARK    7  A    between atoms: N_17  and  C_18
REMARK    8  A    between atoms: N_17  and  C_19
REMARK    9  A    between atoms: C_19  and  C_20
REMARK   10  A    between atoms: C_23  and  C_24
REMARK   11  A    between atoms: C_24  and  N_25
REMARK   12  A    between atoms: N_25  and  C_26
REMARK   13  A    between atoms: N_25  and  C_27
REMARK                            x       y       z     vdW  Elec       q    Type
REMARK                         _______ _______ _______ _____ _____    ______ ____
ROOT
ATOM      1  C   UNL     1       8.597   9.380  18.556  0.00  0.00    +0.000 A 
ATOM      2  C   UNL     1       8.833   8.169  19.184  0.00  0.00    +0.000 A 
ATOM      3  C   UNL     1       8.200   7.029  18.702  0.00  0.00    +0.000 A 
ATOM      4  C   UNL     1       7.333   7.093  17.606  0.00  0.00    +0.000 A 
ATOM      5  N   UNL     1       6.658   5.968  17.176  0.00  0.00    +0.000 N 
ATOM      6  C   UNL     1       7.275   4.652  17.165  0.00  0.00    +0.000 C 
ATOM      7  N   UNL     1       7.112   8.283  16.998  0.00  0.00    +0.000 NA
ATOM      8  C   UNL     1       7.769   9.391  17.451  0.00  0.00    +0.000 A 
ENDROOT
BRANCH   1   9
ATOM      9  S   UNL     1       9.412  10.845  19.093  0.00  0.00    +0.000 S 
ATOM     10  O   UNL     1      10.812  10.708  18.750  0.00  0.00    +0.000 OA
ATOM     11  O   UNL     1       9.003  11.104  20.458  0.00  0.00    +0.000 OA
BRANCH   9  12
ATOM     12  N   UNL     1       8.837  12.111  18.114  0.00  0.00    +0.000 N 
ATOM     13  H   UNL     1       7.821  12.025  18.061  0.00  0.00    +0.000 HD
BRANCH  12  21
ATOM     14  C   UNL     1       7.806  14.397  20.110  0.00  0.00    +0.000 C 
ATOM     15  C   UNL     1       8.885  14.437  19.094  0.00  0.00    +0.000 A 
ATOM     16  N   UNL     1       9.618  15.548  18.962  0.00  0.00    +0.000 NA
ATOM     17  N   UNL     1      10.543  15.229  18.042  0.00  0.00    +0.000 N 
ATOM     18  C   UNL     1      11.503  16.235  17.648  0.00  0.00    +0.000 C 
ATOM     19  C   UNL     1      10.445  13.937  17.588  0.00  0.00    +0.000 A 
ATOM     20  C   UNL     1      11.382  13.348  16.597  0.00  0.00    +0.000 C 
ATOM     21  C   UNL     1       9.338  13.411  18.223  0.00  0.00    +0.000 A 
ENDBRANCH  12  21
ENDBRANCH   9  12
ENDBRANCH   1   9
BRANCH   5  22
ATOM     22  C   UNL     1       5.345   6.108  16.549  0.00  0.00    +0.000 C 
BRANCH  22  23
ATOM     23  C   UNL     1       4.294   6.462  17.590  0.00  0.00    +0.000 A 
ATOM     24  C   UNL     1       4.109   5.654  18.722  0.00  0.00    +0.000 A 
ATOM     25  C   UNL     1       3.157   5.978  19.689  0.00  0.00    +0.000 A 
ATOM     26  C   UNL     1       2.366   7.128  19.558  0.00  0.00    +0.000 A 
ATOM     27  C   UNL     1       2.552   7.941  18.433  0.00  0.00    +0.000 A 
ATOM     28  C   UNL     1       3.504   7.613  17.460  0.00  0.00    +0.000 A 
BRANCH  26  29
ATOM     29  C   UNL     1       1.323   7.470  20.602  0.00  0.00    +0.000 C 
BRANCH  29  30
ATOM     30  N   UNL     1       1.239   8.907  20.927  0.00  0.00    +0.000 NA
ATOM     31  C   UNL     1      -0.055   9.479  20.540  0.00  0.00    +0.000 C 
ATOM     32  C   UNL     1       1.441   9.100  22.366  0.00  0.00    +0.000 C 
ENDBRANCH  29  30
ENDBRANCH  26  29
ENDBRANCH  22  23
ENDBRANCH   5  22
TORSDOF 7
ENDMDL
MODEL 8
REMARK VINA RESULT:      -7.0      2.013      3.280
REMARK  Name = 
REMARK  13 active torsions:
REMARK  status: ('A' for Active; 'I' for Inactive)
REMARK    1  A    between atoms: C_1  and  C_2
REMARK    2  A    between atoms: N_4  and  C_5
REMARK    3  A    between atoms: C_6  and  C_7
REMARK    4  A    between atoms: C_8  and  N_9
REMARK    5  A    between atoms: N_9  and  S_10
REMARK    6  A    between atoms: S_10  and  C_13
REMARK    7  A    between atoms: N_17  and  C_18
REMARK    8  A    between atoms: N_17  and  C_19
REMARK    9  A    between atoms: C_19  and  C_20
REMARK   10  A    between atoms: C_23  and  C_24
REMARK   11  A    between atoms: C_24  and  N_25
REMARK   12  A    between atoms: N_25  and  C_26
REMARK   13  A    between atoms: N_25  and  C_27
REMARK                            x       y       z     vdW  Elec       q    Type
REMARK                         _______ _______ _______ _____ _____    ______ ____
ROOT
ATOM      1  C   UNL     1       1.855   7.285  19.726  0.00  0.00    +0.000 A 
ATOM      2  C   UNL     1       1.998   8.014  18.558  0.00  0.00    +0.000 A 
ATOM      3  C   UNL     1       1.575   9.339  18.539  0.00  0.00    +0.000 A 
ATOM      4  C   UNL     1       1.009   9.933  19.671  0.00  0.00    +0.000 A 
ATOM      5  N   UNL     1       0.532  11.228  19.622  0.00  0.00    +0.000 N 
ATOM      6  C   UNL     1       1.210  12.274  18.877  0.00  0.00    +0.000 C 
ATOM      7  N   UNL     1       0.877   9.211  20.809  0.00  0.00    +0.000 NA
ATOM      8  C   UNL     1       1.332   7.923  20.833  0.00  0.00    +0.000 A 
ENDROOT
BRANCH   1   9
ATOM      9  S   UNL     1       2.420   5.621  19.821  0.00  0.00    +0.000 S 
ATOM     10  O   UNL     1       1.731   4.873  18.790  0.00  0.00    +0.000 OA
ATOM     11  O   UNL     1       2.352   5.209  21.208  0.00  0.00    +0.000 OA
BRANCH   9  12
ATOM     12  N   UNL     1       4.053   5.631  19.347  0.00  0.00    +0.000 N 
ATOM     13  H   UNL     1       4.620   5.500  20.184  0.00  0.00    +0.000 HD
BRANCH  12  21
ATOM     14  C   UNL     1       4.174   2.458  18.910  0.00  0.00    +0.000 C 
ATOM     15  C   UNL     1       4.559   3.560  17.995  0.00  0.00    +0.000 A 
ATOM     16  N   UNL     1       4.989   3.266  16.763  0.00  0.00    +0.000 NA
ATOM     17  N   UNL     1       5.164   4.462  16.178  0.00  0.00    +0.000 N 
ATOM     18  C   UNL     1       5.649   4.503  14.818  0.00  0.00    +0.000 C 
ATOM     19  C   UNL     1       4.841   5.524  16.987  0.00  0.00    +0.000 A 
ATOM     20  C   UNL     1       4.919   6.940  16.545  0.00  0.00    +0.000 C 
ATOM     21  C   UNL     1       4.490   4.963  18.199  0.00  0.00    +0.000 A 
ENDBRANCH  12  21
ENDBRANCH   9  12
ENDBRANCH   1   9
BRANCH   5  22
ATOM     22  C   UNL     1      -0.587  11.619  20.477  0.00  0.00    +0.000 C 
BRANCH  22  23
ATOM     23  C   UNL     1      -1.878  11.667  19.673  0.00  0.00    +0.000 A 
ATOM     24  C   UNL     1      -2.046  10.853  18.543  0.00  0.00    +0.000 A 
ATOM     25  C   UNL     1      -3.231  10.880  17.808  0.00  0.00    +0.000 A 
ATOM     26  C   UNL     1      -4.290  11.717  18.186  0.00  0.00    +0.000 A 
ATOM     27  C   UNL     1      -4.129  12.527  19.317  0.00  0.00    +0.000 A 
ATOM     28  C   UNL     1      -2.938  12.504  20.053  0.00  0.00    +0.000 A 
BRANCH  26  29
ATOM     29  C   UNL     1      -5.571  11.756  17.378  0.00  0.00    +0.000 C 
BRANCH  29  30
ATOM     30  N   UNL     1      -6.763  11.282  18.107  0.00  0.00    +0.000 NA
ATOM     31  C   UNL     1      -6.445  10.168  19.006  0.00  0.00    +0.000 C 
ATOM     32  C   UNL     1      -7.333  12.384  18.887  0.00  0.00    +0.000 C 
ENDBRANCH  29  30
ENDBRANCH  26  29
ENDBRANCH  22  23
ENDBRANCH   5  22
TORSDOF 7
ENDMDL
MODEL 9
REMARK VINA RESULT:      -7.0      2.398      3.561
REMARK  Name = 
REMARK  13 active torsions:
REMARK  status: ('A' for Active; 'I' for Inactive)
REMARK    1  A    between atoms: C_1  and  C_2
REMARK    2  A    between atoms: N_4  and  C_5
REMARK    3  A    between atoms: C_6  and  C_7
REMARK    4  A    between atoms: C_8  and  N_9
REMARK    5  A    between atoms: N_9  and  S_10
REMARK    6  A    between atoms: S_10  and  C_13
REMARK    7  A    between atoms: N_17  and  C_18
REMARK    8  A    between atoms: N_17  and  C_19
REMARK    9  A    between atoms: C_19  and  C_20
REMARK   10  A    between atoms: C_23  and  C_24
REMARK   11  A    between atoms: C_24  and  N_25
REMARK   12  A    between atoms: N_25  and  C_26
REMARK   13  A    between atoms: N_25  and  C_27
REMARK                            x       y       z     vdW  Elec       q    Type
REMARK                         _______ _______ _______ _____ _____    ______ ____
ROOT
ATOM      1  C   UNL     1       3.576   6.666  18.196  0.00  0.00    +0.000 A 
ATOM      2  C   UNL     1       3.264   6.586  19.542  0.00  0.00    +0.000 A 
ATOM      3  C   UNL     1       2.309   7.454  20.062  0.00  0.00    +0.000 A 
ATOM      4  C   UNL     1       1.675   8.399  19.251  0.00  0.00    +0.000 A 
ATOM      5  N   UNL     1       0.778   9.300  19.789  0.00  0.00    +0.000 N 
ATOM      6  C   UNL     1      -0.159   8.928  20.836  0.00  0.00    +0.000 C 
ATOM      7  N   UNL     1       1.986   8.466  17.934  0.00  0.00    +0.000 NA
ATOM      8  C   UNL     1       2.893   7.583  17.422  0.00  0.00    +0.000 A 
ENDROOT
BRANCH   1   9
ATOM      9  S   UNL     1       4.738   5.558  17.475  0.00  0.00    +0.000 S 
ATOM     10  O   UNL     1       5.866   5.472  18.378  0.00  0.00    +0.000 OA
ATOM     11  O   UNL     1       4.921   5.946  16.092  0.00  0.00    +0.000 OA
BRANCH   9  12
ATOM     12  N   UNL     1       4.025   4.014  17.506  0.00  0.00    +0.000 N 
ATOM     13  H   UNL     1       4.762   3.328  17.342  0.00  0.00    +0.000 HD
BRANCH  12  21
ATOM     14  C   UNL     1       0.848   4.343  17.231  0.00  0.00    +0.000 C 
ATOM     15  C   UNL     1       1.656   3.814  18.357  0.00  0.00    +0.000 A 
ATOM     16  N   UNL     1       1.035   3.340  19.442  0.00  0.00    +0.000 NA
ATOM     17  N   UNL     1       2.026   2.868  20.214  0.00  0.00    +0.000 N 
ATOM     18  C   UNL     1       1.691   2.290  21.495  0.00  0.00    +0.000 C 
ATOM     19  C   UNL     1       3.273   3.004  19.654  0.00  0.00    +0.000 A 
ATOM     20  C   UNL     1       4.517   2.521  20.306  0.00  0.00    +0.000 C 
ATOM     21  C   UNL     1       3.065   3.665  18.460  0.00  0.00    +0.000 A 
ENDBRANCH  12  21
ENDBRANCH   9  12
ENDBRANCH   1   9
BRANCH   5  22
ATOM     22  C   UNL     1       0.631  10.623  19.186  0.00  0.00    +0.000 C 
BRANCH  22  23
ATOM     23  C   UNL     1      -0.778  10.806  18.642  0.00  0.00    +0.000 A 
ATOM     24  C   UNL     1      -1.245  10.011  17.584  0.00  0.00    +0.000 A 
ATOM     25  C   UNL     1      -2.540  10.162  17.088  0.00  0.00    +0.000 A 
ATOM     26  C   UNL     1      -3.413  11.107  17.643  0.00  0.00    +0.000 A 
ATOM     27  C   UNL     1      -2.955  11.898  18.704  0.00  0.00    +0.000 A 
ATOM     28  C   UNL     1      -1.653  11.750  19.199  0.00  0.00    +0.000 A 
BRANCH  26  29
ATOM     29  C   UNL     1      -4.815  11.280  17.093  0.00  0.00    +0.000 C 
BRANCH  29  30
ATOM     30  N   UNL     1      -5.812  11.700  18.097  0.00  0.00    +0.000 NA
ATOM     31  C   UNL     1      -6.870  12.523  17.502  0.00  0.00    +0.000 C 
ATOM     32  C   UNL     1      -6.414  10.517  18.719  0.00  0.00    +0.000 C 
ENDBRANCH  29  30
ENDBRANCH  26  29
ENDBRANCH  22  23
ENDBRANCH   5  22
TORSDOF 7
ENDMDL
