MODEL 1
REMARK VINA RESULT:      -7.7      0.000      0.000
REMARK  Name = 
REMARK  3 active torsions:
REMARK  status: ('A' for Active; 'I' for Inactive)
REMARK    1  A    between atoms: N_1  and  C_2
REMARK    2  A    between atoms: C_13  and  C_14
REMARK    3  A    between atoms: C_14  and  C_16
REMARK                            x       y       z     vdW  Elec       q    Type
REMARK                         _______ _______ _______ _____ _____    ______ ____
ROOT
ATOM      1  C   UNL     1       7.475   6.005  18.972  0.00  0.00    +0.000 A 
ATOM      2  N   UNL     1       8.109   7.188  18.758  0.00  0.00    +0.000 NA
ATOM      3  C   UNL     1       7.580   7.839  17.752  0.00  0.00    +0.000 A 
ATOM      4  N   UNL     1       7.936   9.075  17.339  0.00  0.00    +0.000 N 
ATOM      5  C   UNL     1       8.601  10.043  18.092  0.00  0.00    +0.000 A 
ATOM      6  C   UNL     1       9.357   9.762  19.231  0.00  0.00    +0.000 A 
ATOM      7  C   UNL     1       9.911  10.798  19.980  0.00  0.00    +0.000 A 
ATOM      8  C   UNL     1       9.725  12.100  19.562  0.00  0.00    +0.000 A 
ATOM      9  C   UNL     1       9.007  12.306  18.397  0.00  0.00    +0.000 A 
ATOM     10  N   UNL     1       8.447  11.316  17.664  0.00  0.00    +0.000 NA
ATOM     11  S   UNL     1       6.311   6.977  16.959  0.00  0.00    +0.000 S 
ATOM     12  C   UNL     1       6.416   5.721  18.140  0.00  0.00    +0.000 A 
ATOM     13  H   UNL     1       7.414   9.524  16.598  0.00  0.00    +0.000 HD
ENDROOT
BRANCH   1  14
ATOM     14  N   UNL     1       7.978   5.290  19.988  0.00  0.00    +0.000 N 
ATOM     15  H   UNL     1       7.566   4.371  20.129  0.00  0.00    +0.000 HD
ATOM     16  H   UNL     1       8.926   5.357  20.329  0.00  0.00    +0.000 HD
ENDBRANCH   1  14
BRANCH  12  17
ATOM     17  C   UNL     1       5.473   4.624  18.089  0.00  0.00    +0.000 C 
ATOM     18  O   UNL     1       5.556   3.685  17.289  0.00  0.00    +0.000 OA
BRANCH  17  19
ATOM     19  C   UNL     1       4.339   4.561  19.045  0.00  0.00    +0.000 A 
ATOM     20  C   UNL     1       3.557   5.708  19.248  0.00  0.00    +0.000 A 
ATOM     21  C   UNL     1       2.440   5.654  20.083  0.00  0.00    +0.000 A 
ATOM     22  C   UNL     1       2.095   4.460  20.718  0.00  0.00    +0.000 A 
ATOM     23  C   UNL     1       2.898   3.331  20.557  0.00  0.00    +0.000 A 
ATOM     24  C   UNL     1       4.029   3.396  19.749  0.00  0.00    +0.000 A 
ATOM     25  F   UNL     1       4.796   2.303  19.647  0.00  0.00    +0.000 F 
ENDBRANCH  17  19
ENDBRANCH  12  17
TORSDOF 3
ENDMDL
MODEL 2
REMARK VINA RESULT:      -7.7      1.516      1.801
REMARK  Name = 
REMARK  3 active torsions:
REMARK  status: ('A' for Active; 'I' for Inactive)
REMARK    1  A    between atoms: N_1  and  C_2
REMARK    2  A    between atoms: C_13  and  C_14
REMARK    3  A    between atoms: C_14  and  C_16
REMARK                            x       y       z     vdW  Elec       q    Type
REMARK                         _______ _______ _______ _____ _____    ______ ____
ROOT
ATOM      1  C   UNL     1       7.608   5.858  19.303  0.00  0.00    +0.000 A 
ATOM      2  N   UNL     1       8.144   7.037  18.891  0.00  0.00    +0.000 NA
ATOM      3  C   UNL     1       7.437   7.572  17.927  0.00  0.00    +0.000 A 
ATOM      4  N   UNL     1       7.666   8.776  17.358  0.00  0.00    +0.000 N 
ATOM      5  C   UNL     1       8.388   9.834  17.912  0.00  0.00    +0.000 A 
ATOM      6  C   UNL     1       9.320   9.687  18.941  0.00  0.00    +0.000 A 
ATOM      7  C   UNL     1       9.929  10.808  19.502  0.00  0.00    +0.000 A 
ATOM      8  C   UNL     1       9.618  12.057  19.006  0.00  0.00    +0.000 A 
ATOM      9  C   UNL     1       8.724  12.127  17.952  0.00  0.00    +0.000 A 
ATOM     10  N   UNL     1       8.109  11.054  17.403  0.00  0.00    +0.000 NA
ATOM     11  S   UNL     1       6.108   6.596  17.417  0.00  0.00    +0.000 S 
ATOM     12  C   UNL     1       6.451   5.460  18.673  0.00  0.00    +0.000 A 
ATOM     13  H   UNL     1       7.017   9.135  16.670  0.00  0.00    +0.000 HD
ENDROOT
BRANCH   1  14
ATOM     14  N   UNL     1       8.293   5.260  20.288  0.00  0.00    +0.000 N 
ATOM     15  H   UNL     1       9.262   5.552  20.394  0.00  0.00    +0.000 HD
ATOM     16  H   UNL     1       7.888   4.909  21.144  0.00  0.00    +0.000 HD
ENDBRANCH   1  14
BRANCH  12  17
ATOM     17  C   UNL     1       5.566   4.330  18.864  0.00  0.00    +0.000 C 
ATOM     18  O   UNL     1       5.902   3.283  19.429  0.00  0.00    +0.000 OA
BRANCH  17  19
ATOM     19  C   UNL     1       4.159   4.389  18.395  0.00  0.00    +0.000 A 
ATOM     20  C   UNL     1       3.754   3.542  17.353  0.00  0.00    +0.000 A 
ATOM     21  C   UNL     1       2.419   3.523  16.944  0.00  0.00    +0.000 A 
ATOM     22  C   UNL     1       1.482   4.347  17.572  0.00  0.00    +0.000 A 
ATOM     23  C   UNL     1       1.891   5.225  18.575  0.00  0.00    +0.000 A 
ATOM     24  C   UNL     1       3.228   5.264  18.958  0.00  0.00    +0.000 A 
ATOM     25  F   UNL     1       3.590   6.146  19.899  0.00  0.00    +0.000 F 
ENDBRANCH  17  19
ENDBRANCH  12  17
TORSDOF 3
ENDMDL
MODEL 3
REMARK VINA RESULT:      -7.7      4.751      6.539
REMARK  Name = 
REMARK  3 active torsions:
REMARK  status: ('A' for Active; 'I' for Inactive)
REMARK    1  A    between atoms: N_1  and  C_2
REMARK    2  A    between atoms: C_13  and  C_14
REMARK    3  A    between atoms: C_14  and  C_16
REMARK                            x       y       z     vdW  Elec       q    Type
REMARK                         _______ _______ _______ _____ _____    ______ ____
ROOT
ATOM      1  C   UNL     1       2.530   5.873  20.046  0.00  0.00    +0.000 A 
ATOM      2  N   UNL     1       2.113   7.063  20.552  0.00  0.00    +0.000 NA
ATOM      3  C   UNL     1       2.008   7.972  19.614  0.00  0.00    +0.000 A 
ATOM      4  N   UNL     1       1.547   9.230  19.786  0.00  0.00    +0.000 N 
ATOM      5  C   UNL     1       0.737   9.684  20.827  0.00  0.00    +0.000 A 
ATOM      6  C   UNL     1       0.610   9.035  22.056  0.00  0.00    +0.000 A 
ATOM      7  C   UNL     1      -0.293   9.503  23.008  0.00  0.00    +0.000 A 
ATOM      8  C   UNL     1      -1.035  10.633  22.728  0.00  0.00    +0.000 A 
ATOM      9  C   UNL     1      -0.824  11.256  21.511  0.00  0.00    +0.000 A 
ATOM     10  N   UNL     1       0.036  10.810  20.566  0.00  0.00    +0.000 NA
ATOM     11  S   UNL     1       2.502   7.419  18.055  0.00  0.00    +0.000 S 
ATOM     12  C   UNL     1       2.739   5.828  18.686  0.00  0.00    +0.000 A 
ATOM     13  H   UNL     1       1.433   9.833  18.982  0.00  0.00    +0.000 HD
ENDROOT
BRANCH   1  14
ATOM     14  N   UNL     1       2.662   4.904  20.962  0.00  0.00    +0.000 N 
ATOM     15  H   UNL     1       2.541   3.953  20.621  0.00  0.00    +0.000 HD
ATOM     16  H   UNL     1       3.246   4.960  21.783  0.00  0.00    +0.000 HD
ENDBRANCH   1  14
BRANCH  12  17
ATOM     17  C   UNL     1       3.113   4.760  17.784  0.00  0.00    +0.000 C 
ATOM     18  O   UNL     1       2.325   3.902  17.371  0.00  0.00    +0.000 OA
BRANCH  17  19
ATOM     19  C   UNL     1       4.504   4.657  17.276  0.00  0.00    +0.000 A 
ATOM     20  C   UNL     1       4.726   4.683  15.891  0.00  0.00    +0.000 A 
ATOM     21  C   UNL     1       6.029   4.665  15.390  0.00  0.00    +0.000 A 
ATOM     22  C   UNL     1       7.116   4.622  16.265  0.00  0.00    +0.000 A 
ATOM     23  C   UNL     1       6.898   4.547  17.641  0.00  0.00    +0.000 A 
ATOM     24  C   UNL     1       5.598   4.533  18.135  0.00  0.00    +0.000 A 
ATOM     25  F   UNL     1       5.426   4.423  19.459  0.00  0.00    +0.000 F 
ENDBRANCH  17  19
ENDBRANCH  12  17
TORSDOF 3
ENDMDL
MODEL 4
REMARK VINA RESULT:      -7.6      1.032      1.453
REMARK  Name = 
REMARK  3 active torsions:
REMARK  status: ('A' for Active; 'I' for Inactive)
REMARK    1  A    between atoms: N_1  and  C_2
REMARK    2  A    between atoms: C_13  and  C_14
REMARK    3  A    between atoms: C_14  and  C_16
REMARK                            x       y       z     vdW  Elec       q    Type
REMARK                         _______ _______ _______ _____ _____    ______ ____
ROOT
ATOM      1  C   UNL     1       7.521   6.020  18.915  0.00  0.00    +0.000 A 
ATOM      2  N   UNL     1       8.152   7.215  18.769  0.00  0.00    +0.000 NA
ATOM      3  C   UNL     1       7.722   7.856  17.710  0.00  0.00    +0.000 A 
ATOM      4  N   UNL     1       8.097   9.100  17.337  0.00  0.00    +0.000 N 
ATOM      5  C   UNL     1       8.656  10.080  18.157  0.00  0.00    +0.000 A 
ATOM      6  C   UNL     1       9.290   9.814  19.371  0.00  0.00    +0.000 A 
ATOM      7  C   UNL     1       9.739  10.860  20.175  0.00  0.00    +0.000 A 
ATOM      8  C   UNL     1       9.573  12.158  19.737  0.00  0.00    +0.000 A 
ATOM      9  C   UNL     1       8.982  12.350  18.500  0.00  0.00    +0.000 A 
ATOM     10  N   UNL     1       8.525  11.350  17.712  0.00  0.00    +0.000 NA
ATOM     11  S   UNL     1       6.564   6.971  16.786  0.00  0.00    +0.000 S 
ATOM     12  C   UNL     1       6.564   5.716  17.973  0.00  0.00    +0.000 A 
ATOM     13  H   UNL     1       7.649   9.538  16.543  0.00  0.00    +0.000 HD
ENDROOT
BRANCH   1  14
ATOM     14  N   UNL     1       7.925   5.315  19.981  0.00  0.00    +0.000 N 
ATOM     15  H   UNL     1       7.434   4.439  20.144  0.00  0.00    +0.000 HD
ATOM     16  H   UNL     1       8.861   5.321  20.357  0.00  0.00    +0.000 HD
ENDBRANCH   1  14
BRANCH  12  17
ATOM     17  C   UNL     1       5.655   4.600  17.822  0.00  0.00    +0.000 C 
ATOM     18  O   UNL     1       5.739   3.764  16.916  0.00  0.00    +0.000 OA
BRANCH  17  19
ATOM     19  C   UNL     1       4.555   4.388  18.796  0.00  0.00    +0.000 A 
ATOM     20  C   UNL     1       4.440   3.143  19.432  0.00  0.00    +0.000 A 
ATOM     21  C   UNL     1       3.462   2.943  20.408  0.00  0.00    +0.000 A 
ATOM     22  C   UNL     1       2.595   3.981  20.756  0.00  0.00    +0.000 A 
ATOM     23  C   UNL     1       2.675   5.204  20.091  0.00  0.00    +0.000 A 
ATOM     24  C   UNL     1       3.630   5.391  19.097  0.00  0.00    +0.000 A 
ATOM     25  F   UNL     1       3.653   6.566  18.455  0.00  0.00    +0.000 F 
ENDBRANCH  17  19
ENDBRANCH  12  17
TORSDOF 3
ENDMDL
MODEL 5
REMARK VINA RESULT:      -7.5      4.575      6.353
REMARK  Name = 
REMARK  3 active torsions:
REMARK  status: ('A' for Active; 'I' for Inactive)
REMARK    1  A    between atoms: N_1  and  C_2
REMARK    2  A    between atoms: C_13  and  C_14
REMARK    3  A    between atoms: C_14  and  C_16
REMARK                            x       y       z     vdW  Elec       q    Type
REMARK                         _______ _______ _______ _____ _____    ______ ____
ROOT
ATOM      1  C   UNL     1       2.468   6.179  19.928  0.00  0.00    +0.000 A 
ATOM      2  N   UNL     1       2.037   7.467  19.990  0.00  0.00    +0.000 NA
ATOM      3  C   UNL     1       2.264   8.100  18.865  0.00  0.00    +0.000 A 
ATOM      4  N   UNL     1       1.885   9.367  18.586  0.00  0.00    +0.000 N 
ATOM      5  C   UNL     1       0.871  10.089  19.216  0.00  0.00    +0.000 A 
ATOM      6  C   UNL     1       0.366   9.785  20.481  0.00  0.00    +0.000 A 
ATOM      7  C   UNL     1      -0.712  10.499  20.998  0.00  0.00    +0.000 A 
ATOM      8  C   UNL     1      -1.252  11.528  20.253  0.00  0.00    +0.000 A 
ATOM      9  C   UNL     1      -0.672  11.810  19.029  0.00  0.00    +0.000 A 
ATOM     10  N   UNL     1       0.364  11.119  18.501  0.00  0.00    +0.000 NA
ATOM     11  S   UNL     1       3.104   7.153  17.692  0.00  0.00    +0.000 S 
ATOM     12  C   UNL     1       3.025   5.778  18.735  0.00  0.00    +0.000 A 
ATOM     13  H   UNL     1       2.041   9.741  17.660  0.00  0.00    +0.000 HD
ENDROOT
BRANCH   1  14
ATOM     14  N   UNL     1       2.267   5.480  21.054  0.00  0.00    +0.000 N 
ATOM     15  H   UNL     1       1.483   5.781  21.628  0.00  0.00    +0.000 HD
ATOM     16  H   UNL     1       2.500   4.506  21.179  0.00  0.00    +0.000 HD
ENDBRANCH   1  14
BRANCH  12  17
ATOM     17  C   UNL     1       3.531   4.505  18.265  0.00  0.00    +0.000 C 
ATOM     18  O   UNL     1       2.939   3.432  18.421  0.00  0.00    +0.000 OA
BRANCH  17  19
ATOM     19  C   UNL     1       4.816   4.434  17.525  0.00  0.00    +0.000 A 
ATOM     20  C   UNL     1       4.798   4.107  16.161  0.00  0.00    +0.000 A 
ATOM     21  C   UNL     1       5.985   4.107  15.426  0.00  0.00    +0.000 A 
ATOM     22  C   UNL     1       7.193   4.434  16.044  0.00  0.00    +0.000 A 
ATOM     23  C   UNL     1       7.221   4.712  17.410  0.00  0.00    +0.000 A 
ATOM     24  C   UNL     1       6.042   4.680  18.147  0.00  0.00    +0.000 A 
ATOM     25  F   UNL     1       6.112   4.915  19.464  0.00  0.00    +0.000 F 
ENDBRANCH  17  19
ENDBRANCH  12  17
TORSDOF 3
ENDMDL
MODEL 6
REMARK VINA RESULT:      -7.4      1.156      1.309
REMARK  Name = 
REMARK  3 active torsions:
REMARK  status: ('A' for Active; 'I' for Inactive)
REMARK    1  A    between atoms: N_1  and  C_2
REMARK    2  A    between atoms: C_13  and  C_14
REMARK    3  A    between atoms: C_14  and  C_16
REMARK                            x       y       z     vdW  Elec       q    Type
REMARK                         _______ _______ _______ _____ _____    ______ ____
ROOT
ATOM      1  C   UNL     1       7.824   6.180  19.063  0.00  0.00    +0.000 A 
ATOM      2  N   UNL     1       8.387   7.401  18.864  0.00  0.00    +0.000 NA
ATOM      3  C   UNL     1       7.833   8.024  17.853  0.00  0.00    +0.000 A 
ATOM      4  N   UNL     1       8.120   9.282  17.452  0.00  0.00    +0.000 N 
ATOM      5  C   UNL     1       8.713  10.285  18.220  0.00  0.00    +0.000 A 
ATOM      6  C   UNL     1       9.468  10.044  19.368  0.00  0.00    +0.000 A 
ATOM      7  C   UNL     1       9.946  11.107  20.131  0.00  0.00    +0.000 A 
ATOM      8  C   UNL     1       9.687  12.397  19.716  0.00  0.00    +0.000 A 
ATOM      9  C   UNL     1       8.975  12.566  18.542  0.00  0.00    +0.000 A 
ATOM     10  N   UNL     1       8.487  11.548  17.795  0.00  0.00    +0.000 NA
ATOM     11  S   UNL     1       6.632   7.091  17.037  0.00  0.00    +0.000 S 
ATOM     12  C   UNL     1       6.796   5.837  18.214  0.00  0.00    +0.000 A 
ATOM     13  H   UNL     1       7.582   9.702  16.705  0.00  0.00    +0.000 HD
ENDROOT
BRANCH   1  14
ATOM     14  N   UNL     1       8.354   5.492  20.083  0.00  0.00    +0.000 N 
ATOM     15  H   UNL     1       9.311   5.734  20.330  0.00  0.00    +0.000 HD
ATOM     16  H   UNL     1       7.831   5.106  20.855  0.00  0.00    +0.000 HD
ENDBRANCH   1  14
BRANCH  12  17
ATOM     17  C   UNL     1       5.923   4.684  18.143  0.00  0.00    +0.000 C 
ATOM     18  O   UNL     1       6.313   3.543  17.869  0.00  0.00    +0.000 OA
BRANCH  17  19
ATOM     19  C   UNL     1       4.473   4.819  18.431  0.00  0.00    +0.000 A 
ATOM     20  C   UNL     1       4.072   5.382  19.651  0.00  0.00    +0.000 A 
ATOM     21  C   UNL     1       2.717   5.590  19.915  0.00  0.00    +0.000 A 
ATOM     22  C   UNL     1       1.756   5.241  18.964  0.00  0.00    +0.000 A 
ATOM     23  C   UNL     1       2.148   4.637  17.770  0.00  0.00    +0.000 A 
ATOM     24  C   UNL     1       3.497   4.401  17.524  0.00  0.00    +0.000 A 
ATOM     25  F   UNL     1       3.833   3.786  16.383  0.00  0.00    +0.000 F 
ENDBRANCH  17  19
ENDBRANCH  12  17
TORSDOF 3
ENDMDL
MODEL 7
REMARK VINA RESULT:      -7.3      5.267      6.608
REMARK  Name = 
REMARK  3 active torsions:
REMARK  status: ('A' for Active; 'I' for Inactive)
REMARK    1  A    between atoms: N_1  and  C_2
REMARK    2  A    between atoms: C_13  and  C_14
REMARK    3  A    between atoms: C_14  and  C_16
REMARK                            x       y       z     vdW  Elec       q    Type
REMARK                         _______ _______ _______ _____ _____    ______ ____
ROOT
ATOM      1  C   UNL     1       2.060   7.474  19.858  0.00  0.00    +0.000 A 
ATOM      2  N   UNL     1       1.514   8.718  19.908  0.00  0.00    +0.000 NA
ATOM      3  C   UNL     1       1.630   9.337  18.759  0.00  0.00    +0.000 A 
ATOM      4  N   UNL     1       1.122  10.555  18.467  0.00  0.00    +0.000 N 
ATOM      5  C   UNL     1       0.074  11.198  19.125  0.00  0.00    +0.000 A 
ATOM      6  C   UNL     1      -0.343  10.886  20.420  0.00  0.00    +0.000 A 
ATOM      7  C   UNL     1      -1.459  11.512  20.970  0.00  0.00    +0.000 A 
ATOM      8  C   UNL     1      -2.125  12.465  20.226  0.00  0.00    +0.000 A 
ATOM      9  C   UNL     1      -1.630  12.763  18.969  0.00  0.00    +0.000 A 
ATOM     10  N   UNL     1      -0.557  12.156  18.410  0.00  0.00    +0.000 NA
ATOM     11  S   UNL     1       2.501   8.438  17.571  0.00  0.00    +0.000 S 
ATOM     12  C   UNL     1       2.598   7.092  18.650  0.00  0.00    +0.000 A 
ATOM     13  H   UNL     1       1.201  10.915  17.525  0.00  0.00    +0.000 HD
ENDROOT
BRANCH   1  14
ATOM     14  N   UNL     1       1.975   6.793  21.009  0.00  0.00    +0.000 N 
ATOM     15  H   UNL     1       1.196   7.041  21.615  0.00  0.00    +0.000 HD
ATOM     16  H   UNL     1       2.297   5.846  21.146  0.00  0.00    +0.000 HD
ENDBRANCH   1  14
BRANCH  12  17
ATOM     17  C   UNL     1       3.199   5.858  18.188  0.00  0.00    +0.000 C 
ATOM     18  O   UNL     1       4.168   5.812  17.423  0.00  0.00    +0.000 OA
BRANCH  17  19
ATOM     19  C   UNL     1       2.675   4.548  18.649  0.00  0.00    +0.000 A 
ATOM     20  C   UNL     1       3.381   3.842  19.634  0.00  0.00    +0.000 A 
ATOM     21  C   UNL     1       2.870   2.645  20.139  0.00  0.00    +0.000 A 
ATOM     22  C   UNL     1       1.655   2.146  19.666  0.00  0.00    +0.000 A 
ATOM     23  C   UNL     1       0.975   2.820  18.652  0.00  0.00    +0.000 A 
ATOM     24  C   UNL     1       1.502   3.996  18.129  0.00  0.00    +0.000 A 
ATOM     25  F   UNL     1       0.841   4.596  17.130  0.00  0.00    +0.000 F 
ENDBRANCH  17  19
ENDBRANCH  12  17
TORSDOF 3
ENDMDL
MODEL 8
REMARK VINA RESULT:      -7.3      4.432      6.506
REMARK  Name = 
REMARK  3 active torsions:
REMARK  status: ('A' for Active; 'I' for Inactive)
REMARK    1  A    between atoms: N_1  and  C_2
REMARK    2  A    between atoms: C_13  and  C_14
REMARK    3  A    between atoms: C_14  and  C_16
REMARK                            x       y       z     vdW  Elec       q    Type
REMARK                         _______ _______ _______ _____ _____    ______ ____
ROOT
ATOM      1  C   UNL     1       3.591   6.638  18.230  0.00  0.00    +0.000 A 
ATOM      2  N   UNL     1       2.592   7.307  18.863  0.00  0.00    +0.000 NA
ATOM      3  C   UNL     1       2.222   6.689  19.958  0.00  0.00    +0.000 A 
ATOM      4  N   UNL     1       1.307   7.139  20.844  0.00  0.00    +0.000 N 
ATOM      5  C   UNL     1       0.891   8.460  21.011  0.00  0.00    +0.000 A 
ATOM      6  C   UNL     1       1.036   9.452  20.041  0.00  0.00    +0.000 A 
ATOM      7  C   UNL     1       0.679  10.769  20.323  0.00  0.00    +0.000 A 
ATOM      8  C   UNL     1       0.153  11.068  21.563  0.00  0.00    +0.000 A 
ATOM      9  C   UNL     1      -0.011  10.028  22.461  0.00  0.00    +0.000 A 
ATOM     10  N   UNL     1       0.344   8.746  22.214  0.00  0.00    +0.000 NA
ATOM     11  S   UNL     1       3.042   5.193  20.220  0.00  0.00    +0.000 S 
ATOM     12  C   UNL     1       4.036   5.486  18.838  0.00  0.00    +0.000 A 
ATOM     13  H   UNL     1       1.146   6.623  21.700  0.00  0.00    +0.000 HD
ENDROOT
BRANCH   1  14
ATOM     14  N   UNL     1       4.008   7.221  17.097  0.00  0.00    +0.000 N 
ATOM     15  H   UNL     1       5.008   7.402  17.034  0.00  0.00    +0.000 HD
ATOM     16  H   UNL     1       3.567   7.116  16.196  0.00  0.00    +0.000 HD
ENDBRANCH   1  14
BRANCH  12  17
ATOM     17  C   UNL     1       5.096   4.553  18.520  0.00  0.00    +0.000 C 
ATOM     18  O   UNL     1       5.554   3.734  19.324  0.00  0.00    +0.000 OA
BRANCH  17  19
ATOM     19  C   UNL     1       5.684   4.519  17.157  0.00  0.00    +0.000 A 
ATOM     20  C   UNL     1       4.926   3.987  16.103  0.00  0.00    +0.000 A 
ATOM     21  C   UNL     1       5.426   4.012  14.799  0.00  0.00    +0.000 A 
ATOM     22  C   UNL     1       6.680   4.568  14.539  0.00  0.00    +0.000 A 
ATOM     23  C   UNL     1       7.456   5.053  15.591  0.00  0.00    +0.000 A 
ATOM     24  C   UNL     1       6.969   4.997  16.893  0.00  0.00    +0.000 A 
ATOM     25  F   UNL     1       7.758   5.438  17.882  0.00  0.00    +0.000 F 
ENDBRANCH  17  19
ENDBRANCH  12  17
TORSDOF 3
ENDMDL
MODEL 9
REMARK VINA RESULT:      -7.1      6.202      8.927
REMARK  Name = 
REMARK  3 active torsions:
REMARK  status: ('A' for Active; 'I' for Inactive)
REMARK    1  A    between atoms: N_1  and  C_2
REMARK    2  A    between atoms: C_13  and  C_14
REMARK    3  A    between atoms: C_14  and  C_16
REMARK                            x       y       z     vdW  Elec       q    Type
REMARK                         _______ _______ _______ _____ _____    ______ ____
ROOT
ATOM      1  C   UNL     1       1.854   8.670  18.706  0.00  0.00    +0.000 A 
ATOM      2  N   UNL     1       2.219   7.437  19.146  0.00  0.00    +0.000 NA
ATOM      3  C   UNL     1       1.811   7.228  20.374  0.00  0.00    +0.000 A 
ATOM      4  N   UNL     1       1.951   6.074  21.063  0.00  0.00    +0.000 N 
ATOM      5  C   UNL     1       2.158   4.804  20.526  0.00  0.00    +0.000 A 
ATOM      6  C   UNL     1       2.658   4.572  19.243  0.00  0.00    +0.000 A 
ATOM      7  C   UNL     1       2.746   3.273  18.748  0.00  0.00    +0.000 A 
ATOM      8  C   UNL     1       2.362   2.222  19.554  0.00  0.00    +0.000 A 
ATOM      9  C   UNL     1       1.923   2.518  20.833  0.00  0.00    +0.000 A 
ATOM     10  N   UNL     1       1.814   3.772  21.328  0.00  0.00    +0.000 NA
ATOM     11  S   UNL     1       1.020   8.588  21.083  0.00  0.00    +0.000 S 
ATOM     12  C   UNL     1       1.131   9.443  19.585  0.00  0.00    +0.000 A 
ATOM     13  H   UNL     1       1.533   5.989  21.981  0.00  0.00    +0.000 HD
ENDROOT
BRANCH   1  14
ATOM     14  N   UNL     1       2.250   8.943  17.455  0.00  0.00    +0.000 N 
ATOM     15  H   UNL     1       1.554   9.385  16.857  0.00  0.00    +0.000 HD
ATOM     16  H   UNL     1       3.198   9.152  17.181  0.00  0.00    +0.000 HD
ENDBRANCH   1  14
BRANCH  12  17
ATOM     17  C   UNL     1       0.521  10.751  19.472  0.00  0.00    +0.000 C 
ATOM     18  O   UNL     1       1.079  11.800  19.813  0.00  0.00    +0.000 OA
BRANCH  17  19
ATOM     19  C   UNL     1      -0.840  10.899  18.899  0.00  0.00    +0.000 A 
ATOM     20  C   UNL     1      -1.187  10.145  17.768  0.00  0.00    +0.000 A 
ATOM     21  C   UNL     1      -2.484  10.209  17.255  0.00  0.00    +0.000 A 
ATOM     22  C   UNL     1      -3.441  11.023  17.865  0.00  0.00    +0.000 A 
ATOM     23  C   UNL     1      -3.086  11.811  18.960  0.00  0.00    +0.000 A 
ATOM     24  C   UNL     1      -1.784  11.769  19.450  0.00  0.00    +0.000 A 
ATOM     25  F   UNL     1      -1.470  12.567  20.479  0.00  0.00    +0.000 F 
ENDBRANCH  17  19
ENDBRANCH  12  17
TORSDOF 3
ENDMDL
