MODEL 1
REMARK VINA RESULT:      -5.9      0.000      0.000
REMARK  Name = 
REMARK  0 active torsions:
REMARK  status: ('A' for Active; 'I' for Inactive)
REMARK                            x       y       z     vdW  Elec       q    Type
REMARK                         _______ _______ _______ _____ _____    ______ ____
ROOT
ATOM      1  C   UNL     1       2.123   2.455  19.667  0.00  0.00    +0.000 A 
ATOM      2  C   UNL     1       1.741   2.595  18.294  0.00  0.00    +0.000 A 
ATOM      3  C   UNL     1       2.572   3.139  17.294  0.00  0.00    +0.000 A 
ATOM      4  C   UNL     1       3.800   3.512  17.822  0.00  0.00    +0.000 A 
ATOM      5  C   UNL     1       4.850   4.050  17.150  0.00  0.00    +0.000 A 
ATOM      6  N   UNL     1       5.824   4.217  18.077  0.00  0.00    +0.000 N 
ATOM      7  N   UNL     1       5.509   3.852  19.328  0.00  0.00    +0.000 NA
ATOM      8  C   UNL     1       4.243   3.390  19.205  0.00  0.00    +0.000 A 
ATOM      9  C   UNL     1       3.383   2.848  20.176  0.00  0.00    +0.000 A 
ATOM     10  C   UNL     1       7.074   4.814  17.660  0.00  0.00    +0.000 C 
ATOM     11  C   UNL     1       7.105   4.686  16.135  0.00  0.00    +0.000 C 
ATOM     12  S   UNL     1       5.351   4.539  15.581  0.00  0.00    +0.000 S 
ENDROOT
TORSDOF 0
ENDMDL
MODEL 2
REMARK VINA RESULT:      -5.8      1.926      2.297
REMARK  Name = 
REMARK  0 active torsions:
REMARK  status: ('A' for Active; 'I' for Inactive)
REMARK                            x       y       z     vdW  Elec       q    Type
REMARK                         _______ _______ _______ _____ _____    ______ ____
ROOT
ATOM      1  C   UNL     1       1.035   2.912  20.232  0.00  0.00    +0.000 A 
ATOM      2  C   UNL     1       1.156   4.319  20.467  0.00  0.00    +0.000 A 
ATOM      3  C   UNL     1       2.044   5.163  19.771  0.00  0.00    +0.000 A 
ATOM      4  C   UNL     1       2.775   4.445  18.833  0.00  0.00    +0.000 A 
ATOM      5  C   UNL     1       3.704   4.932  17.973  0.00  0.00    +0.000 A 
ATOM      6  N   UNL     1       4.118   3.866  17.247  0.00  0.00    +0.000 N 
ATOM      7  N   UNL     1       3.554   2.691  17.561  0.00  0.00    +0.000 NA
ATOM      8  C   UNL     1       2.690   3.018  18.550  0.00  0.00    +0.000 A 
ATOM      9  C   UNL     1       1.796   2.207  19.272  0.00  0.00    +0.000 A 
ATOM     10  C   UNL     1       5.150   4.069  16.254  0.00  0.00    +0.000 C 
ATOM     11  C   UNL     1       5.179   5.577  15.991  0.00  0.00    +0.000 C 
ATOM     12  S   UNL     1       4.478   6.389  17.492  0.00  0.00    +0.000 S 
ENDROOT
TORSDOF 0
ENDMDL
MODEL 3
REMARK VINA RESULT:      -5.7      1.225      1.228
REMARK  Name = 
REMARK  0 active torsions:
REMARK  status: ('A' for Active; 'I' for Inactive)
REMARK                            x       y       z     vdW  Elec       q    Type
REMARK                         _______ _______ _______ _____ _____    ______ ____
ROOT
ATOM      1  C   UNL     1       1.814   2.556  19.260  0.00  0.00    +0.000 A 
ATOM      2  C   UNL     1       1.336   3.532  18.328  0.00  0.00    +0.000 A 
ATOM      3  C   UNL     1       2.141   4.534  17.750  0.00  0.00    +0.000 A 
ATOM      4  C   UNL     1       3.449   4.441  18.206  0.00  0.00    +0.000 A 
ATOM      5  C   UNL     1       4.497   5.225  17.849  0.00  0.00    +0.000 A 
ATOM      6  N   UNL     1       5.561   4.737  18.531  0.00  0.00    +0.000 N 
ATOM      7  N   UNL     1       5.312   3.695  19.336  0.00  0.00    +0.000 NA
ATOM      8  C   UNL     1       3.990   3.470  19.149  0.00  0.00    +0.000 A 
ATOM      9  C   UNL     1       3.154   2.489  19.709  0.00  0.00    +0.000 A 
ATOM     10  C   UNL     1       6.838   5.401  18.380  0.00  0.00    +0.000 C 
ATOM     11  C   UNL     1       6.719   6.238  17.104  0.00  0.00    +0.000 C 
ATOM     12  S   UNL     1       4.920   6.552  16.843  0.00  0.00    +0.000 S 
ENDROOT
TORSDOF 0
ENDMDL
MODEL 4
REMARK VINA RESULT:      -5.7      1.432      1.440
REMARK  Name = 
REMARK  0 active torsions:
REMARK  status: ('A' for Active; 'I' for Inactive)
REMARK                            x       y       z     vdW  Elec       q    Type
REMARK                         _______ _______ _______ _____ _____    ______ ____
ROOT
ATOM      1  C   UNL     1       1.026   3.831  19.989  0.00  0.00    +0.000 A 
ATOM      2  C   UNL     1       1.066   3.121  18.746  0.00  0.00    +0.000 A 
ATOM      3  C   UNL     1       2.126   3.207  17.821  0.00  0.00    +0.000 A 
ATOM      4  C   UNL     1       3.114   4.066  18.280  0.00  0.00    +0.000 A 
ATOM      5  C   UNL     1       4.284   4.373  17.664  0.00  0.00    +0.000 A 
ATOM      6  N   UNL     1       4.922   5.224  18.503  0.00  0.00    +0.000 N 
ATOM      7  N   UNL     1       4.268   5.532  19.631  0.00  0.00    +0.000 NA
ATOM      8  C   UNL     1       3.127   4.810  19.534  0.00  0.00    +0.000 A 
ATOM      9  C   UNL     1       2.048   4.704  20.429  0.00  0.00    +0.000 A 
ATOM     10  C   UNL     1       6.202   5.760  18.094  0.00  0.00    +0.000 C 
ATOM     11  C   UNL     1       6.698   4.840  16.976  0.00  0.00    +0.000 C 
ATOM     12  S   UNL     1       5.203   4.035  16.252  0.00  0.00    +0.000 S 
ENDROOT
TORSDOF 0
ENDMDL
MODEL 5
REMARK VINA RESULT:      -5.7      1.441      4.124
REMARK  Name = 
REMARK  0 active torsions:
REMARK  status: ('A' for Active; 'I' for Inactive)
REMARK                            x       y       z     vdW  Elec       q    Type
REMARK                         _______ _______ _______ _____ _____    ______ ____
ROOT
ATOM      1  C   UNL     1       7.118   5.412  16.207  0.00  0.00    +0.000 A 
ATOM      2  C   UNL     1       6.065   5.008  15.325  0.00  0.00    +0.000 A 
ATOM      3  C   UNL     1       4.928   4.280  15.732  0.00  0.00    +0.000 A 
ATOM      4  C   UNL     1       4.972   4.017  17.094  0.00  0.00    +0.000 A 
ATOM      5  C   UNL     1       4.041   3.360  17.831  0.00  0.00    +0.000 A 
ATOM      6  N   UNL     1       4.510   3.376  19.102  0.00  0.00    +0.000 N 
ATOM      7  N   UNL     1       5.695   3.976  19.280  0.00  0.00    +0.000 NA
ATOM      8  C   UNL     1       6.014   4.406  18.037  0.00  0.00    +0.000 A 
ATOM      9  C   UNL     1       7.137   5.125  17.592  0.00  0.00    +0.000 A 
ATOM     10  C   UNL     1       3.737   2.709  20.128  0.00  0.00    +0.000 C 
ATOM     11  C   UNL     1       2.333   2.540  19.542  0.00  0.00    +0.000 C 
ATOM     12  S   UNL     1       2.518   2.575  17.707  0.00  0.00    +0.000 S 
ENDROOT
TORSDOF 0
ENDMDL
MODEL 6
REMARK VINA RESULT:      -5.7      1.902      4.332
REMARK  Name = 
REMARK  0 active torsions:
REMARK  status: ('A' for Active; 'I' for Inactive)
REMARK                            x       y       z     vdW  Elec       q    Type
REMARK                         _______ _______ _______ _____ _____    ______ ____
ROOT
ATOM      1  C   UNL     1       7.313   6.559  17.805  0.00  0.00    +0.000 A 
ATOM      2  C   UNL     1       6.199   7.111  17.095  0.00  0.00    +0.000 A 
ATOM      3  C   UNL     1       4.894   6.580  17.137  0.00  0.00    +0.000 A 
ATOM      4  C   UNL     1       4.842   5.461  17.957  0.00  0.00    +0.000 A 
ATOM      5  C   UNL     1       3.750   4.710  18.247  0.00  0.00    +0.000 A 
ATOM      6  N   UNL     1       4.187   3.753  19.101  0.00  0.00    +0.000 N 
ATOM      7  N   UNL     1       5.494   3.787  19.397  0.00  0.00    +0.000 NA
ATOM      8  C   UNL     1       5.940   4.860  18.704  0.00  0.00    +0.000 A 
ATOM      9  C   UNL     1       7.230   5.414  18.631  0.00  0.00    +0.000 A 
ATOM     10  C   UNL     1       3.240   2.763  19.567  0.00  0.00    +0.000 C 
ATOM     11  C   UNL     1       1.856   3.356  19.295  0.00  0.00    +0.000 C 
ATOM     12  S   UNL     1       2.065   4.586  17.935  0.00  0.00    +0.000 S 
ENDROOT
TORSDOF 0
ENDMDL
MODEL 7
REMARK VINA RESULT:      -5.7      1.842      2.511
REMARK  Name = 
REMARK  0 active torsions:
REMARK  status: ('A' for Active; 'I' for Inactive)
REMARK                            x       y       z     vdW  Elec       q    Type
REMARK                         _______ _______ _______ _____ _____    ______ ____
ROOT
ATOM      1  C   UNL     1       0.620   3.055  19.937  0.00  0.00    +0.000 A 
ATOM      2  C   UNL     1       1.398   3.801  20.880  0.00  0.00    +0.000 A 
ATOM      3  C   UNL     1       2.679   4.323  20.610  0.00  0.00    +0.000 A 
ATOM      4  C   UNL     1       3.073   4.019  19.314  0.00  0.00    +0.000 A 
ATOM      5  C   UNL     1       4.233   4.376  18.706  0.00  0.00    +0.000 A 
ATOM      6  N   UNL     1       4.151   3.875  17.450  0.00  0.00    +0.000 N 
ATOM      7  N   UNL     1       3.035   3.190  17.166  0.00  0.00    +0.000 NA
ATOM      8  C   UNL     1       2.323   3.269  18.314  0.00  0.00    +0.000 A 
ATOM      9  C   UNL     1       1.051   2.757  18.624  0.00  0.00    +0.000 A 
ATOM     10  C   UNL     1       5.274   4.068  16.559  0.00  0.00    +0.000 C 
ATOM     11  C   UNL     1       6.095   5.207  17.169  0.00  0.00    +0.000 C 
ATOM     12  S   UNL     1       5.693   5.241  18.970  0.00  0.00    +0.000 S 
ENDROOT
TORSDOF 0
ENDMDL
MODEL 8
REMARK VINA RESULT:      -5.7      1.763      1.910
REMARK  Name = 
REMARK  0 active torsions:
REMARK  status: ('A' for Active; 'I' for Inactive)
REMARK                            x       y       z     vdW  Elec       q    Type
REMARK                         _______ _______ _______ _____ _____    ______ ____
ROOT
ATOM      1  C   UNL     1       1.605   3.003  21.102  0.00  0.00    +0.000 A 
ATOM      2  C   UNL     1       1.061   4.179  20.493  0.00  0.00    +0.000 A 
ATOM      3  C   UNL     1       1.776   5.018  19.616  0.00  0.00    +0.000 A 
ATOM      4  C   UNL     1       3.068   4.546  19.424  0.00  0.00    +0.000 A 
ATOM      5  C   UNL     1       4.027   5.086  18.631  0.00  0.00    +0.000 A 
ATOM      6  N   UNL     1       5.099   4.266  18.751  0.00  0.00    +0.000 N 
ATOM      7  N   UNL     1       4.946   3.222  19.578  0.00  0.00    +0.000 NA
ATOM      8  C   UNL     1       3.672   3.357  20.013  0.00  0.00    +0.000 A 
ATOM      9  C   UNL     1       2.928   2.549  20.891  0.00  0.00    +0.000 A 
ATOM     10  C   UNL     1       6.309   4.608  18.037  0.00  0.00    +0.000 C 
ATOM     11  C   UNL     1       5.884   5.607  16.958  0.00  0.00    +0.000 C 
ATOM     12  S   UNL     1       4.319   6.387  17.547  0.00  0.00    +0.000 S 
ENDROOT
TORSDOF 0
ENDMDL
MODEL 9
REMARK VINA RESULT:      -5.6      2.553      4.557
REMARK  Name = 
REMARK  0 active torsions:
REMARK  status: ('A' for Active; 'I' for Inactive)
REMARK                            x       y       z     vdW  Elec       q    Type
REMARK                         _______ _______ _______ _____ _____    ______ ____
ROOT
ATOM      1  C   UNL     1       5.232   5.396  15.997  0.00  0.00    +0.000 A 
ATOM      2  C   UNL     1       4.749   6.531  16.725  0.00  0.00    +0.000 A 
ATOM      3  C   UNL     1       3.900   6.447  17.846  0.00  0.00    +0.000 A 
ATOM      4  C   UNL     1       3.604   5.124  18.144  0.00  0.00    +0.000 A 
ATOM      5  C   UNL     1       2.835   4.667  19.165  0.00  0.00    +0.000 A 
ATOM      6  N   UNL     1       2.862   3.317  19.061  0.00  0.00    +0.000 N 
ATOM      7  N   UNL     1       3.574   2.824  18.038  0.00  0.00    +0.000 NA
ATOM      8  C   UNL     1       4.068   3.934  17.443  0.00  0.00    +0.000 A 
ATOM      9  C   UNL     1       4.909   4.058  16.323  0.00  0.00    +0.000 A 
ATOM     10  C   UNL     1       2.093   2.539  20.008  0.00  0.00    +0.000 C 
ATOM     11  C   UNL     1       1.799   3.484  21.176  0.00  0.00    +0.000 C 
ATOM     12  S   UNL     1       1.905   5.200  20.508  0.00  0.00    +0.000 S 
ENDROOT
TORSDOF 0
ENDMDL
