MODEL 1
REMARK VINA RESULT:      -9.1      0.000      0.000
REMARK  Name = 
REMARK  8 active torsions:
REMARK  status: ('A' for Active; 'I' for Inactive)
REMARK    1  A    between atoms: C_1  and  O_2
REMARK    2  A    between atoms: O_2  and  C_3
REMARK    3  A    between atoms: C_6  and  N_7
REMARK    4  A    between atoms: C_8  and  C_10
REMARK    5  A    between atoms: C_10  and  N_11
REMARK    6  A    between atoms: N_11  and  C_12
REMARK    7  A    between atoms: C_13  and  C_15
REMARK    8  A    between atoms: C_17  and  C_18
REMARK                            x       y       z     vdW  Elec       q    Type
REMARK                         _______ _______ _______ _____ _____    ______ ____
ROOT
ATOM      1  N   UNL     1       1.397   8.670  19.871  0.00  0.00    +0.000 N 
ATOM      2  C   UNL     1       1.093   8.522  21.348  0.00  0.00    +0.000 C 
ATOM      3  C   UNL     1       2.017   7.606  18.871  0.00  0.00    +0.000 C 
ATOM      4  O   UNL     1       2.063   7.984  17.723  0.00  0.00    +0.000 OA
ENDROOT
BRANCH   3   5
ATOM      5  C   UNL     1       2.357   5.958  19.390  0.00  0.00    +0.000 A 
ATOM      6  C   UNL     1       3.561   6.231  19.601  0.00  0.00    +0.000 A 
ATOM      7  C   UNL     1       4.520   5.600  18.815  0.00  0.00    +0.000 A 
ATOM      8  N   UNL     1       4.774   4.461  19.394  0.00  0.00    +0.000 NA
ATOM      9  C   UNL     1       3.679   3.734  19.338  0.00  0.00    +0.000 A 
ATOM     10  C   UNL     1       3.984   2.438  18.975  0.00  0.00    +0.000 A 
ATOM     11  C   UNL     1       3.011   1.498  18.755  0.00  0.00    +0.000 A 
ATOM     12  C   UNL     1       1.731   1.889  19.096  0.00  0.00    +0.000 A 
ATOM     13  C   UNL     1       1.400   3.278  19.401  0.00  0.00    +0.000 A 
ATOM     14  C   UNL     1       2.333   4.380  19.349  0.00  0.00    +0.000 A 
BRANCH   7  15
ATOM     15  C   UNL     1       4.605   5.390  17.326  0.00  0.00    +0.000 A 
ATOM     16  C   UNL     1       4.657   6.584  16.611  0.00  0.00    +0.000 A 
ATOM     17  C   UNL     1       5.318   6.600  15.406  0.00  0.00    +0.000 A 
ATOM     18  N   UNL     1       5.904   5.521  14.844  0.00  0.00    +0.000 NA
ATOM     19  C   UNL     1       5.787   4.353  15.504  0.00  0.00    +0.000 A 
ATOM     20  C   UNL     1       5.097   4.219  16.701  0.00  0.00    +0.000 A 
ENDBRANCH   7  15
ENDBRANCH   3   5
BRANCH   1  21
ATOM     21  C   UNL     1       0.941  10.080  19.421  0.00  0.00    +0.000 C 
BRANCH  21  23
ATOM     22  N   UNL     1      -1.524  10.354  18.635  0.00  0.00    +0.000 N 
ATOM     23  C   UNL     1      -0.337  10.970  18.996  0.00  0.00    +0.000 C 
ATOM     24  O   UNL     1      -0.180  12.199  18.971  0.00  0.00    +0.000 OA
ATOM     25  H   UNL     1      -1.503   9.342  18.701  0.00  0.00    +0.000 HD
BRANCH  22  29
ATOM     26  C   UNL     1      -5.270  12.089  17.291  0.00  0.00    +0.000 A 
ATOM     27  C   UNL     1      -4.821  12.320  18.592  0.00  0.00    +0.000 A 
ATOM     28  C   UNL     1      -3.585  11.791  19.063  0.00  0.00    +0.000 A 
ATOM     29  C   UNL     1      -2.769  10.986  18.252  0.00  0.00    +0.000 A 
ATOM     30  C   UNL     1      -3.238  10.774  16.943  0.00  0.00    +0.000 A 
ATOM     31  C   UNL     1      -4.466  11.312  16.466  0.00  0.00    +0.000 A 
BRANCH  26  33
ATOM     32  C   UNL     1      -7.450  12.775  18.019  0.00  0.00    +0.000 C 
ATOM     33  O   UNL     1      -6.492  12.622  16.971  0.00  0.00    +0.000 OA
ENDBRANCH  26  33
ENDBRANCH  22  29
ENDBRANCH  21  23
ENDBRANCH   1  21
TORSDOF 6
ENDMDL
MODEL 2
REMARK VINA RESULT:      -8.7      3.563      4.860
REMARK  Name = 
REMARK  8 active torsions:
REMARK  status: ('A' for Active; 'I' for Inactive)
REMARK    1  A    between atoms: C_1  and  O_2
REMARK    2  A    between atoms: O_2  and  C_3
REMARK    3  A    between atoms: C_6  and  N_7
REMARK    4  A    between atoms: C_8  and  C_10
REMARK    5  A    between atoms: C_10  and  N_11
REMARK    6  A    between atoms: N_11  and  C_12
REMARK    7  A    between atoms: C_13  and  C_15
REMARK    8  A    between atoms: C_17  and  C_18
REMARK                            x       y       z     vdW  Elec       q    Type
REMARK                         _______ _______ _______ _____ _____    ______ ____
ROOT
ATOM      1  N   UNL     1       1.528   8.952  19.177  0.00  0.00    +0.000 N 
ATOM      2  C   UNL     1       0.877   8.744  20.529  0.00  0.00    +0.000 C 
ATOM      3  C   UNL     1       2.298   7.902  18.271  0.00  0.00    +0.000 C 
ATOM      4  O   UNL     1       2.636   8.340  17.196  0.00  0.00    +0.000 OA
ENDROOT
BRANCH   3   5
ATOM      5  C   UNL     1       2.403   6.206  18.732  0.00  0.00    +0.000 A 
ATOM      6  C   UNL     1       3.377   6.430  19.486  0.00  0.00    +0.000 A 
ATOM      7  C   UNL     1       4.600   5.853  19.161  0.00  0.00    +0.000 A 
ATOM      8  N   UNL     1       4.590   4.659  19.684  0.00  0.00    +0.000 NA
ATOM      9  C   UNL     1       3.654   3.966  19.074  0.00  0.00    +0.000 A 
ATOM     10  C   UNL     1       4.117   2.703  18.768  0.00  0.00    +0.000 A 
ATOM     11  C   UNL     1       3.367   1.810  18.047  0.00  0.00    +0.000 A 
ATOM     12  C   UNL     1       2.063   2.197  17.809  0.00  0.00    +0.000 A 
ATOM     13  C   UNL     1       1.601   3.559  18.061  0.00  0.00    +0.000 A 
ATOM     14  C   UNL     1       2.433   4.639  18.537  0.00  0.00    +0.000 A 
BRANCH   7  15
ATOM     15  C   UNL     1       5.351   5.780  17.858  0.00  0.00    +0.000 A 
ATOM     16  C   UNL     1       6.651   5.303  18.006  0.00  0.00    +0.000 A 
ATOM     17  C   UNL     1       7.225   4.625  16.957  0.00  0.00    +0.000 A 
ATOM     18  N   UNL     1       6.622   4.408  15.768  0.00  0.00    +0.000 NA
ATOM     19  C   UNL     1       5.394   4.936  15.605  0.00  0.00    +0.000 A 
ATOM     20  C   UNL     1       4.747   5.681  16.582  0.00  0.00    +0.000 A 
ENDBRANCH   7  15
ENDBRANCH   3   5
BRANCH   1  21
ATOM     21  C   UNL     1       1.280  10.417  18.740  0.00  0.00    +0.000 C 
BRANCH  21  23
ATOM     22  N   UNL     1       1.476  12.874  19.573  0.00  0.00    +0.000 N 
ATOM     23  C   UNL     1       1.921  11.897  18.697  0.00  0.00    +0.000 C 
ATOM     24  O   UNL     1       2.778  12.112  17.828  0.00  0.00    +0.000 OA
ATOM     25  H   UNL     1       0.768  12.554  20.225  0.00  0.00    +0.000 HD
BRANCH  22  29
ATOM     26  C   UNL     1       2.661  17.041  19.867  0.00  0.00    +0.000 A 
ATOM     27  C   UNL     1       3.428  16.051  20.484  0.00  0.00    +0.000 A 
ATOM     28  C   UNL     1       3.088  14.671  20.389  0.00  0.00    +0.000 A 
ATOM     29  C   UNL     1       1.947  14.237  19.694  0.00  0.00    +0.000 A 
ATOM     30  C   UNL     1       1.195  15.251  19.073  0.00  0.00    +0.000 A 
ATOM     31  C   UNL     1       1.539  16.629  19.156  0.00  0.00    +0.000 A 
BRANCH  26  33
ATOM     32  C   UNL     1       3.804  18.629  21.253  0.00  0.00    +0.000 C 
ATOM     33  O   UNL     1       3.071  18.333  20.063  0.00  0.00    +0.000 OA
ENDBRANCH  26  33
ENDBRANCH  22  29
ENDBRANCH  21  23
ENDBRANCH   1  21
TORSDOF 6
ENDMDL
MODEL 3
REMARK VINA RESULT:      -8.7      2.898      4.574
REMARK  Name = 
REMARK  8 active torsions:
REMARK  status: ('A' for Active; 'I' for Inactive)
REMARK    1  A    between atoms: C_1  and  O_2
REMARK    2  A    between atoms: O_2  and  C_3
REMARK    3  A    between atoms: C_6  and  N_7
REMARK    4  A    between atoms: C_8  and  C_10
REMARK    5  A    between atoms: C_10  and  N_11
REMARK    6  A    between atoms: N_11  and  C_12
REMARK    7  A    between atoms: C_13  and  C_15
REMARK    8  A    between atoms: C_17  and  C_18
REMARK                            x       y       z     vdW  Elec       q    Type
REMARK                         _______ _______ _______ _____ _____    ______ ____
ROOT
ATOM      1  N   UNL     1       1.469   9.285  19.152  0.00  0.00    +0.000 N 
ATOM      2  C   UNL     1       1.536  10.137  17.901  0.00  0.00    +0.000 C 
ATOM      3  C   UNL     1       2.087   7.846  19.411  0.00  0.00    +0.000 C 
ATOM      4  O   UNL     1       1.943   7.450  20.544  0.00  0.00    +0.000 OA
ENDROOT
BRANCH   3   5
ATOM      5  C   UNL     1       3.092   7.056  18.201  0.00  0.00    +0.000 A 
ATOM      6  C   UNL     1       2.210   6.196  17.972  0.00  0.00    +0.000 A 
ATOM      7  C   UNL     1       2.495   4.870  18.284  0.00  0.00    +0.000 A 
ATOM      8  N   UNL     1       3.112   4.377  17.247  0.00  0.00    +0.000 NA
ATOM      9  C   UNL     1       4.260   5.009  17.129  0.00  0.00    +0.000 A 
ATOM     10  C   UNL     1       5.274   4.112  16.864  0.00  0.00    +0.000 A 
ATOM     11  C   UNL     1       6.586   4.502  16.787  0.00  0.00    +0.000 A 
ATOM     12  C   UNL     1       6.794   5.867  16.814  0.00  0.00    +0.000 A 
ATOM     13  C   UNL     1       5.734   6.806  17.174  0.00  0.00    +0.000 A 
ATOM     14  C   UNL     1       4.397   6.430  17.569  0.00  0.00    +0.000 A 
BRANCH   7  15
ATOM     15  C   UNL     1       3.091   4.244  19.517  0.00  0.00    +0.000 A 
ATOM     16  C   UNL     1       2.258   4.336  20.629  0.00  0.00    +0.000 A 
ATOM     17  C   UNL     1       2.338   3.357  21.591  0.00  0.00    +0.000 A 
ATOM     18  N   UNL     1       3.196   2.316  21.550  0.00  0.00    +0.000 NA
ATOM     19  C   UNL     1       4.049   2.273  20.509  0.00  0.00    +0.000 A 
ATOM     20  C   UNL     1       4.086   3.237  19.512  0.00  0.00    +0.000 A 
ENDBRANCH   7  15
ENDBRANCH   3   5
BRANCH   1  21
ATOM     21  C   UNL     1       0.709  10.081  20.241  0.00  0.00    +0.000 C 
BRANCH  21  23
ATOM     22  N   UNL     1      -0.815  11.507  21.794  0.00  0.00    +0.000 N 
ATOM     23  C   UNL     1      -0.623  10.939  20.545  0.00  0.00    +0.000 C 
ATOM     24  O   UNL     1      -1.459  11.019  19.634  0.00  0.00    +0.000 OA
ATOM     25  H   UNL     1      -0.048  11.356  22.440  0.00  0.00    +0.000 HD
BRANCH  22  29
ATOM     26  C   UNL     1      -4.140  13.832  23.341  0.00  0.00    +0.000 A 
ATOM     27  C   UNL     1      -3.443  14.273  22.214  0.00  0.00    +0.000 A 
ATOM     28  C   UNL     1      -2.364  13.527  21.660  0.00  0.00    +0.000 A 
ATOM     29  C   UNL     1      -1.926  12.322  22.236  0.00  0.00    +0.000 A 
ATOM     30  C   UNL     1      -2.649  11.893  23.364  0.00  0.00    +0.000 A 
ATOM     31  C   UNL     1      -3.735  12.631  23.913  0.00  0.00    +0.000 A 
BRANCH  26  33
ATOM     32  C   UNL     1      -6.159  15.042  22.881  0.00  0.00    +0.000 C 
ATOM     33  O   UNL     1      -5.133  14.658  23.798  0.00  0.00    +0.000 OA
ENDBRANCH  26  33
ENDBRANCH  22  29
ENDBRANCH  21  23
ENDBRANCH   1  21
TORSDOF 6
ENDMDL
MODEL 4
REMARK VINA RESULT:      -8.7      3.463      5.083
REMARK  Name = 
REMARK  8 active torsions:
REMARK  status: ('A' for Active; 'I' for Inactive)
REMARK    1  A    between atoms: C_1  and  O_2
REMARK    2  A    between atoms: O_2  and  C_3
REMARK    3  A    between atoms: C_6  and  N_7
REMARK    4  A    between atoms: C_8  and  C_10
REMARK    5  A    between atoms: C_10  and  N_11
REMARK    6  A    between atoms: N_11  and  C_12
REMARK    7  A    between atoms: C_13  and  C_15
REMARK    8  A    between atoms: C_17  and  C_18
REMARK                            x       y       z     vdW  Elec       q    Type
REMARK                         _______ _______ _______ _____ _____    ______ ____
ROOT
ATOM      1  N   UNL     1       1.536   8.911  19.210  0.00  0.00    +0.000 N 
ATOM      2  C   UNL     1       0.884   8.680  20.557  0.00  0.00    +0.000 C 
ATOM      3  C   UNL     1       2.306   7.876  18.286  0.00  0.00    +0.000 C 
ATOM      4  O   UNL     1       2.645   8.333  17.219  0.00  0.00    +0.000 OA
ENDROOT
BRANCH   3   5
ATOM      5  C   UNL     1       2.410   6.173  18.717  0.00  0.00    +0.000 A 
ATOM      6  C   UNL     1       3.367   6.387  19.497  0.00  0.00    +0.000 A 
ATOM      7  C   UNL     1       4.600   5.822  19.188  0.00  0.00    +0.000 A 
ATOM      8  N   UNL     1       4.584   4.619  19.688  0.00  0.00    +0.000 NA
ATOM      9  C   UNL     1       3.665   3.933  19.045  0.00  0.00    +0.000 A 
ATOM     10  C   UNL     1       4.142   2.678  18.726  0.00  0.00    +0.000 A 
ATOM     11  C   UNL     1       3.412   1.795  17.972  0.00  0.00    +0.000 A 
ATOM     12  C   UNL     1       2.111   2.180  17.714  0.00  0.00    +0.000 A 
ATOM     13  C   UNL     1       1.636   3.535  17.981  0.00  0.00    +0.000 A 
ATOM     14  C   UNL     1       2.453   4.610  18.495  0.00  0.00    +0.000 A 
BRANCH   7  15
ATOM     15  C   UNL     1       5.378   5.777  17.900  0.00  0.00    +0.000 A 
ATOM     16  C   UNL     1       6.667   5.273  18.061  0.00  0.00    +0.000 A 
ATOM     17  C   UNL     1       7.252   4.618  17.004  0.00  0.00    +0.000 A 
ATOM     18  N   UNL     1       6.673   4.449  15.796  0.00  0.00    +0.000 NA
ATOM     19  C   UNL     1       5.458   5.003  15.622  0.00  0.00    +0.000 A 
ATOM     20  C   UNL     1       4.802   5.729  16.607  0.00  0.00    +0.000 A 
ENDBRANCH   7  15
ENDBRANCH   3   5
BRANCH   1  21
ATOM     21  C   UNL     1       1.289  10.383  18.797  0.00  0.00    +0.000 C 
BRANCH  21  23
ATOM     22  N   UNL     1       2.510  12.681  18.788  0.00  0.00    +0.000 N 
ATOM     23  C   UNL     1       1.455  11.919  19.263  0.00  0.00    +0.000 C 
ATOM     24  O   UNL     1       0.630  12.349  20.082  0.00  0.00    +0.000 OA
ATOM     25  H   UNL     1       3.106  12.195  18.127  0.00  0.00    +0.000 HD
BRANCH  22  29
ATOM     26  C   UNL     1       3.576  16.767  19.794  0.00  0.00    +0.000 A 
ATOM     27  C   UNL     1       2.753  16.510  18.696  0.00  0.00    +0.000 A 
ATOM     28  C   UNL     1       2.358  15.186  18.349  0.00  0.00    +0.000 A 
ATOM     29  C   UNL     1       2.802  14.069  19.075  0.00  0.00    +0.000 A 
ATOM     30  C   UNL     1       3.623  14.353  20.182  0.00  0.00    +0.000 A 
ATOM     31  C   UNL     1       4.008  15.676  20.538  0.00  0.00    +0.000 A 
BRANCH  26  33
ATOM     32  C   UNL     1       3.688  18.631  21.299  0.00  0.00    +0.000 C 
ATOM     33  O   UNL     1       3.913  18.079  20.001  0.00  0.00    +0.000 OA
ENDBRANCH  26  33
ENDBRANCH  22  29
ENDBRANCH  21  23
ENDBRANCH   1  21
TORSDOF 6
ENDMDL
MODEL 5
REMARK VINA RESULT:      -8.6      3.208      4.893
REMARK  Name = 
REMARK  8 active torsions:
REMARK  status: ('A' for Active; 'I' for Inactive)
REMARK    1  A    between atoms: C_1  and  O_2
REMARK    2  A    between atoms: O_2  and  C_3
REMARK    3  A    between atoms: C_6  and  N_7
REMARK    4  A    between atoms: C_8  and  C_10
REMARK    5  A    between atoms: C_10  and  N_11
REMARK    6  A    between atoms: N_11  and  C_12
REMARK    7  A    between atoms: C_13  and  C_15
REMARK    8  A    between atoms: C_17  and  C_18
REMARK                            x       y       z     vdW  Elec       q    Type
REMARK                         _______ _______ _______ _____ _____    ______ ____
ROOT
ATOM      1  N   UNL     1       1.300   8.899  19.426  0.00  0.00    +0.000 N 
ATOM      2  C   UNL     1       1.230   9.802  18.212  0.00  0.00    +0.000 C 
ATOM      3  C   UNL     1       2.075   7.525  19.601  0.00  0.00    +0.000 C 
ATOM      4  O   UNL     1       2.016   7.072  20.720  0.00  0.00    +0.000 OA
ENDROOT
BRANCH   3   5
ATOM      5  C   UNL     1       3.114   6.897  18.326  0.00  0.00    +0.000 A 
ATOM      6  C   UNL     1       2.294   5.990  18.051  0.00  0.00    +0.000 A 
ATOM      7  C   UNL     1       2.683   4.672  18.267  0.00  0.00    +0.000 A 
ATOM      8  N   UNL     1       3.316   4.298  17.191  0.00  0.00    +0.000 NA
ATOM      9  C   UNL     1       4.410   5.021  17.101  0.00  0.00    +0.000 A 
ATOM     10  C   UNL     1       5.483   4.223  16.761  0.00  0.00    +0.000 A 
ATOM     11  C   UNL     1       6.761   4.716  16.693  0.00  0.00    +0.000 A 
ATOM     12  C   UNL     1       6.867   6.088  16.810  0.00  0.00    +0.000 A 
ATOM     13  C   UNL     1       5.748   6.917  17.249  0.00  0.00    +0.000 A 
ATOM     14  C   UNL     1       4.450   6.416  17.635  0.00  0.00    +0.000 A 
BRANCH   7  15
ATOM     15  C   UNL     1       3.347   4.011  19.446  0.00  0.00    +0.000 A 
ATOM     16  C   UNL     1       2.542   3.991  20.583  0.00  0.00    +0.000 A 
ATOM     17  C   UNL     1       2.703   2.966  21.484  0.00  0.00    +0.000 A 
ATOM     18  N   UNL     1       3.616   1.978  21.360  0.00  0.00    +0.000 NA
ATOM     19  C   UNL     1       4.441   2.044  20.297  0.00  0.00    +0.000 A 
ATOM     20  C   UNL     1       4.396   3.064  19.358  0.00  0.00    +0.000 A 
ENDBRANCH   7  15
ENDBRANCH   3   5
BRANCH   1  21
ATOM     21  C   UNL     1       0.499   9.564  20.572  0.00  0.00    +0.000 C 
BRANCH  21  23
ATOM     22  N   UNL     1      -0.795  11.025  22.293  0.00  0.00    +0.000 N 
ATOM     23  C   UNL     1      -0.344  10.875  20.991  0.00  0.00    +0.000 C 
ATOM     24  O   UNL     1      -0.594  11.691  20.093  0.00  0.00    +0.000 OA
ATOM     25  H   UNL     1      -0.516  10.275  22.917  0.00  0.00    +0.000 HD
BRANCH  22  29
ATOM     26  C   UNL     1      -2.847  14.509  23.873  0.00  0.00    +0.000 A 
ATOM     27  C   UNL     1      -3.524  13.295  23.753  0.00  0.00    +0.000 A 
ATOM     28  C   UNL     1      -2.880  12.123  23.264  0.00  0.00    +0.000 A 
ATOM     29  C   UNL     1      -1.537  12.135  22.851  0.00  0.00    +0.000 A 
ATOM     30  C   UNL     1      -0.873  13.367  22.989  0.00  0.00    +0.000 A 
ATOM     31  C   UNL     1      -1.511  14.537  23.489  0.00  0.00    +0.000 A 
BRANCH  26  33
ATOM     32  C   UNL     1      -4.058  16.514  23.356  0.00  0.00    +0.000 C 
ATOM     33  O   UNL     1      -3.588  15.572  24.321  0.00  0.00    +0.000 OA
ENDBRANCH  26  33
ENDBRANCH  22  29
ENDBRANCH  21  23
ENDBRANCH   1  21
TORSDOF 6
ENDMDL
MODEL 6
REMARK VINA RESULT:      -8.6      3.451      5.222
REMARK  Name = 
REMARK  8 active torsions:
REMARK  status: ('A' for Active; 'I' for Inactive)
REMARK    1  A    between atoms: C_1  and  O_2
REMARK    2  A    between atoms: O_2  and  C_3
REMARK    3  A    between atoms: C_6  and  N_7
REMARK    4  A    between atoms: C_8  and  C_10
REMARK    5  A    between atoms: C_10  and  N_11
REMARK    6  A    between atoms: N_11  and  C_12
REMARK    7  A    between atoms: C_13  and  C_15
REMARK    8  A    between atoms: C_17  and  C_18
REMARK                            x       y       z     vdW  Elec       q    Type
REMARK                         _______ _______ _______ _____ _____    ______ ____
ROOT
ATOM      1  N   UNL     1       1.260   8.893  18.992  0.00  0.00    +0.000 N 
ATOM      2  C   UNL     1       1.307   9.755  17.748  0.00  0.00    +0.000 C 
ATOM      3  C   UNL     1       2.062   7.561  19.311  0.00  0.00    +0.000 C 
ATOM      4  O   UNL     1       1.881   7.139  20.430  0.00  0.00    +0.000 OA
ENDROOT
BRANCH   3   5
ATOM      5  C   UNL     1       3.276   6.940  18.198  0.00  0.00    +0.000 A 
ATOM      6  C   UNL     1       2.524   6.007  17.835  0.00  0.00    +0.000 A 
ATOM      7  C   UNL     1       2.914   4.704  18.127  0.00  0.00    +0.000 A 
ATOM      8  N   UNL     1       3.693   4.330  17.152  0.00  0.00    +0.000 NA
ATOM      9  C   UNL     1       4.772   5.082  17.193  0.00  0.00    +0.000 A 
ATOM     10  C   UNL     1       5.900   4.309  17.014  0.00  0.00    +0.000 A 
ATOM     11  C   UNL     1       7.162   4.836  17.106  0.00  0.00    +0.000 A 
ATOM     12  C   UNL     1       7.217   6.213  17.209  0.00  0.00    +0.000 A 
ATOM     13  C   UNL     1       6.028   7.017  17.478  0.00  0.00    +0.000 A 
ATOM     14  C   UNL     1       4.704   6.486  17.699  0.00  0.00    +0.000 A 
BRANCH   7  15
ATOM     15  C   UNL     1       3.432   4.081  19.397  0.00  0.00    +0.000 A 
ATOM     16  C   UNL     1       2.512   4.131  20.441  0.00  0.00    +0.000 A 
ATOM     17  C   UNL     1       2.550   3.144  21.396  0.00  0.00    +0.000 A 
ATOM     18  N   UNL     1       3.442   2.131  21.412  0.00  0.00    +0.000 NA
ATOM     19  C   UNL     1       4.376   2.129  20.441  0.00  0.00    +0.000 A 
ATOM     20  C   UNL     1       4.458   3.107  19.460  0.00  0.00    +0.000 A 
ENDBRANCH   7  15
ENDBRANCH   3   5
BRANCH   1  21
ATOM     21  C   UNL     1       0.296   9.556  20.007  0.00  0.00    +0.000 C 
BRANCH  21  23
ATOM     22  N   UNL     1      -0.913  11.553  21.156  0.00  0.00    +0.000 N 
ATOM     23  C   UNL     1       0.174  10.694  21.145  0.00  0.00    +0.000 C 
ATOM     24  O   UNL     1       1.106  10.777  21.957  0.00  0.00    +0.000 OA
ATOM     25  H   UNL     1      -1.595  11.367  20.428  0.00  0.00    +0.000 HD
BRANCH  22  29
ATOM     26  C   UNL     1      -1.927  14.556  24.123  0.00  0.00    +0.000 A 
ATOM     27  C   UNL     1      -0.796  14.720  23.322  0.00  0.00    +0.000 A 
ATOM     28  C   UNL     1      -0.443  13.771  22.319  0.00  0.00    +0.000 A 
ATOM     29  C   UNL     1      -1.200  12.607  22.105  0.00  0.00    +0.000 A 
ATOM     30  C   UNL     1      -2.340  12.468  22.918  0.00  0.00    +0.000 A 
ATOM     31  C   UNL     1      -2.700  13.420  23.912  0.00  0.00    +0.000 A 
BRANCH  26  33
ATOM     32  C   UNL     1      -1.180  15.636  26.130  0.00  0.00    +0.000 C 
ATOM     33  O   UNL     1      -2.136  15.519  25.076  0.00  0.00    +0.000 OA
ENDBRANCH  26  33
ENDBRANCH  22  29
ENDBRANCH  21  23
ENDBRANCH   1  21
TORSDOF 6
ENDMDL
MODEL 7
REMARK VINA RESULT:      -8.6      3.630      4.911
REMARK  Name = 
REMARK  8 active torsions:
REMARK  status: ('A' for Active; 'I' for Inactive)
REMARK    1  A    between atoms: C_1  and  O_2
REMARK    2  A    between atoms: O_2  and  C_3
REMARK    3  A    between atoms: C_6  and  N_7
REMARK    4  A    between atoms: C_8  and  C_10
REMARK    5  A    between atoms: C_10  and  N_11
REMARK    6  A    between atoms: N_11  and  C_12
REMARK    7  A    between atoms: C_13  and  C_15
REMARK    8  A    between atoms: C_17  and  C_18
REMARK                            x       y       z     vdW  Elec       q    Type
REMARK                         _______ _______ _______ _____ _____    ______ ____
ROOT
ATOM      1  N   UNL     1       1.371   8.164  20.309  0.00  0.00    +0.000 N 
ATOM      2  C   UNL     1       1.484   9.403  19.445  0.00  0.00    +0.000 C 
ATOM      3  C   UNL     1       2.019   6.732  20.086  0.00  0.00    +0.000 C 
ATOM      4  O   UNL     1       1.821   5.961  20.996  0.00  0.00    +0.000 OA
ENDROOT
BRANCH   3   5
ATOM      5  C   UNL     1       3.119   6.430  18.746  0.00  0.00    +0.000 A 
ATOM      6  C   UNL     1       2.232   5.826  18.101  0.00  0.00    +0.000 A 
ATOM      7  C   UNL     1       2.418   4.472  17.845  0.00  0.00    +0.000 A 
ATOM      8  N   UNL     1       3.127   4.401  16.754  0.00  0.00    +0.000 NA
ATOM      9  C   UNL     1       4.308   4.918  17.013  0.00  0.00    +0.000 A 
ATOM     10  C   UNL     1       5.304   4.126  16.481  0.00  0.00    +0.000 A 
ATOM     11  C   UNL     1       6.632   4.393  16.688  0.00  0.00    +0.000 A 
ATOM     12  C   UNL     1       6.898   5.598  17.308  0.00  0.00    +0.000 A 
ATOM     13  C   UNL     1       5.848   6.393  17.939  0.00  0.00    +0.000 A 
ATOM     14  C   UNL     1       4.459   6.009  18.023  0.00  0.00    +0.000 A 
BRANCH   7  15
ATOM     15  C   UNL     1       2.838   3.339  18.744  0.00  0.00    +0.000 A 
ATOM     16  C   UNL     1       2.821   2.102  18.103  0.00  0.00    +0.000 A 
ATOM     17  C   UNL     1       3.698   1.132  18.524  0.00  0.00    +0.000 A 
ATOM     18  N   UNL     1       4.569   1.282  19.546  0.00  0.00    +0.000 NA
ATOM     19  C   UNL     1       4.530   2.454  20.209  0.00  0.00    +0.000 A 
ATOM     20  C   UNL     1       3.647   3.478  19.897  0.00  0.00    +0.000 A 
ENDBRANCH   7  15
ENDBRANCH   3   5
BRANCH   1  21
ATOM     21  C   UNL     1       0.521   8.517  21.555  0.00  0.00    +0.000 C 
BRANCH  21  23
ATOM     22  N   UNL     1      -0.799  10.728  21.926  0.00  0.00    +0.000 N 
ATOM     23  C   UNL     1      -0.011   9.730  22.476  0.00  0.00    +0.000 C 
ATOM     24  O   UNL     1       0.355   9.737  23.660  0.00  0.00    +0.000 OA
ATOM     25  H   UNL     1      -1.015  10.591  20.944  0.00  0.00    +0.000 HD
BRANCH  22  29
ATOM     26  C   UNL     1      -2.383  14.299  23.819  0.00  0.00    +0.000 A 
ATOM     27  C   UNL     1      -3.123  13.116  23.830  0.00  0.00    +0.000 A 
ATOM     28  C   UNL     1      -2.628  11.916  23.244  0.00  0.00    +0.000 A 
ATOM     29  C   UNL     1      -1.381  11.869  22.598  0.00  0.00    +0.000 A 
ATOM     30  C   UNL     1      -0.649  13.071  22.607  0.00  0.00    +0.000 A 
ATOM     31  C   UNL     1      -1.137  14.268  23.203  0.00  0.00    +0.000 A 
BRANCH  26  33
ATOM     32  C   UNL     1      -2.826  16.655  23.732  0.00  0.00    +0.000 C 
ATOM     33  O   UNL     1      -2.985  15.393  24.383  0.00  0.00    +0.000 OA
ENDBRANCH  26  33
ENDBRANCH  22  29
ENDBRANCH  21  23
ENDBRANCH   1  21
TORSDOF 6
ENDMDL
MODEL 8
REMARK VINA RESULT:      -8.5      5.120      8.963
REMARK  Name = 
REMARK  8 active torsions:
REMARK  status: ('A' for Active; 'I' for Inactive)
REMARK    1  A    between atoms: C_1  and  O_2
REMARK    2  A    between atoms: O_2  and  C_3
REMARK    3  A    between atoms: C_6  and  N_7
REMARK    4  A    between atoms: C_8  and  C_10
REMARK    5  A    between atoms: C_10  and  N_11
REMARK    6  A    between atoms: N_11  and  C_12
REMARK    7  A    between atoms: C_13  and  C_15
REMARK    8  A    between atoms: C_17  and  C_18
REMARK                            x       y       z     vdW  Elec       q    Type
REMARK                         _______ _______ _______ _____ _____    ______ ____
ROOT
ATOM      1  N   UNL     1       7.111   6.283  18.626  0.00  0.00    +0.000 N 
ATOM      2  C   UNL     1       7.573   5.526  19.855  0.00  0.00    +0.000 C 
ATOM      3  C   UNL     1       5.789   6.083  17.772  0.00  0.00    +0.000 C 
ATOM      4  O   UNL     1       5.649   6.900  16.892  0.00  0.00    +0.000 OA
ENDROOT
BRANCH   3   5
ATOM      5  C   UNL     1       4.556   4.926  18.261  0.00  0.00    +0.000 A 
ATOM      6  C   UNL     1       3.734   5.393  17.439  0.00  0.00    +0.000 A 
ATOM      7  C   UNL     1       2.586   6.000  17.937  0.00  0.00    +0.000 A 
ATOM      8  N   UNL     1       1.719   5.045  18.118  0.00  0.00    +0.000 NA
ATOM      9  C   UNL     1       2.187   4.255  19.060  0.00  0.00    +0.000 A 
ATOM     10  C   UNL     1       1.185   3.928  19.950  0.00  0.00    +0.000 A 
ATOM     11  C   UNL     1       1.430   3.189  21.079  0.00  0.00    +0.000 A 
ATOM     12  C   UNL     1       2.700   2.652  21.163  0.00  0.00    +0.000 A 
ATOM     13  C   UNL     1       3.777   3.063  20.267  0.00  0.00    +0.000 A 
ATOM     14  C   UNL     1       3.658   4.075  19.243  0.00  0.00    +0.000 A 
BRANCH   7  15
ATOM     15  C   UNL     1       2.393   7.013  19.034  0.00  0.00    +0.000 A 
ATOM     16  C   UNL     1       2.163   8.300  18.552  0.00  0.00    +0.000 A 
ATOM     17  C   UNL     1       1.401   9.158  19.308  0.00  0.00    +0.000 A 
ATOM     18  N   UNL     1       0.875   8.851  20.513  0.00  0.00    +0.000 NA
ATOM     19  C   UNL     1       1.162   7.632  21.008  0.00  0.00    +0.000 A 
ATOM     20  C   UNL     1       1.964   6.710  20.349  0.00  0.00    +0.000 A 
ENDBRANCH   7  15
ENDBRANCH   3   5
BRANCH   1  21
ATOM     21  C   UNL     1       8.148   7.392  18.322  0.00  0.00    +0.000 C 
BRANCH  21  23
ATOM     22  N   UNL     1       9.350   9.617  18.934  0.00  0.00    +0.000 N 
ATOM     23  C   UNL     1       8.362   8.986  18.196  0.00  0.00    +0.000 C 
ATOM     24  O   UNL     1       7.581   9.599  17.455  0.00  0.00    +0.000 OA
ATOM     25  H   UNL     1       9.910   8.987  19.500  0.00  0.00    +0.000 HD
BRANCH  22  29
ATOM     26  C   UNL     1      10.448  13.809  18.678  0.00  0.00    +0.000 A 
ATOM     27  C   UNL     1       9.710  13.346  19.769  0.00  0.00    +0.000 A 
ATOM     28  C   UNL     1       9.353  11.974  19.903  0.00  0.00    +0.000 A 
ATOM     29  C   UNL     1       9.699  11.021  18.931  0.00  0.00    +0.000 A 
ATOM     30  C   UNL     1      10.450  11.509  17.845  0.00  0.00    +0.000 A 
ATOM     31  C   UNL     1      10.818  12.878  17.715  0.00  0.00    +0.000 A 
BRANCH  26  33
ATOM     32  C   UNL     1       9.809  15.982  17.889  0.00  0.00    +0.000 C 
ATOM     33  O   UNL     1      10.696  15.157  18.646  0.00  0.00    +0.000 OA
ENDBRANCH  26  33
ENDBRANCH  22  29
ENDBRANCH  21  23
ENDBRANCH   1  21
TORSDOF 6
ENDMDL
MODEL 9
REMARK VINA RESULT:      -8.5      3.218      4.024
REMARK  Name = 
REMARK  8 active torsions:
REMARK  status: ('A' for Active; 'I' for Inactive)
REMARK    1  A    between atoms: C_1  and  O_2
REMARK    2  A    between atoms: O_2  and  C_3
REMARK    3  A    between atoms: C_6  and  N_7
REMARK    4  A    between atoms: C_8  and  C_10
REMARK    5  A    between atoms: C_10  and  N_11
REMARK    6  A    between atoms: N_11  and  C_12
REMARK    7  A    between atoms: C_13  and  C_15
REMARK    8  A    between atoms: C_17  and  C_18
REMARK                            x       y       z     vdW  Elec       q    Type
REMARK                         _______ _______ _______ _____ _____    ______ ____
ROOT
ATOM      1  N   UNL     1       1.306   8.655  20.117  0.00  0.00    +0.000 N 
ATOM      2  C   UNL     1       1.071   8.456  21.600  0.00  0.00    +0.000 C 
ATOM      3  C   UNL     1       1.901   7.634  19.058  0.00  0.00    +0.000 C 
ATOM      4  O   UNL     1       1.889   8.047  17.922  0.00  0.00    +0.000 OA
ENDROOT
BRANCH   3   5
ATOM      5  C   UNL     1       2.292   5.978  19.510  0.00  0.00    +0.000 A 
ATOM      6  C   UNL     1       3.497   6.269  19.687  0.00  0.00    +0.000 A 
ATOM      7  C   UNL     1       4.440   5.684  18.847  0.00  0.00    +0.000 A 
ATOM      8  N   UNL     1       4.737   4.533  19.379  0.00  0.00    +0.000 NA
ATOM      9  C   UNL     1       3.656   3.785  19.338  0.00  0.00    +0.000 A 
ATOM     10  C   UNL     1       3.974   2.508  18.922  0.00  0.00    +0.000 A 
ATOM     11  C   UNL     1       3.012   1.555  18.706  0.00  0.00    +0.000 A 
ATOM     12  C   UNL     1       1.738   1.908  19.104  0.00  0.00    +0.000 A 
ATOM     13  C   UNL     1       1.391   3.279  19.467  0.00  0.00    +0.000 A 
ATOM     14  C   UNL     1       2.298   4.401  19.418  0.00  0.00    +0.000 A 
BRANCH   7  15
ATOM     15  C   UNL     1       4.475   5.525  17.350  0.00  0.00    +0.000 A 
ATOM     16  C   UNL     1       4.603   6.737  16.677  0.00  0.00    +0.000 A 
ATOM     17  C   UNL     1       5.236   6.747  15.457  0.00  0.00    +0.000 A 
ATOM     18  N   UNL     1       5.725   5.649  14.843  0.00  0.00    +0.000 NA
ATOM     19  C   UNL     1       5.534   4.470  15.464  0.00  0.00    +0.000 A 
ATOM     20  C   UNL     1       4.862   4.344  16.672  0.00  0.00    +0.000 A 
ENDBRANCH   7  15
ENDBRANCH   3   5
BRANCH   1  21
ATOM     21  C   UNL     1       0.806  10.069  19.732  0.00  0.00    +0.000 C 
BRANCH  21  23
ATOM     22  N   UNL     1       0.679  12.663  19.582  0.00  0.00    +0.000 N 
ATOM     23  C   UNL     1       1.251  11.492  19.114  0.00  0.00    +0.000 C 
ATOM     24  O   UNL     1       2.078  11.468  18.192  0.00  0.00    +0.000 OA
ATOM     25  H   UNL     1       0.015  12.527  20.337  0.00  0.00    +0.000 HD
BRANCH  22  29
ATOM     26  C   UNL     1       1.787  16.656  18.286  0.00  0.00    +0.000 A 
ATOM     27  C   UNL     1       0.440  16.304  18.391  0.00  0.00    +0.000 A 
ATOM     28  C   UNL     1       0.035  15.014  18.837  0.00  0.00    +0.000 A 
ATOM     29  C   UNL     1       0.970  14.019  19.168  0.00  0.00    +0.000 A 
ATOM     30  C   UNL     1       2.321  14.399  19.064  0.00  0.00    +0.000 A 
ATOM     31  C   UNL     1       2.728  15.692  18.630  0.00  0.00    +0.000 A 
BRANCH  26  33
ATOM     32  C   UNL     1       1.234  18.407  16.743  0.00  0.00    +0.000 C 
ATOM     33  O   UNL     1       2.046  17.915  17.810  0.00  0.00    +0.000 OA
ENDBRANCH  26  33
ENDBRANCH  22  29
ENDBRANCH  21  23
ENDBRANCH   1  21
TORSDOF 6
ENDMDL
