MODEL 1
REMARK VINA RESULT:      -8.3      0.000      0.000
REMARK  Name = 
REMARK  12 active torsions:
REMARK  status: ('A' for Active; 'I' for Inactive)
REMARK    1  A    between atoms: C_7  and  C_8
REMARK    2  A    between atoms: C_11  and  S_12
REMARK    3  A    between atoms: S_12  and  N_15
REMARK    4  A    between atoms: N_15  and  N_16
REMARK    5  A    between atoms: C_17  and  C_18
REMARK    6  A    between atoms: C_18  and  O_19
REMARK    7  A    between atoms: C_18  and  C_20
REMARK    8  A    between atoms: C_20  and  O_21
REMARK    9  A    between atoms: C_20  and  C_22
REMARK   10  A    between atoms: C_22  and  O_23
REMARK   11  A    between atoms: C_22  and  C_24
REMARK   12  A    between atoms: C_24  and  O_25
REMARK                            x       y       z     vdW  Elec       q    Type
REMARK                         _______ _______ _______ _____ _____    ______ ____
ROOT
ATOM      1  S   UNL     1       4.064   3.287  19.258  0.00  0.00    +0.000 S 
ATOM      2  O   UNL     1       3.884   2.656  20.552  0.00  0.00    +0.000 OA
ATOM      3  O   UNL     1       3.597   2.652  18.048  0.00  0.00    +0.000 OA
ENDROOT
BRANCH   1   7
ATOM      4  C   UNL     1       2.043   7.393  19.408  0.00  0.00    +0.000 A 
ATOM      5  C   UNL     1       2.841   7.026  18.318  0.00  0.00    +0.000 A 
ATOM      6  C   UNL     1       3.460   5.776  18.286  0.00  0.00    +0.000 A 
ATOM      7  C   UNL     1       3.292   4.890  19.354  0.00  0.00    +0.000 A 
ATOM      8  C   UNL     1       2.467   5.230  20.432  0.00  0.00    +0.000 A 
ATOM      9  C   UNL     1       1.847   6.486  20.458  0.00  0.00    +0.000 A 
BRANCH   4  16
ATOM     10  O   UNL     1       0.218   9.659  23.862  0.00  0.00    +0.000 OA
ATOM     11  C   UNL     1       0.362   9.770  22.658  0.00  0.00    +0.000 C 
ATOM     12  N   UNL     1      -0.040  10.833  21.889  0.00  0.00    +0.000 N 
ATOM     13  C   UNL     1       0.284  10.650  20.575  0.00  0.00    +0.000 C 
ATOM     14  O   UNL     1       0.074  11.395  19.638  0.00  0.00    +0.000 OA
ATOM     15  C   UNL     1       0.955   9.314  20.538  0.00  0.00    +0.000 C 
ATOM     16  C   UNL     1       1.432   8.723  19.439  0.00  0.00    +0.000 C 
ATOM     17  N   UNL     1       0.966   8.849  21.820  0.00  0.00    +0.000 N 
ATOM     18  H   UNL     1      -0.506  11.645  22.255  0.00  0.00    +0.000 HD
ATOM     19  H   UNL     1       1.352   7.971  22.135  0.00  0.00    +0.000 HD
ENDBRANCH   4  16
ENDBRANCH   1   7
BRANCH   1  20
ATOM     20  N   UNL     1       5.705   3.684  19.073  0.00  0.00    +0.000 N 
ATOM     21  H   UNL     1       6.092   3.511  18.138  0.00  0.00    +0.000 HD
BRANCH  20  22
ATOM     22  N   UNL     1       6.185   4.870  19.749  0.00  0.00    +0.000 NA
ATOM     23  C   UNL     1       7.007   5.598  19.057  0.00  0.00    +0.000 C 
BRANCH  23  24
ATOM     24  C   UNL     1       7.525   5.286  17.660  0.00  0.00    +0.000 C 
BRANCH  24  25
ATOM     25  O   UNL     1       8.163   4.003  17.690  0.00  0.00    +0.000 OA
ATOM     26  H   UNL     1       8.362   3.762  16.766  0.00  0.00    +0.000 HD
ENDBRANCH  24  25
BRANCH  24  27
ATOM     27  C   UNL     1       6.397   5.298  16.602  0.00  0.00    +0.000 C 
BRANCH  27  28
ATOM     28  O   UNL     1       6.383   6.559  15.915  0.00  0.00    +0.000 OA
ATOM     29  H   UNL     1       6.821   7.236  16.458  0.00  0.00    +0.000 HD
ENDBRANCH  27  28
BRANCH  27  30
ATOM     30  C   UNL     1       6.464   4.101  15.631  0.00  0.00    +0.000 C 
BRANCH  30  31
ATOM     31  O   UNL     1       5.751   2.996  16.189  0.00  0.00    +0.000 OA
ATOM     32  H   UNL     1       5.398   2.453  15.459  0.00  0.00    +0.000 HD
ENDBRANCH  30  31
BRANCH  30  33
ATOM     33  C   UNL     1       5.929   4.444  14.230  0.00  0.00    +0.000 C 
BRANCH  33  34
ATOM     34  O   UNL     1       6.363   3.480  13.269  0.00  0.00    +0.000 OA
ATOM     35  H   UNL     1       6.262   2.592  13.654  0.00  0.00    +0.000 HD
ENDBRANCH  33  34
ENDBRANCH  30  33
ENDBRANCH  27  30
ENDBRANCH  24  27
ENDBRANCH  23  24
ENDBRANCH  20  22
ENDBRANCH   1  20
TORSDOF 12
ENDMDL
MODEL 2
REMARK VINA RESULT:      -8.0      3.330      4.883
REMARK  Name = 
REMARK  12 active torsions:
REMARK  status: ('A' for Active; 'I' for Inactive)
REMARK    1  A    between atoms: C_7  and  C_8
REMARK    2  A    between atoms: C_11  and  S_12
REMARK    3  A    between atoms: S_12  and  N_15
REMARK    4  A    between atoms: N_15  and  N_16
REMARK    5  A    between atoms: C_17  and  C_18
REMARK    6  A    between atoms: C_18  and  O_19
REMARK    7  A    between atoms: C_18  and  C_20
REMARK    8  A    between atoms: C_20  and  O_21
REMARK    9  A    between atoms: C_20  and  C_22
REMARK   10  A    between atoms: C_22  and  O_23
REMARK   11  A    between atoms: C_22  and  C_24
REMARK   12  A    between atoms: C_24  and  O_25
REMARK                            x       y       z     vdW  Elec       q    Type
REMARK                         _______ _______ _______ _____ _____    ______ ____
ROOT
ATOM      1  S   UNL     1       4.162   6.035  18.032  0.00  0.00    +0.000 S 
ATOM      2  O   UNL     1       4.778   6.455  16.787  0.00  0.00    +0.000 OA
ATOM      3  O   UNL     1       4.958   5.802  19.215  0.00  0.00    +0.000 OA
ENDROOT
BRANCH   1   7
ATOM      4  C   UNL     1       1.074   9.216  19.179  0.00  0.00    +0.000 A 
ATOM      5  C   UNL     1       1.457   8.226  20.091  0.00  0.00    +0.000 A 
ATOM      6  C   UNL     1       2.391   7.255  19.729  0.00  0.00    +0.000 A 
ATOM      7  C   UNL     1       2.941   7.266  18.444  0.00  0.00    +0.000 A 
ATOM      8  C   UNL     1       2.595   8.272  17.535  0.00  0.00    +0.000 A 
ATOM      9  C   UNL     1       1.657   9.244  17.905  0.00  0.00    +0.000 A 
BRANCH   4  16
ATOM     10  O   UNL     1      -2.671  11.014  15.855  0.00  0.00    +0.000 OA
ATOM     11  C   UNL     1      -2.196  11.084  16.974  0.00  0.00    +0.000 C 
ATOM     12  N   UNL     1      -2.626  11.903  17.987  0.00  0.00    +0.000 N 
ATOM     13  C   UNL     1      -1.885  11.726  19.121  0.00  0.00    +0.000 C 
ATOM     14  O   UNL     1      -2.005  12.289  20.191  0.00  0.00    +0.000 OA
ATOM     15  C   UNL     1      -0.880  10.682  18.753  0.00  0.00    +0.000 C 
ATOM     16  C   UNL     1       0.065  10.203  19.566  0.00  0.00    +0.000 C 
ATOM     17  N   UNL     1      -1.128  10.345  17.455  0.00  0.00    +0.000 N 
ATOM     18  H   UNL     1      -3.395  12.544  17.901  0.00  0.00    +0.000 HD
ATOM     19  H   UNL     1      -0.625   9.663  16.907  0.00  0.00    +0.000 HD
ENDBRANCH   4  16
ENDBRANCH   1   7
BRANCH   1  20
ATOM     20  N   UNL     1       3.209   4.663  17.730  0.00  0.00    +0.000 N 
ATOM     21  H   UNL     1       3.565   3.788  18.132  0.00  0.00    +0.000 HD
BRANCH  20  22
ATOM     22  N   UNL     1       1.772   4.831  17.751  0.00  0.00    +0.000 NA
ATOM     23  C   UNL     1       1.153   4.129  18.651  0.00  0.00    +0.000 C 
BRANCH  23  24
ATOM     24  C   UNL     1       1.793   3.143  19.617  0.00  0.00    +0.000 C 
BRANCH  24  25
ATOM     25  O   UNL     1       0.888   2.924  20.707  0.00  0.00    +0.000 OA
ATOM     26  H   UNL     1       0.424   3.768  20.865  0.00  0.00    +0.000 HD
ENDBRANCH  24  25
BRANCH  24  27
ATOM     27  C   UNL     1       2.143   1.800  18.934  0.00  0.00    +0.000 C 
BRANCH  27  28
ATOM     28  O   UNL     1       1.640   1.788  17.590  0.00  0.00    +0.000 OA
ATOM     29  H   UNL     1       2.210   1.235  17.028  0.00  0.00    +0.000 HD
ENDBRANCH  27  28
BRANCH  27  30
ATOM     30  C   UNL     1       3.647   1.460  19.002  0.00  0.00    +0.000 C 
BRANCH  30  31
ATOM     31  O   UNL     1       4.243   1.689  17.724  0.00  0.00    +0.000 OA
ATOM     32  H   UNL     1       4.908   0.993  17.562  0.00  0.00    +0.000 HD
ENDBRANCH  30  31
BRANCH  30  33
ATOM     33  C   UNL     1       4.384   2.252  20.096  0.00  0.00    +0.000 C 
BRANCH  33  34
ATOM     34  O   UNL     1       5.404   3.075  19.529  0.00  0.00    +0.000 OA
ATOM     35  H   UNL     1       5.561   2.786  18.612  0.00  0.00    +0.000 HD
ENDBRANCH  33  34
ENDBRANCH  30  33
ENDBRANCH  27  30
ENDBRANCH  24  27
ENDBRANCH  23  24
ENDBRANCH  20  22
ENDBRANCH   1  20
TORSDOF 12
ENDMDL
MODEL 3
REMARK VINA RESULT:      -8.0      2.242      3.067
REMARK  Name = 
REMARK  12 active torsions:
REMARK  status: ('A' for Active; 'I' for Inactive)
REMARK    1  A    between atoms: C_7  and  C_8
REMARK    2  A    between atoms: C_11  and  S_12
REMARK    3  A    between atoms: S_12  and  N_15
REMARK    4  A    between atoms: N_15  and  N_16
REMARK    5  A    between atoms: C_17  and  C_18
REMARK    6  A    between atoms: C_18  and  O_19
REMARK    7  A    between atoms: C_18  and  C_20
REMARK    8  A    between atoms: C_20  and  O_21
REMARK    9  A    between atoms: C_20  and  C_22
REMARK   10  A    between atoms: C_22  and  O_23
REMARK   11  A    between atoms: C_22  and  C_24
REMARK   12  A    between atoms: C_24  and  O_25
REMARK                            x       y       z     vdW  Elec       q    Type
REMARK                         _______ _______ _______ _____ _____    ______ ____
ROOT
ATOM      1  S   UNL     1       2.953   4.914  19.283  0.00  0.00    +0.000 S 
ATOM      2  O   UNL     1       2.982   4.482  20.668  0.00  0.00    +0.000 OA
ATOM      3  O   UNL     1       2.178   4.199  18.296  0.00  0.00    +0.000 OA
ENDROOT
BRANCH   1   7
ATOM      4  C   UNL     1       1.464   9.243  19.191  0.00  0.00    +0.000 A 
ATOM      5  C   UNL     1       2.058   8.664  18.063  0.00  0.00    +0.000 A 
ATOM      6  C   UNL     1       2.517   7.347  18.104  0.00  0.00    +0.000 A 
ATOM      7  C   UNL     1       2.393   6.605  19.282  0.00  0.00    +0.000 A 
ATOM      8  C   UNL     1       1.768   7.159  20.405  0.00  0.00    +0.000 A 
ATOM      9  C   UNL     1       1.308   8.482  20.357  0.00  0.00    +0.000 A 
BRANCH   4  16
ATOM     10  O   UNL     1      -2.874  10.829  16.552  0.00  0.00    +0.000 OA
ATOM     11  C   UNL     1      -1.922  11.172  17.230  0.00  0.00    +0.000 C 
ATOM     12  N   UNL     1      -1.614  12.456  17.602  0.00  0.00    +0.000 N 
ATOM     13  C   UNL     1      -0.487  12.496  18.373  0.00  0.00    +0.000 C 
ATOM     14  O   UNL     1       0.052  13.468  18.864  0.00  0.00    +0.000 OA
ATOM     15  C   UNL     1      -0.054  11.068  18.477  0.00  0.00    +0.000 C 
ATOM     16  C   UNL     1       1.023  10.637  19.139  0.00  0.00    +0.000 C 
ATOM     17  N   UNL     1      -0.960  10.335  17.769  0.00  0.00    +0.000 N 
ATOM     18  H   UNL     1      -2.158  13.260  17.342  0.00  0.00    +0.000 HD
ATOM     19  H   UNL     1      -0.954   9.333  17.645  0.00  0.00    +0.000 HD
ENDBRANCH   4  16
ENDBRANCH   1   7
BRANCH   1  20
ATOM     20  N   UNL     1       4.551   5.059  18.728  0.00  0.00    +0.000 N 
ATOM     21  H   UNL     1       4.674   5.661  17.906  0.00  0.00    +0.000 HD
BRANCH  20  22
ATOM     22  N   UNL     1       5.600   5.123  19.723  0.00  0.00    +0.000 NA
ATOM     23  C   UNL     1       6.694   5.700  19.328  0.00  0.00    +0.000 C 
BRANCH  23  24
ATOM     24  C   UNL     1       6.965   6.250  17.934  0.00  0.00    +0.000 C 
BRANCH  24  25
ATOM     25  O   UNL     1       7.916   7.317  18.046  0.00  0.00    +0.000 OA
ATOM     26  H   UNL     1       7.809   7.702  18.936  0.00  0.00    +0.000 HD
ENDBRANCH  24  25
BRANCH  24  27
ATOM     27  C   UNL     1       7.492   5.162  16.969  0.00  0.00    +0.000 C 
BRANCH  27  28
ATOM     28  O   UNL     1       7.449   3.877  17.608  0.00  0.00    +0.000 OA
ATOM     29  H   UNL     1       6.684   3.372  17.283  0.00  0.00    +0.000 HD
ENDBRANCH  27  28
BRANCH  27  30
ATOM     30  C   UNL     1       6.772   5.164  15.604  0.00  0.00    +0.000 C 
BRANCH  30  31
ATOM     31  O   UNL     1       7.722   5.418  14.567  0.00  0.00    +0.000 OA
ATOM     32  H   UNL     1       7.940   4.573  14.131  0.00  0.00    +0.000 HD
ENDBRANCH  30  31
BRANCH  30  33
ATOM     33  C   UNL     1       6.010   3.855  15.335  0.00  0.00    +0.000 C 
BRANCH  33  34
ATOM     34  O   UNL     1       4.963   3.670  16.289  0.00  0.00    +0.000 OA
ATOM     35  H   UNL     1       4.109   3.712  15.824  0.00  0.00    +0.000 HD
ENDBRANCH  33  34
ENDBRANCH  30  33
ENDBRANCH  27  30
ENDBRANCH  24  27
ENDBRANCH  23  24
ENDBRANCH  20  22
ENDBRANCH   1  20
TORSDOF 12
ENDMDL
MODEL 4
REMARK VINA RESULT:      -8.0      2.567      3.779
REMARK  Name = 
REMARK  12 active torsions:
REMARK  status: ('A' for Active; 'I' for Inactive)
REMARK    1  A    between atoms: C_7  and  C_8
REMARK    2  A    between atoms: C_11  and  S_12
REMARK    3  A    between atoms: S_12  and  N_15
REMARK    4  A    between atoms: N_15  and  N_16
REMARK    5  A    between atoms: C_17  and  C_18
REMARK    6  A    between atoms: C_18  and  O_19
REMARK    7  A    between atoms: C_18  and  C_20
REMARK    8  A    between atoms: C_20  and  O_21
REMARK    9  A    between atoms: C_20  and  C_22
REMARK   10  A    between atoms: C_22  and  O_23
REMARK   11  A    between atoms: C_22  and  C_24
REMARK   12  A    between atoms: C_24  and  O_25
REMARK                            x       y       z     vdW  Elec       q    Type
REMARK                         _______ _______ _______ _____ _____    ______ ____
ROOT
ATOM      1  S   UNL     1       3.304   5.358  18.841  0.00  0.00    +0.000 S 
ATOM      2  O   UNL     1       4.431   5.364  19.754  0.00  0.00    +0.000 OA
ATOM      3  O   UNL     1       2.253   4.374  18.961  0.00  0.00    +0.000 OA
ENDROOT
BRANCH   1   7
ATOM      4  C   UNL     1       1.303   9.473  19.027  0.00  0.00    +0.000 A 
ATOM      5  C   UNL     1       1.897   9.016  17.843  0.00  0.00    +0.000 A 
ATOM      6  C   UNL     1       2.512   7.765  17.800  0.00  0.00    +0.000 A 
ATOM      7  C   UNL     1       2.546   6.967  18.947  0.00  0.00    +0.000 A 
ATOM      8  C   UNL     1       1.924   7.396  20.125  0.00  0.00    +0.000 A 
ATOM      9  C   UNL     1       1.306   8.652  20.162  0.00  0.00    +0.000 A 
BRANCH   4  16
ATOM     10  O   UNL     1      -3.182  10.697  16.442  0.00  0.00    +0.000 OA
ATOM     11  C   UNL     1      -2.283  11.106  17.154  0.00  0.00    +0.000 C 
ATOM     12  N   UNL     1      -2.135  12.390  17.615  0.00  0.00    +0.000 N 
ATOM     13  C   UNL     1      -1.026  12.513  18.402  0.00  0.00    +0.000 C 
ATOM     14  O   UNL     1      -0.611  13.507  18.965  0.00  0.00    +0.000 OA
ATOM     15  C   UNL     1      -0.422  11.145  18.416  0.00  0.00    +0.000 C 
ATOM     16  C   UNL     1       0.695  10.804  19.062  0.00  0.00    +0.000 C 
ATOM     17  N   UNL     1      -1.229  10.357  17.649  0.00  0.00    +0.000 N 
ATOM     18  H   UNL     1      -2.772  13.138  17.402  0.00  0.00    +0.000 HD
ATOM     19  H   UNL     1      -1.100   9.374  17.458  0.00  0.00    +0.000 HD
ENDBRANCH   4  16
ENDBRANCH   1   7
BRANCH   1  20
ATOM     20  N   UNL     1       3.896   5.339  17.249  0.00  0.00    +0.000 N 
ATOM     21  H   UNL     1       4.409   6.180  16.965  0.00  0.00    +0.000 HD
BRANCH  20  22
ATOM     22  N   UNL     1       4.406   4.083  16.743  0.00  0.00    +0.000 NA
ATOM     23  C   UNL     1       5.465   4.184  15.999  0.00  0.00    +0.000 C 
BRANCH  23  24
ATOM     24  C   UNL     1       6.157   5.478  15.593  0.00  0.00    +0.000 C 
BRANCH  24  25
ATOM     25  O   UNL     1       5.155   6.413  15.172  0.00  0.00    +0.000 OA
ATOM     26  H   UNL     1       5.293   7.229  15.688  0.00  0.00    +0.000 HD
ENDBRANCH  24  25
BRANCH  24  27
ATOM     27  C   UNL     1       6.999   6.077  16.744  0.00  0.00    +0.000 C 
BRANCH  27  28
ATOM     28  O   UNL     1       6.342   7.237  17.279  0.00  0.00    +0.000 OA
ATOM     29  H   UNL     1       5.381   7.091  17.303  0.00  0.00    +0.000 HD
ENDBRANCH  27  28
BRANCH  27  30
ATOM     30  C   UNL     1       7.352   5.046  17.836  0.00  0.00    +0.000 C 
BRANCH  30  31
ATOM     31  O   UNL     1       8.289   4.103  17.314  0.00  0.00    +0.000 OA
ATOM     32  H   UNL     1       9.190   4.455  17.442  0.00  0.00    +0.000 HD
ENDBRANCH  30  31
BRANCH  30  33
ATOM     33  C   UNL     1       7.897   5.703  19.116  0.00  0.00    +0.000 C 
BRANCH  33  34
ATOM     34  O   UNL     1       7.248   5.176  20.274  0.00  0.00    +0.000 OA
ATOM     35  H   UNL     1       7.776   5.409  21.058  0.00  0.00    +0.000 HD
ENDBRANCH  33  34
ENDBRANCH  30  33
ENDBRANCH  27  30
ENDBRANCH  24  27
ENDBRANCH  23  24
ENDBRANCH  20  22
ENDBRANCH   1  20
TORSDOF 12
ENDMDL
MODEL 5
REMARK VINA RESULT:      -7.9      1.786      3.272
REMARK  Name = 
REMARK  12 active torsions:
REMARK  status: ('A' for Active; 'I' for Inactive)
REMARK    1  A    between atoms: C_7  and  C_8
REMARK    2  A    between atoms: C_11  and  S_12
REMARK    3  A    between atoms: S_12  and  N_15
REMARK    4  A    between atoms: N_15  and  N_16
REMARK    5  A    between atoms: C_17  and  C_18
REMARK    6  A    between atoms: C_18  and  O_19
REMARK    7  A    between atoms: C_18  and  C_20
REMARK    8  A    between atoms: C_20  and  O_21
REMARK    9  A    between atoms: C_20  and  C_22
REMARK   10  A    between atoms: C_22  and  O_23
REMARK   11  A    between atoms: C_22  and  C_24
REMARK   12  A    between atoms: C_24  and  O_25
REMARK                            x       y       z     vdW  Elec       q    Type
REMARK                         _______ _______ _______ _____ _____    ______ ____
ROOT
ATOM      1  S   UNL     1       3.156   4.203  17.948  0.00  0.00    +0.000 S 
ATOM      2  O   UNL     1       3.929   3.331  18.813  0.00  0.00    +0.000 OA
ATOM      3  O   UNL     1       2.039   3.697  17.186  0.00  0.00    +0.000 OA
ENDROOT
BRANCH   1   7
ATOM      4  C   UNL     1       1.549   7.661  20.484  0.00  0.00    +0.000 A 
ATOM      5  C   UNL     1       2.172   7.902  19.254  0.00  0.00    +0.000 A 
ATOM      6  C   UNL     1       2.667   6.843  18.493  0.00  0.00    +0.000 A 
ATOM      7  C   UNL     1       2.550   5.533  18.967  0.00  0.00    +0.000 A 
ATOM      8  C   UNL     1       1.896   5.275  20.178  0.00  0.00    +0.000 A 
ATOM      9  C   UNL     1       1.400   6.343  20.936  0.00  0.00    +0.000 A 
BRANCH   4  16
ATOM     10  O   UNL     1      -1.769  11.367  18.600  0.00  0.00    +0.000 OA
ATOM     11  C   UNL     1      -1.113  10.990  19.554  0.00  0.00    +0.000 C 
ATOM     12  N   UNL     1      -1.018  11.617  20.770  0.00  0.00    +0.000 N 
ATOM     13  C   UNL     1      -0.210  10.925  21.628  0.00  0.00    +0.000 C 
ATOM     14  O   UNL     1       0.082  11.204  22.774  0.00  0.00    +0.000 OA
ATOM     15  C   UNL     1       0.247   9.741  20.837  0.00  0.00    +0.000 C 
ATOM     16  C   UNL     1       1.070   8.789  21.284  0.00  0.00    +0.000 C 
ATOM     17  N   UNL     1      -0.335   9.846  19.608  0.00  0.00    +0.000 N 
ATOM     18  H   UNL     1      -1.492  12.474  20.997  0.00  0.00    +0.000 HD
ATOM     19  H   UNL     1      -0.230   9.201  18.839  0.00  0.00    +0.000 HD
ENDBRANCH   4  16
ENDBRANCH   1   7
BRANCH   1  20
ATOM     20  N   UNL     1       4.221   5.006  16.897  0.00  0.00    +0.000 N 
ATOM     21  H   UNL     1       4.914   5.609  17.356  0.00  0.00    +0.000 HD
BRANCH  20  22
ATOM     22  N   UNL     1       4.683   4.281  15.734  0.00  0.00    +0.000 NA
ATOM     23  C   UNL     1       5.956   4.377  15.500  0.00  0.00    +0.000 C 
BRANCH  23  24
ATOM     24  C   UNL     1       6.955   5.203  16.297  0.00  0.00    +0.000 C 
BRANCH  24  25
ATOM     25  O   UNL     1       6.464   6.547  16.385  0.00  0.00    +0.000 OA
ATOM     26  H   UNL     1       7.237   7.138  16.312  0.00  0.00    +0.000 HD
ENDBRANCH  24  25
BRANCH  24  27
ATOM     27  C   UNL     1       7.193   4.627  17.713  0.00  0.00    +0.000 C 
BRANCH  27  28
ATOM     28  O   UNL     1       8.456   3.945  17.759  0.00  0.00    +0.000 OA
ATOM     29  H   UNL     1       8.454   3.204  17.130  0.00  0.00    +0.000 HD
ENDBRANCH  27  28
BRANCH  27  30
ATOM     30  C   UNL     1       7.056   5.685  18.828  0.00  0.00    +0.000 C 
BRANCH  30  31
ATOM     31  O   UNL     1       5.946   5.352  19.664  0.00  0.00    +0.000 OA
ATOM     32  H   UNL     1       6.283   5.110  20.547  0.00  0.00    +0.000 HD
ENDBRANCH  30  31
BRANCH  30  33
ATOM     33  C   UNL     1       8.339   5.836  19.662  0.00  0.00    +0.000 C 
BRANCH  33  34
ATOM     34  O   UNL     1       8.128   5.399  21.005  0.00  0.00    +0.000 OA
ATOM     35  H   UNL     1       7.192   5.154  21.108  0.00  0.00    +0.000 HD
ENDBRANCH  33  34
ENDBRANCH  30  33
ENDBRANCH  27  30
ENDBRANCH  24  27
ENDBRANCH  23  24
ENDBRANCH  20  22
ENDBRANCH   1  20
TORSDOF 12
ENDMDL
MODEL 6
REMARK VINA RESULT:      -7.9      2.502      3.356
REMARK  Name = 
REMARK  12 active torsions:
REMARK  status: ('A' for Active; 'I' for Inactive)
REMARK    1  A    between atoms: C_7  and  C_8
REMARK    2  A    between atoms: C_11  and  S_12
REMARK    3  A    between atoms: S_12  and  N_15
REMARK    4  A    between atoms: N_15  and  N_16
REMARK    5  A    between atoms: C_17  and  C_18
REMARK    6  A    between atoms: C_18  and  O_19
REMARK    7  A    between atoms: C_18  and  C_20
REMARK    8  A    between atoms: C_20  and  O_21
REMARK    9  A    between atoms: C_20  and  C_22
REMARK   10  A    between atoms: C_22  and  O_23
REMARK   11  A    between atoms: C_22  and  C_24
REMARK   12  A    between atoms: C_24  and  O_25
REMARK                            x       y       z     vdW  Elec       q    Type
REMARK                         _______ _______ _______ _____ _____    ______ ____
ROOT
ATOM      1  S   UNL     1       3.888   5.843  18.348  0.00  0.00    +0.000 S 
ATOM      2  O   UNL     1       4.556   5.594  19.612  0.00  0.00    +0.000 OA
ATOM      3  O   UNL     1       3.120   4.808  17.696  0.00  0.00    +0.000 OA
ENDROOT
BRANCH   1   7
ATOM      4  C   UNL     1       1.148   9.436  19.092  0.00  0.00    +0.000 A 
ATOM      5  C   UNL     1       1.308   8.442  20.065  0.00  0.00    +0.000 A 
ATOM      6  C   UNL     1       2.138   7.346  19.825  0.00  0.00    +0.000 A 
ATOM      7  C   UNL     1       2.805   7.235  18.602  0.00  0.00    +0.000 A 
ATOM      8  C   UNL     1       2.683   8.240  17.635  0.00  0.00    +0.000 A 
ATOM      9  C   UNL     1       1.849   9.339  17.883  0.00  0.00    +0.000 A 
BRANCH   4  16
ATOM     10  O   UNL     1      -2.851  10.761  15.844  0.00  0.00    +0.000 OA
ATOM     11  C   UNL     1      -2.248  11.033  16.866  0.00  0.00    +0.000 C 
ATOM     12  N   UNL     1      -2.514  12.082  17.709  0.00  0.00    +0.000 N 
ATOM     13  C   UNL     1      -1.658  12.097  18.774  0.00  0.00    +0.000 C 
ATOM     14  O   UNL     1      -1.624  12.885  19.698  0.00  0.00    +0.000 OA
ATOM     15  C   UNL     1      -0.760  10.923  18.549  0.00  0.00    +0.000 C 
ATOM     16  C   UNL     1       0.245  10.558  19.349  0.00  0.00    +0.000 C 
ATOM     17  N   UNL     1      -1.173  10.334  17.390  0.00  0.00    +0.000 N 
ATOM     18  H   UNL     1      -3.252  12.747  17.560  0.00  0.00    +0.000 HD
ATOM     19  H   UNL     1      -0.774   9.513  16.960  0.00  0.00    +0.000 HD
ENDBRANCH   4  16
ENDBRANCH   1   7
BRANCH   1  20
ATOM     20  N   UNL     1       5.024   6.461  17.248  0.00  0.00    +0.000 N 
ATOM     21  H   UNL     1       4.627   6.982  16.458  0.00  0.00    +0.000 HD
BRANCH  20  22
ATOM     22  N   UNL     1       6.263   6.977  17.788  0.00  0.00    +0.000 NA
ATOM     23  C   UNL     1       7.312   6.255  17.533  0.00  0.00    +0.000 C 
BRANCH  23  24
ATOM     24  C   UNL     1       7.330   4.933  16.780  0.00  0.00    +0.000 C 
BRANCH  24  25
ATOM     25  O   UNL     1       6.542   3.985  17.512  0.00  0.00    +0.000 OA
ATOM     26  H   UNL     1       7.121   3.602  18.198  0.00  0.00    +0.000 HD
ENDBRANCH  24  25
BRANCH  24  27
ATOM     27  C   UNL     1       6.792   5.074  15.337  0.00  0.00    +0.000 C 
BRANCH  27  28
ATOM     28  O   UNL     1       7.876   5.349  14.436  0.00  0.00    +0.000 OA
ATOM     29  H   UNL     1       8.568   4.673  14.534  0.00  0.00    +0.000 HD
ENDBRANCH  27  28
BRANCH  27  30
ATOM     30  C   UNL     1       5.946   3.865  14.885  0.00  0.00    +0.000 C 
BRANCH  30  31
ATOM     31  O   UNL     1       4.690   3.885  15.564  0.00  0.00    +0.000 OA
ATOM     32  H   UNL     1       4.778   4.434  16.366  0.00  0.00    +0.000 HD
ENDBRANCH  30  31
BRANCH  30  33
ATOM     33  C   UNL     1       5.741   3.822  13.360  0.00  0.00    +0.000 C 
BRANCH  33  34
ATOM     34  O   UNL     1       6.735   3.009  12.735  0.00  0.00    +0.000 OA
ATOM     35  H   UNL     1       6.358   2.630  11.922  0.00  0.00    +0.000 HD
ENDBRANCH  33  34
ENDBRANCH  30  33
ENDBRANCH  27  30
ENDBRANCH  24  27
ENDBRANCH  23  24
ENDBRANCH  20  22
ENDBRANCH   1  20
TORSDOF 12
ENDMDL
MODEL 7
REMARK VINA RESULT:      -7.8      2.521      3.029
REMARK  Name = 
REMARK  12 active torsions:
REMARK  status: ('A' for Active; 'I' for Inactive)
REMARK    1  A    between atoms: C_7  and  C_8
REMARK    2  A    between atoms: C_11  and  S_12
REMARK    3  A    between atoms: S_12  and  N_15
REMARK    4  A    between atoms: N_15  and  N_16
REMARK    5  A    between atoms: C_17  and  C_18
REMARK    6  A    between atoms: C_18  and  O_19
REMARK    7  A    between atoms: C_18  and  C_20
REMARK    8  A    between atoms: C_20  and  O_21
REMARK    9  A    between atoms: C_20  and  C_22
REMARK   10  A    between atoms: C_22  and  O_23
REMARK   11  A    between atoms: C_22  and  C_24
REMARK   12  A    between atoms: C_24  and  O_25
REMARK                            x       y       z     vdW  Elec       q    Type
REMARK                         _______ _______ _______ _____ _____    ______ ____
ROOT
ATOM      1  S   UNL     1       1.360   2.833  19.558  0.00  0.00    +0.000 S 
ATOM      2  O   UNL     1       1.050   2.696  20.969  0.00  0.00    +0.000 OA
ATOM      3  O   UNL     1       0.431   2.389  18.544  0.00  0.00    +0.000 OA
ENDROOT
BRANCH   1   7
ATOM      4  C   UNL     1       2.106   7.280  18.755  0.00  0.00    +0.000 A 
ATOM      5  C   UNL     1       1.781   6.406  17.710  0.00  0.00    +0.000 A 
ATOM      6  C   UNL     1       1.565   5.051  17.964  0.00  0.00    +0.000 A 
ATOM      7  C   UNL     1       1.684   4.561  19.267  0.00  0.00    +0.000 A 
ATOM      8  C   UNL     1       1.971   5.430  20.326  0.00  0.00    +0.000 A 
ATOM      9  C   UNL     1       2.186   6.790  20.065  0.00  0.00    +0.000 A 
BRANCH   4  16
ATOM     10  O   UNL     1      -1.578  11.084  19.260  0.00  0.00    +0.000 OA
ATOM     11  C   UNL     1      -0.431  10.824  18.942  0.00  0.00    +0.000 C 
ATOM     12  N   UNL     1       0.502  11.715  18.477  0.00  0.00    +0.000 N 
ATOM     13  C   UNL     1       1.696  11.102  18.224  0.00  0.00    +0.000 C 
ATOM     14  O   UNL     1       2.724  11.600  17.809  0.00  0.00    +0.000 OA
ATOM     15  C   UNL     1       1.459   9.666  18.568  0.00  0.00    +0.000 C 
ATOM     16  C   UNL     1       2.365   8.690  18.463  0.00  0.00    +0.000 C 
ATOM     17  N   UNL     1       0.166   9.576  18.991  0.00  0.00    +0.000 N 
ATOM     18  H   UNL     1       0.325  12.696  18.349  0.00  0.00    +0.000 HD
ATOM     19  H   UNL     1      -0.307   8.739  19.299  0.00  0.00    +0.000 HD
ENDBRANCH   4  16
ENDBRANCH   1   7
BRANCH   1  20
ATOM     20  N   UNL     1       2.875   2.124  19.265  0.00  0.00    +0.000 N 
ATOM     21  H   UNL     1       3.140   1.378  19.917  0.00  0.00    +0.000 HD
BRANCH  20  22
ATOM     22  N   UNL     1       3.264   1.928  17.885  0.00  0.00    +0.000 NA
ATOM     23  C   UNL     1       4.204   2.718  17.464  0.00  0.00    +0.000 C 
BRANCH  23  24
ATOM     24  C   UNL     1       4.869   3.827  18.267  0.00  0.00    +0.000 C 
BRANCH  24  25
ATOM     25  O   UNL     1       5.602   3.230  19.344  0.00  0.00    +0.000 OA
ATOM     26  H   UNL     1       6.234   3.900  19.665  0.00  0.00    +0.000 HD
ENDBRANCH  24  25
BRANCH  24  27
ATOM     27  C   UNL     1       5.809   4.696  17.397  0.00  0.00    +0.000 C 
BRANCH  27  28
ATOM     28  O   UNL     1       5.127   5.889  16.982  0.00  0.00    +0.000 OA
ATOM     29  H   UNL     1       5.157   5.967  16.013  0.00  0.00    +0.000 HD
ENDBRANCH  27  28
BRANCH  27  30
ATOM     30  C   UNL     1       7.159   4.998  18.080  0.00  0.00    +0.000 C 
BRANCH  30  31
ATOM     31  O   UNL     1       8.144   4.076  17.611  0.00  0.00    +0.000 OA
ATOM     32  H   UNL     1       9.028   4.458  17.771  0.00  0.00    +0.000 HD
ENDBRANCH  30  31
BRANCH  30  33
ATOM     33  C   UNL     1       7.622   6.448  17.862  0.00  0.00    +0.000 C 
BRANCH  33  34
ATOM     34  O   UNL     1       7.627   6.778  16.472  0.00  0.00    +0.000 OA
ATOM     35  H   UNL     1       8.202   6.145  16.006  0.00  0.00    +0.000 HD
ENDBRANCH  33  34
ENDBRANCH  30  33
ENDBRANCH  27  30
ENDBRANCH  24  27
ENDBRANCH  23  24
ENDBRANCH  20  22
ENDBRANCH   1  20
TORSDOF 12
ENDMDL
MODEL 8
REMARK VINA RESULT:      -7.8      1.627      2.260
REMARK  Name = 
REMARK  12 active torsions:
REMARK  status: ('A' for Active; 'I' for Inactive)
REMARK    1  A    between atoms: C_7  and  C_8
REMARK    2  A    between atoms: C_11  and  S_12
REMARK    3  A    between atoms: S_12  and  N_15
REMARK    4  A    between atoms: N_15  and  N_16
REMARK    5  A    between atoms: C_17  and  C_18
REMARK    6  A    between atoms: C_18  and  O_19
REMARK    7  A    between atoms: C_18  and  C_20
REMARK    8  A    between atoms: C_20  and  O_21
REMARK    9  A    between atoms: C_20  and  C_22
REMARK   10  A    between atoms: C_22  and  O_23
REMARK   11  A    between atoms: C_22  and  C_24
REMARK   12  A    between atoms: C_24  and  O_25
REMARK                            x       y       z     vdW  Elec       q    Type
REMARK                         _______ _______ _______ _____ _____    ______ ____
ROOT
ATOM      1  S   UNL     1       2.597   3.444  18.542  0.00  0.00    +0.000 S 
ATOM      2  O   UNL     1       2.381   2.525  19.644  0.00  0.00    +0.000 OA
ATOM      3  O   UNL     1       1.853   3.318  17.311  0.00  0.00    +0.000 OA
ENDROOT
BRANCH   1   7
ATOM      4  C   UNL     1       1.814   7.685  20.081  0.00  0.00    +0.000 A 
ATOM      5  C   UNL     1       2.351   7.472  18.805  0.00  0.00    +0.000 A 
ATOM      6  C   UNL     1       2.595   6.176  18.349  0.00  0.00    +0.000 A 
ATOM      7  C   UNL     1       2.311   5.085  19.175  0.00  0.00    +0.000 A 
ATOM      8  C   UNL     1       1.739   5.282  20.437  0.00  0.00    +0.000 A 
ATOM      9  C   UNL     1       1.496   6.586  20.889  0.00  0.00    +0.000 A 
BRANCH   4  16
ATOM     10  O   UNL     1      -1.570  11.074  17.765  0.00  0.00    +0.000 OA
ATOM     11  C   UNL     1      -0.749  10.913  18.650  0.00  0.00    +0.000 C 
ATOM     12  N   UNL     1      -0.348  11.854  19.563  0.00  0.00    +0.000 N 
ATOM     13  C   UNL     1       0.578  11.347  20.431  0.00  0.00    +0.000 C 
ATOM     14  O   UNL     1       1.131  11.911  21.353  0.00  0.00    +0.000 OA
ATOM     15  C   UNL     1       0.767   9.931  19.988  0.00  0.00    +0.000 C 
ATOM     16  C   UNL     1       1.600   9.053  20.554  0.00  0.00    +0.000 C 
ATOM     17  N   UNL     1      -0.059   9.744  18.920  0.00  0.00    +0.000 N 
ATOM     18  H   UNL     1      -0.700  12.795  19.590  0.00  0.00    +0.000 HD
ATOM     19  H   UNL     1      -0.170   8.891  18.391  0.00  0.00    +0.000 HD
ENDBRANCH   4  16
ENDBRANCH   1   7
BRANCH   1  20
ATOM     20  N   UNL     1       4.256   3.476  18.182  0.00  0.00    +0.000 N 
ATOM     21  H   UNL     1       4.490   3.788  17.232  0.00  0.00    +0.000 HD
BRANCH  20  22
ATOM     22  N   UNL     1       5.158   3.904  19.229  0.00  0.00    +0.000 NA
ATOM     23  C   UNL     1       5.992   4.837  18.885  0.00  0.00    +0.000 C 
BRANCH  23  24
ATOM     24  C   UNL     1       6.122   5.458  17.502  0.00  0.00    +0.000 C 
BRANCH  24  25
ATOM     25  O   UNL     1       6.310   6.871  17.655  0.00  0.00    +0.000 OA
ATOM     26  H   UNL     1       6.413   7.244  16.760  0.00  0.00    +0.000 HD
ENDBRANCH  24  25
BRANCH  24  27
ATOM     27  C   UNL     1       7.292   4.848  16.694  0.00  0.00    +0.000 C 
BRANCH  27  28
ATOM     28  O   UNL     1       8.117   4.048  17.556  0.00  0.00    +0.000 OA
ATOM     29  H   UNL     1       8.398   4.573  18.325  0.00  0.00    +0.000 HD
ENDBRANCH  27  28
BRANCH  27  30
ATOM     30  C   UNL     1       6.825   4.073  15.444  0.00  0.00    +0.000 C 
BRANCH  30  31
ATOM     31  O   UNL     1       5.485   3.618  15.640  0.00  0.00    +0.000 OA
ATOM     32  H   UNL     1       4.873   4.327  15.365  0.00  0.00    +0.000 HD
ENDBRANCH  30  31
BRANCH  30  33
ATOM     33  C   UNL     1       6.934   4.906  14.155  0.00  0.00    +0.000 C 
BRANCH  33  34
ATOM     34  O   UNL     1       8.145   5.663  14.139  0.00  0.00    +0.000 OA
ATOM     35  H   UNL     1       8.522   5.624  13.243  0.00  0.00    +0.000 HD
ENDBRANCH  33  34
ENDBRANCH  30  33
ENDBRANCH  27  30
ENDBRANCH  24  27
ENDBRANCH  23  24
ENDBRANCH  20  22
ENDBRANCH   1  20
TORSDOF 12
ENDMDL
MODEL 9
REMARK VINA RESULT:      -7.8      0.987      1.334
REMARK  Name = 
REMARK  12 active torsions:
REMARK  status: ('A' for Active; 'I' for Inactive)
REMARK    1  A    between atoms: C_7  and  C_8
REMARK    2  A    between atoms: C_11  and  S_12
REMARK    3  A    between atoms: S_12  and  N_15
REMARK    4  A    between atoms: N_15  and  N_16
REMARK    5  A    between atoms: C_17  and  C_18
REMARK    6  A    between atoms: C_18  and  O_19
REMARK    7  A    between atoms: C_18  and  C_20
REMARK    8  A    between atoms: C_20  and  O_21
REMARK    9  A    between atoms: C_20  and  C_22
REMARK   10  A    between atoms: C_22  and  O_23
REMARK   11  A    between atoms: C_22  and  C_24
REMARK   12  A    between atoms: C_24  and  O_25
REMARK                            x       y       z     vdW  Elec       q    Type
REMARK                         _______ _______ _______ _____ _____    ______ ____
ROOT
ATOM      1  S   UNL     1       2.956   3.274  19.012  0.00  0.00    +0.000 S 
ATOM      2  O   UNL     1       2.888   2.712  20.348  0.00  0.00    +0.000 OA
ATOM      3  O   UNL     1       2.162   2.731  17.934  0.00  0.00    +0.000 OA
ENDROOT
BRANCH   1   7
ATOM      4  C   UNL     1       1.848   7.707  19.308  0.00  0.00    +0.000 A 
ATOM      5  C   UNL     1       2.196   7.135  18.078  0.00  0.00    +0.000 A 
ATOM      6  C   UNL     1       2.542   5.786  18.000  0.00  0.00    +0.000 A 
ATOM      7  C   UNL     1       2.550   5.003  19.158  0.00  0.00    +0.000 A 
ATOM      8  C   UNL     1       2.168   5.553  20.387  0.00  0.00    +0.000 A 
ATOM      9  C   UNL     1       1.821   6.908  20.458  0.00  0.00    +0.000 A 
BRANCH   4  16
ATOM     10  O   UNL     1      -0.440   9.984  23.536  0.00  0.00    +0.000 OA
ATOM     11  C   UNL     1      -0.010  10.149  22.409  0.00  0.00    +0.000 C 
ATOM     12  N   UNL     1      -0.008  11.329  21.709  0.00  0.00    +0.000 N 
ATOM     13  C   UNL     1       0.559  11.176  20.475  0.00  0.00    +0.000 C 
ATOM     14  O   UNL     1       0.718  12.017  19.613  0.00  0.00    +0.000 OA
ATOM     15  C   UNL     1       0.941   9.732  20.415  0.00  0.00    +0.000 C 
ATOM     16  C   UNL     1       1.524   9.133  19.374  0.00  0.00    +0.000 C 
ATOM     17  N   UNL     1       0.570   9.182  21.607  0.00  0.00    +0.000 N 
ATOM     18  H   UNL     1      -0.373  12.194  22.067  0.00  0.00    +0.000 HD
ATOM     19  H   UNL     1       0.692   8.220  21.886  0.00  0.00    +0.000 HD
ENDBRANCH   4  16
ENDBRANCH   1   7
BRANCH   1  20
ATOM     20  N   UNL     1       4.583   3.322  18.527  0.00  0.00    +0.000 N 
ATOM     21  H   UNL     1       4.734   3.487  17.525  0.00  0.00    +0.000 HD
BRANCH  20  22
ATOM     22  N   UNL     1       5.528   3.952  19.423  0.00  0.00    +0.000 NA
ATOM     23  C   UNL     1       6.175   4.957  18.917  0.00  0.00    +0.000 C 
BRANCH  23  24
ATOM     24  C   UNL     1       6.055   5.474  17.490  0.00  0.00    +0.000 C 
BRANCH  24  25
ATOM     25  O   UNL     1       6.162   6.904  17.516  0.00  0.00    +0.000 OA
ATOM     26  H   UNL     1       5.428   7.234  18.068  0.00  0.00    +0.000 HD
ENDBRANCH  24  25
BRANCH  24  27
ATOM     27  C   UNL     1       7.134   4.874  16.558  0.00  0.00    +0.000 C 
BRANCH  27  28
ATOM     28  O   UNL     1       8.091   4.132  17.331  0.00  0.00    +0.000 OA
ATOM     29  H   UNL     1       8.842   3.876  16.769  0.00  0.00    +0.000 HD
ENDBRANCH  27  28
BRANCH  27  30
ATOM     30  C   UNL     1       6.541   4.041  15.403  0.00  0.00    +0.000 C 
BRANCH  30  31
ATOM     31  O   UNL     1       5.150   3.819  15.643  0.00  0.00    +0.000 OA
ATOM     32  H   UNL     1       4.712   3.637  14.791  0.00  0.00    +0.000 HD
ENDBRANCH  30  31
BRANCH  30  33
ATOM     33  C   UNL     1       6.757   4.698  14.028  0.00  0.00    +0.000 C 
BRANCH  33  34
ATOM     34  O   UNL     1       7.923   5.523  14.035  0.00  0.00    +0.000 OA
ATOM     35  H   UNL     1       8.686   4.982  13.764  0.00  0.00    +0.000 HD
ENDBRANCH  33  34
ENDBRANCH  30  33
ENDBRANCH  27  30
ENDBRANCH  24  27
ENDBRANCH  23  24
ENDBRANCH  20  22
ENDBRANCH   1  20
TORSDOF 12
ENDMDL
