MODEL 1
REMARK VINA RESULT:      -5.7      0.000      0.000
REMARK  Name = 
REMARK  5 active torsions:
REMARK  status: ('A' for Active; 'I' for Inactive)
REMARK    1  A    between atoms: C_1  and  O_2
REMARK    2  A    between atoms: O_2  and  C_3
REMARK    3  A    between atoms: C_6  and  C_7
REMARK    4  A    between atoms: N_10  and  C_11
REMARK    5  A    between atoms: N_20  and  C_21
REMARK                            x       y       z     vdW  Elec       q    Type
REMARK                         _______ _______ _______ _____ _____    ______ ____
ROOT
ATOM      1  C   UNL     1       7.832  15.929  18.743  0.00  0.00    +0.000 C 
ATOM      2  C   UNL     1       8.014  14.530  18.063  0.00  0.00    +0.000 C 
ATOM      3  O   UNL     1       7.055  13.895  17.634  0.00  0.00    +0.000 OA
ATOM      4  N   UNL     1       9.332  14.120  17.916  0.00  0.00    +0.000 N 
ATOM      5  C   UNL     1      10.258  15.214  17.681  0.00  0.00    +0.000 C 
ATOM      6  C   UNL     1      10.244  16.232  18.829  0.00  0.00    +0.000 C 
ATOM      7  O   UNL     1      11.218  16.964  18.971  0.00  0.00    +0.000 OA
ATOM      8  N   UNL     1       9.036  16.305  19.565  0.00  0.00    +0.000 N 
ENDROOT
BRANCH   1  12
ATOM      9  C   UNL     1       3.924  16.042  20.677  0.00  0.00    +0.000 A 
ATOM     10  C   UNL     1       4.356  17.125  19.911  0.00  0.00    +0.000 A 
ATOM     11  C   UNL     1       5.603  17.086  19.292  0.00  0.00    +0.000 A 
ATOM     12  C   UNL     1       6.472  15.987  19.450  0.00  0.00    +0.000 A 
ATOM     13  C   UNL     1       6.042  14.921  20.257  0.00  0.00    +0.000 A 
ATOM     14  C   UNL     1       4.773  14.946  20.855  0.00  0.00    +0.000 A 
BRANCH   9  16
ATOM     15  C   UNL     1       1.642  16.547  20.326  0.00  0.00    +0.000 C 
ATOM     16  O   UNL     1       2.682  16.191  21.224  0.00  0.00    +0.000 OA
ENDBRANCH   9  16
ENDBRANCH   1  12
BRANCH   4  17
ATOM     17  C   UNL     1       9.760  12.743  17.592  0.00  0.00    +0.000 C 
ATOM     18  C   UNL     1      11.260  12.648  17.284  0.00  0.00    +0.000 C 
ATOM     19  C   UNL     1      12.144  12.625  18.520  0.00  0.00    +0.000 C 
ATOM     20  C   UNL     1      11.709  11.595  19.561  0.00  0.00    +0.000 C 
ATOM     21  C   UNL     1      10.206  11.461  19.802  0.00  0.00    +0.000 C 
ATOM     22  C   UNL     1       9.327  11.642  18.567  0.00  0.00    +0.000 C 
ENDBRANCH   4  17
BRANCH   8  23
ATOM     23  C   UNL     1       8.886  17.266  20.710  0.00  0.00    +0.000 C 
ATOM     24  C   UNL     1       8.129  16.669  21.920  0.00  0.00    +0.000 C 
ATOM     25  C   UNL     1       8.913  15.546  22.581  0.00  0.00    +0.000 C 
ATOM     26  C   UNL     1      10.228  16.072  23.135  0.00  0.00    +0.000 C 
ATOM     27  C   UNL     1      11.023  16.872  22.106  0.00  0.00    +0.000 C 
ATOM     28  C   UNL     1      10.169  17.879  21.326  0.00  0.00    +0.000 C 
ENDBRANCH   8  23
TORSDOF 4
ENDMDL
MODEL 2
REMARK VINA RESULT:      -5.6      0.521      1.048
REMARK  Name = 
REMARK  5 active torsions:
REMARK  status: ('A' for Active; 'I' for Inactive)
REMARK    1  A    between atoms: C_1  and  O_2
REMARK    2  A    between atoms: O_2  and  C_3
REMARK    3  A    between atoms: C_6  and  C_7
REMARK    4  A    between atoms: N_10  and  C_11
REMARK    5  A    between atoms: N_20  and  C_21
REMARK                            x       y       z     vdW  Elec       q    Type
REMARK                         _______ _______ _______ _____ _____    ______ ____
ROOT
ATOM      1  C   UNL     1       8.136  15.940  18.623  0.00  0.00    +0.000 C 
ATOM      2  C   UNL     1       8.333  14.513  18.011  0.00  0.00    +0.000 C 
ATOM      3  O   UNL     1       7.378  13.832  17.647  0.00  0.00    +0.000 OA
ATOM      4  N   UNL     1       9.656  14.128  17.842  0.00  0.00    +0.000 N 
ATOM      5  C   UNL     1      10.545  15.231  17.521  0.00  0.00    +0.000 C 
ATOM      6  C   UNL     1      10.540  16.307  18.614  0.00  0.00    +0.000 C 
ATOM      7  O   UNL     1      11.499  17.070  18.686  0.00  0.00    +0.000 OA
ATOM      8  N   UNL     1       9.354  16.388  19.385  0.00  0.00    +0.000 N 
ENDROOT
BRANCH   1  12
ATOM      9  C   UNL     1       4.373  16.172  20.817  0.00  0.00    +0.000 A 
ATOM     10  C   UNL     1       5.221  15.082  21.001  0.00  0.00    +0.000 A 
ATOM     11  C   UNL     1       6.424  15.010  20.301  0.00  0.00    +0.000 A 
ATOM     12  C   UNL     1       6.797  16.002  19.371  0.00  0.00    +0.000 A 
ATOM     13  C   UNL     1       5.914  17.074  19.164  0.00  0.00    +0.000 A 
ATOM     14  C   UNL     1       4.717  17.162  19.891  0.00  0.00    +0.000 A 
BRANCH   9  16
ATOM     15  C   UNL     1       2.457  17.328  21.578  0.00  0.00    +0.000 C 
ATOM     16  O   UNL     1       3.230  16.137  21.564  0.00  0.00    +0.000 OA
ENDBRANCH   9  16
ENDBRANCH   1  12
BRANCH   4  17
ATOM     17  C   UNL     1      10.109  12.747  17.575  0.00  0.00    +0.000 C 
ATOM     18  C   UNL     1      11.637  12.634  17.487  0.00  0.00    +0.000 C 
ATOM     19  C   UNL     1      12.333  12.595  18.838  0.00  0.00    +0.000 C 
ATOM     20  C   UNL     1      11.740  11.567  19.800  0.00  0.00    +0.000 C 
ATOM     21  C   UNL     1      10.216  11.451  19.820  0.00  0.00    +0.000 C 
ATOM     22  C   UNL     1       9.527  11.648  18.473  0.00  0.00    +0.000 C 
ENDBRANCH   4  17
BRANCH   8  23
ATOM     23  C   UNL     1       9.215  17.405  20.483  0.00  0.00    +0.000 C 
ATOM     24  C   UNL     1       8.548  16.842  21.761  0.00  0.00    +0.000 C 
ATOM     25  C   UNL     1       9.415  15.794  22.440  0.00  0.00    +0.000 C 
ATOM     26  C   UNL     1      10.729  16.408  22.897  0.00  0.00    +0.000 C 
ATOM     27  C   UNL     1      11.435  17.184  21.787  0.00  0.00    +0.000 C 
ATOM     28  C   UNL     1      10.497  18.107  20.999  0.00  0.00    +0.000 C 
ENDBRANCH   8  23
TORSDOF 4
ENDMDL
MODEL 3
REMARK VINA RESULT:      -5.5      9.301     11.357
REMARK  Name = 
REMARK  5 active torsions:
REMARK  status: ('A' for Active; 'I' for Inactive)
REMARK    1  A    between atoms: C_1  and  O_2
REMARK    2  A    between atoms: O_2  and  C_3
REMARK    3  A    between atoms: C_6  and  C_7
REMARK    4  A    between atoms: N_10  and  C_11
REMARK    5  A    between atoms: N_20  and  C_21
REMARK                            x       y       z     vdW  Elec       q    Type
REMARK                         _______ _______ _______ _____ _____    ______ ____
ROOT
ATOM      1  C   UNL     1       3.727   6.538  19.207  0.00  0.00    +0.000 C 
ATOM      2  C   UNL     1       4.892   6.848  18.207  0.00  0.00    +0.000 C 
ATOM      3  O   UNL     1       5.143   7.995  17.850  0.00  0.00    +0.000 OA
ATOM      4  N   UNL     1       5.651   5.747  17.836  0.00  0.00    +0.000 N 
ATOM      5  C   UNL     1       5.785   4.752  18.885  0.00  0.00    +0.000 C 
ATOM      6  C   UNL     1       4.423   4.211  19.338  0.00  0.00    +0.000 C 
ATOM      7  O   UNL     1       4.387   3.121  19.902  0.00  0.00    +0.000 OA
ATOM      8  N   UNL     1       3.326   5.088  19.155  0.00  0.00    +0.000 N 
ENDROOT
BRANCH   1  12
ATOM      9  C   UNL     1       0.605   9.541  18.701  0.00  0.00    +0.000 A 
ATOM     10  C   UNL     1       0.910   9.059  19.973  0.00  0.00    +0.000 A 
ATOM     11  C   UNL     1       1.909   8.101  20.134  0.00  0.00    +0.000 A 
ATOM     12  C   UNL     1       2.605   7.569  19.029  0.00  0.00    +0.000 A 
ATOM     13  C   UNL     1       2.260   8.033  17.749  0.00  0.00    +0.000 A 
ATOM     14  C   UNL     1       1.276   9.020  17.591  0.00  0.00    +0.000 A 
BRANCH   9  16
ATOM     15  C   UNL     1      -1.448  10.243  17.764  0.00  0.00    +0.000 C 
ATOM     16  O   UNL     1      -0.382  10.484  18.670  0.00  0.00    +0.000 OA
ENDBRANCH   9  16
ENDBRANCH   1  12
BRANCH   4  17
ATOM     17  C   UNL     1       6.593   5.712  16.698  0.00  0.00    +0.000 C 
ATOM     18  C   UNL     1       7.115   4.299  16.407  0.00  0.00    +0.000 C 
ATOM     19  C   UNL     1       6.146   3.431  15.622  0.00  0.00    +0.000 C 
ATOM     20  C   UNL     1       5.602   4.109  14.364  0.00  0.00    +0.000 C 
ATOM     21  C   UNL     1       5.238   5.588  14.490  0.00  0.00    +0.000 C 
ATOM     22  C   UNL     1       6.139   6.407  15.409  0.00  0.00    +0.000 C 
ENDBRANCH   4  17
BRANCH   8  23
ATOM     23  C   UNL     1       1.938   4.684  19.564  0.00  0.00    +0.000 C 
ATOM     24  C   UNL     1       1.099   4.101  18.401  0.00  0.00    +0.000 C 
ATOM     25  C   UNL     1       1.657   2.775  17.908  0.00  0.00    +0.000 C 
ATOM     26  C   UNL     1       1.607   1.734  19.015  0.00  0.00    +0.000 C 
ATOM     27  C   UNL     1       2.227   2.230  20.320  0.00  0.00    +0.000 C 
ATOM     28  C   UNL     1       1.781   3.647  20.705  0.00  0.00    +0.000 C 
ENDBRANCH   8  23
TORSDOF 4
ENDMDL
MODEL 4
REMARK VINA RESULT:      -5.5      7.483     11.399
REMARK  Name = 
REMARK  5 active torsions:
REMARK  status: ('A' for Active; 'I' for Inactive)
REMARK    1  A    between atoms: C_1  and  O_2
REMARK    2  A    between atoms: O_2  and  C_3
REMARK    3  A    between atoms: C_6  and  C_7
REMARK    4  A    between atoms: N_10  and  C_11
REMARK    5  A    between atoms: N_20  and  C_21
REMARK                            x       y       z     vdW  Elec       q    Type
REMARK                         _______ _______ _______ _____ _____    ______ ____
ROOT
ATOM      1  C   UNL     1      -1.101  12.398  20.972  0.00  0.00    +0.000 C 
ATOM      2  C   UNL     1      -2.405  12.762  21.757  0.00  0.00    +0.000 C 
ATOM      3  O   UNL     1      -3.426  12.088  21.655  0.00  0.00    +0.000 OA
ATOM      4  N   UNL     1      -2.284  13.840  22.623  0.00  0.00    +0.000 N 
ATOM      5  C   UNL     1      -0.968  13.956  23.226  0.00  0.00    +0.000 C 
ATOM      6  C   UNL     1       0.133  14.118  22.171  0.00  0.00    +0.000 C 
ATOM      7  O   UNL     1       1.202  14.614  22.514  0.00  0.00    +0.000 OA
ATOM      8  N   UNL     1      -0.156  13.567  20.898  0.00  0.00    +0.000 N 
ENDROOT
BRANCH   1  12
ATOM      9  C   UNL     1      -2.210  10.428  17.242  0.00  0.00    +0.000 A 
ATOM     10  C   UNL     1      -1.090   9.997  17.953  0.00  0.00    +0.000 A 
ATOM     11  C   UNL     1      -0.738  10.626  19.145  0.00  0.00    +0.000 A 
ATOM     12  C   UNL     1      -1.468  11.725  19.643  0.00  0.00    +0.000 A 
ATOM     13  C   UNL     1      -2.568  12.176  18.896  0.00  0.00    +0.000 A 
ATOM     14  C   UNL     1      -2.941  11.523  17.712  0.00  0.00    +0.000 A 
BRANCH   9  16
ATOM     15  C   UNL     1      -3.155  10.431  15.076  0.00  0.00    +0.000 C 
ATOM     16  O   UNL     1      -2.461   9.729  16.096  0.00  0.00    +0.000 OA
ENDBRANCH   9  16
ENDBRANCH   1  12
BRANCH   4  17
ATOM     17  C   UNL     1      -3.416  14.564  23.239  0.00  0.00    +0.000 C 
ATOM     18  C   UNL     1      -3.491  14.357  24.758  0.00  0.00    +0.000 C 
ATOM     19  C   UNL     1      -2.519  15.219  25.548  0.00  0.00    +0.000 C 
ATOM     20  C   UNL     1      -2.570  16.698  25.169  0.00  0.00    +0.000 C 
ATOM     21  C   UNL     1      -2.702  17.018  23.681  0.00  0.00    +0.000 C 
ATOM     22  C   UNL     1      -3.561  16.046  22.877  0.00  0.00    +0.000 C 
ENDBRANCH   4  17
BRANCH   8  23
ATOM     23  C   UNL     1       0.841  13.650  19.777  0.00  0.00    +0.000 C 
ATOM     24  C   UNL     1       0.233  14.165  18.450  0.00  0.00    +0.000 C 
ATOM     25  C   UNL     1      -0.212  15.616  18.555  0.00  0.00    +0.000 C 
ATOM     26  C   UNL     1       0.980  16.516  18.839  0.00  0.00    +0.000 C 
ATOM     27  C   UNL     1       1.818  16.030  20.019  0.00  0.00    +0.000 C 
ATOM     28  C   UNL     1       2.105  14.523  19.982  0.00  0.00    +0.000 C 
ENDBRANCH   8  23
TORSDOF 4
ENDMDL
MODEL 5
REMARK VINA RESULT:      -5.5      3.090      5.663
REMARK  Name = 
REMARK  5 active torsions:
REMARK  status: ('A' for Active; 'I' for Inactive)
REMARK    1  A    between atoms: C_1  and  O_2
REMARK    2  A    between atoms: O_2  and  C_3
REMARK    3  A    between atoms: C_6  and  C_7
REMARK    4  A    between atoms: N_10  and  C_11
REMARK    5  A    between atoms: N_20  and  C_21
REMARK                            x       y       z     vdW  Elec       q    Type
REMARK                         _______ _______ _______ _____ _____    ______ ____
ROOT
ATOM      1  C   UNL     1       8.974  14.286  22.114  0.00  0.00    +0.000 C 
ATOM      2  C   UNL     1       7.928  15.325  21.590  0.00  0.00    +0.000 C 
ATOM      3  O   UNL     1       7.004  15.720  22.297  0.00  0.00    +0.000 OA
ATOM      4  N   UNL     1       8.178  15.815  20.316  0.00  0.00    +0.000 N 
ATOM      5  C   UNL     1       9.592  15.926  20.003  0.00  0.00    +0.000 C 
ATOM      6  C   UNL     1      10.307  14.572  20.100  0.00  0.00    +0.000 C 
ATOM      7  O   UNL     1      11.367  14.428  19.497  0.00  0.00    +0.000 OA
ATOM      8  N   UNL     1       9.718  13.632  20.981  0.00  0.00    +0.000 N 
ENDROOT
BRANCH   1  12
ATOM      9  C   UNL     1       7.019  11.697  25.030  0.00  0.00    +0.000 A 
ATOM     10  C   UNL     1       8.193  12.369  25.369  0.00  0.00    +0.000 A 
ATOM     11  C   UNL     1       8.815  13.197  24.438  0.00  0.00    +0.000 A 
ATOM     12  C   UNL     1       8.309  13.349  23.131  0.00  0.00    +0.000 A 
ATOM     13  C   UNL     1       7.149  12.634  22.788  0.00  0.00    +0.000 A 
ATOM     14  C   UNL     1       6.506  11.825  23.736  0.00  0.00    +0.000 A 
BRANCH   9  16
ATOM     15  C   UNL     1       5.084  10.790  26.036  0.00  0.00    +0.000 C 
ATOM     16  O   UNL     1       6.497  10.924  26.027  0.00  0.00    +0.000 OA
ENDBRANCH   9  16
ENDBRANCH   1  12
BRANCH   4  17
ATOM     17  C   UNL     1       7.206  16.557  19.487  0.00  0.00    +0.000 C 
ATOM     18  C   UNL     1       7.331  16.228  17.993  0.00  0.00    +0.000 C 
ATOM     19  C   UNL     1       6.667  14.922  17.590  0.00  0.00    +0.000 C 
ATOM     20  C   UNL     1       5.227  14.792  18.084  0.00  0.00    +0.000 C 
ATOM     21  C   UNL     1       4.945  15.285  19.503  0.00  0.00    +0.000 C 
ATOM     22  C   UNL     1       5.742  16.511  19.939  0.00  0.00    +0.000 C 
ENDBRANCH   4  17
BRANCH   8  23
ATOM     23  C   UNL     1      10.324  12.270  21.174  0.00  0.00    +0.000 C 
ATOM     24  C   UNL     1       9.346  11.112  20.859  0.00  0.00    +0.000 C 
ATOM     25  C   UNL     1       8.979  11.064  19.385  0.00  0.00    +0.000 C 
ATOM     26  C   UNL     1      10.215  10.800  18.539  0.00  0.00    +0.000 C 
ATOM     27  C   UNL     1      11.367  11.747  18.869  0.00  0.00    +0.000 C 
ATOM     28  C   UNL     1      11.603  11.916  20.375  0.00  0.00    +0.000 C 
ENDBRANCH   8  23
TORSDOF 4
ENDMDL
MODEL 6
REMARK VINA RESULT:      -5.5      1.923      2.542
REMARK  Name = 
REMARK  5 active torsions:
REMARK  status: ('A' for Active; 'I' for Inactive)
REMARK    1  A    between atoms: C_1  and  O_2
REMARK    2  A    between atoms: O_2  and  C_3
REMARK    3  A    between atoms: C_6  and  C_7
REMARK    4  A    between atoms: N_10  and  C_11
REMARK    5  A    between atoms: N_20  and  C_21
REMARK                            x       y       z     vdW  Elec       q    Type
REMARK                         _______ _______ _______ _____ _____    ______ ____
ROOT
ATOM      1  C   UNL     1       8.377  16.082  19.781  0.00  0.00    +0.000 C 
ATOM      2  C   UNL     1       9.323  15.475  18.692  0.00  0.00    +0.000 C 
ATOM      3  O   UNL     1       9.056  15.548  17.495  0.00  0.00    +0.000 OA
ATOM      4  N   UNL     1      10.504  14.934  19.180  0.00  0.00    +0.000 N 
ATOM      5  C   UNL     1      11.022  15.627  20.347  0.00  0.00    +0.000 C 
ATOM      6  C   UNL     1      10.022  15.615  21.510  0.00  0.00    +0.000 C 
ATOM      7  O   UNL     1      10.448  15.793  22.647  0.00  0.00    +0.000 OA
ATOM      8  N   UNL     1       8.659  15.505  21.142  0.00  0.00    +0.000 N 
ENDROOT
BRANCH   1  12
ATOM      9  C   UNL     1       4.273  15.934  18.310  0.00  0.00    +0.000 A 
ATOM     10  C   UNL     1       4.729  17.061  18.993  0.00  0.00    +0.000 A 
ATOM     11  C   UNL     1       6.041  17.108  19.461  0.00  0.00    +0.000 A 
ATOM     12  C   UNL     1       6.922  16.020  19.295  0.00  0.00    +0.000 A 
ATOM     13  C   UNL     1       6.438  14.875  18.643  0.00  0.00    +0.000 A 
ATOM     14  C   UNL     1       5.126  14.840  18.145  0.00  0.00    +0.000 A 
BRANCH   9  16
ATOM     15  C   UNL     1       2.050  15.178  18.576  0.00  0.00    +0.000 C 
ATOM     16  O   UNL     1       2.975  16.009  17.892  0.00  0.00    +0.000 OA
ENDBRANCH   9  16
ENDBRANCH   1  12
BRANCH   4  17
ATOM     17  C   UNL     1      11.409  14.047  18.419  0.00  0.00    +0.000 C 
ATOM     18  C   UNL     1      12.333  13.226  19.329  0.00  0.00    +0.000 C 
ATOM     19  C   UNL     1      11.670  12.007  19.946  0.00  0.00    +0.000 C 
ATOM     20  C   UNL     1      10.942  11.128  18.930  0.00  0.00    +0.000 C 
ATOM     21  C   UNL     1      10.148  11.854  17.845  0.00  0.00    +0.000 C 
ATOM     22  C   UNL     1      10.761  13.161  17.349  0.00  0.00    +0.000 C 
ENDBRANCH   4  17
BRANCH   8  23
ATOM     23  C   UNL     1       7.576  15.490  22.184  0.00  0.00    +0.000 C 
ATOM     24  C   UNL     1       6.608  14.290  22.048  0.00  0.00    +0.000 C 
ATOM     25  C   UNL     1       7.302  12.966  22.327  0.00  0.00    +0.000 C 
ATOM     26  C   UNL     1       7.810  12.926  23.760  0.00  0.00    +0.000 C 
ATOM     27  C   UNL     1       8.635  14.157  24.127  0.00  0.00    +0.000 C 
ATOM     28  C   UNL     1       7.995  15.475  23.676  0.00  0.00    +0.000 C 
ENDBRANCH   8  23
TORSDOF 4
ENDMDL
MODEL 7
REMARK VINA RESULT:      -5.4      3.418      4.529
REMARK  Name = 
REMARK  5 active torsions:
REMARK  status: ('A' for Active; 'I' for Inactive)
REMARK    1  A    between atoms: C_1  and  O_2
REMARK    2  A    between atoms: O_2  and  C_3
REMARK    3  A    between atoms: C_6  and  C_7
REMARK    4  A    between atoms: N_10  and  C_11
REMARK    5  A    between atoms: N_20  and  C_21
REMARK                            x       y       z     vdW  Elec       q    Type
REMARK                         _______ _______ _______ _____ _____    ______ ____
ROOT
ATOM      1  C   UNL     1       7.981  13.300  21.725  0.00  0.00    +0.000 C 
ATOM      2  C   UNL     1       9.213  12.514  21.162  0.00  0.00    +0.000 C 
ATOM      3  O   UNL     1       9.370  11.318  21.389  0.00  0.00    +0.000 OA
ATOM      4  N   UNL     1      10.047  13.251  20.334  0.00  0.00    +0.000 N 
ATOM      5  C   UNL     1       9.348  14.249  19.544  0.00  0.00    +0.000 C 
ATOM      6  C   UNL     1       8.604  15.260  20.426  0.00  0.00    +0.000 C 
ATOM      7  O   UNL     1       8.316  16.352  19.946  0.00  0.00    +0.000 OA
ATOM      8  N   UNL     1       8.218  14.786  21.704  0.00  0.00    +0.000 N 
ENDROOT
BRANCH   1  12
ATOM      9  C   UNL     1       6.782  11.481  25.503  0.00  0.00    +0.000 A 
ATOM     10  C   UNL     1       5.848  11.648  24.481  0.00  0.00    +0.000 A 
ATOM     11  C   UNL     1       6.233  12.227  23.274  0.00  0.00    +0.000 A 
ATOM     12  C   UNL     1       7.547  12.691  23.065  0.00  0.00    +0.000 A 
ATOM     13  C   UNL     1       8.468  12.555  24.117  0.00  0.00    +0.000 A 
ATOM     14  C   UNL     1       8.088  11.944  25.321  0.00  0.00    +0.000 A 
BRANCH   9  16
ATOM     15  C   UNL     1       4.892  11.016  26.844  0.00  0.00    +0.000 C 
ATOM     16  O   UNL     1       6.291  10.893  26.633  0.00  0.00    +0.000 OA
ENDBRANCH   9  16
ENDBRANCH   1  12
BRANCH   4  17
ATOM     17  C   UNL     1      11.410  12.848  19.927  0.00  0.00    +0.000 C 
ATOM     18  C   UNL     1      11.408  11.642  18.978  0.00  0.00    +0.000 C 
ATOM     19  C   UNL     1      11.088  11.991  17.534  0.00  0.00    +0.000 C 
ATOM     20  C   UNL     1      11.923  13.148  16.987  0.00  0.00    +0.000 C 
ATOM     21  C   UNL     1      12.161  14.325  17.932  0.00  0.00    +0.000 C 
ATOM     22  C   UNL     1      12.327  13.959  19.403  0.00  0.00    +0.000 C 
ENDBRANCH   4  17
BRANCH   8  23
ATOM     23  C   UNL     1       7.476  15.673  22.664  0.00  0.00    +0.000 C 
ATOM     24  C   UNL     1       7.994  15.573  24.119  0.00  0.00    +0.000 C 
ATOM     25  C   UNL     1       9.409  16.113  24.256  0.00  0.00    +0.000 C 
ATOM     26  C   UNL     1       9.449  17.592  23.904  0.00  0.00    +0.000 C 
ATOM     27  C   UNL     1       8.787  17.896  22.562  0.00  0.00    +0.000 C 
ATOM     28  C   UNL     1       7.436  17.195  22.376  0.00  0.00    +0.000 C 
ENDBRANCH   8  23
TORSDOF 4
ENDMDL
MODEL 8
REMARK VINA RESULT:      -5.4      3.480      4.820
REMARK  Name = 
REMARK  5 active torsions:
REMARK  status: ('A' for Active; 'I' for Inactive)
REMARK    1  A    between atoms: C_1  and  O_2
REMARK    2  A    between atoms: O_2  and  C_3
REMARK    3  A    between atoms: C_6  and  C_7
REMARK    4  A    between atoms: N_10  and  C_11
REMARK    5  A    between atoms: N_20  and  C_21
REMARK                            x       y       z     vdW  Elec       q    Type
REMARK                         _______ _______ _______ _____ _____    ______ ____
ROOT
ATOM      1  C   UNL     1       7.777  13.086  21.641  0.00  0.00    +0.000 C 
ATOM      2  C   UNL     1       9.207  12.673  21.156  0.00  0.00    +0.000 C 
ATOM      3  O   UNL     1       9.766  11.668  21.587  0.00  0.00    +0.000 OA
ATOM      4  N   UNL     1       9.740  13.477  20.158  0.00  0.00    +0.000 N 
ATOM      5  C   UNL     1       8.744  14.006  19.244  0.00  0.00    +0.000 C 
ATOM      6  C   UNL     1       7.693  14.853  19.972  0.00  0.00    +0.000 C 
ATOM      7  O   UNL     1       7.048  15.669  19.320  0.00  0.00    +0.000 OA
ATOM      8  N   UNL     1       7.486  14.531  21.336  0.00  0.00    +0.000 N 
ENDROOT
BRANCH   1  12
ATOM      9  C   UNL     1       7.141  11.886  25.786  0.00  0.00    +0.000 A 
ATOM     10  C   UNL     1       8.307  12.561  25.425  0.00  0.00    +0.000 A 
ATOM     11  C   UNL     1       8.508  12.946  24.101  0.00  0.00    +0.000 A 
ATOM     12  C   UNL     1       7.573  12.635  23.093  0.00  0.00    +0.000 A 
ATOM     13  C   UNL     1       6.423  11.918  23.462  0.00  0.00    +0.000 A 
ATOM     14  C   UNL     1       6.206  11.558  24.800  0.00  0.00    +0.000 A 
BRANCH   9  16
ATOM     15  C   UNL     1       5.954  10.753  27.486  0.00  0.00    +0.000 C 
ATOM     16  O   UNL     1       7.052  11.571  27.111  0.00  0.00    +0.000 OA
ENDBRANCH   9  16
ENDBRANCH   1  12
BRANCH   4  17
ATOM     17  C   UNL     1      11.160  13.490  19.749  0.00  0.00    +0.000 C 
ATOM     18  C   UNL     1      11.631  12.132  19.208  0.00  0.00    +0.000 C 
ATOM     19  C   UNL     1      11.225  11.866  17.768  0.00  0.00    +0.000 C 
ATOM     20  C   UNL     1      11.570  13.010  16.816  0.00  0.00    +0.000 C 
ATOM     21  C   UNL     1      11.329  14.427  17.336  0.00  0.00    +0.000 C 
ATOM     22  C   UNL     1      11.597  14.632  18.824  0.00  0.00    +0.000 C 
ENDBRANCH   4  17
BRANCH   8  23
ATOM     23  C   UNL     1       6.479  15.279  22.162  0.00  0.00    +0.000 C 
ATOM     24  C   UNL     1       6.990  15.638  23.579  0.00  0.00    +0.000 C 
ATOM     25  C   UNL     1       8.133  16.639  23.533  0.00  0.00    +0.000 C 
ATOM     26  C   UNL     1       7.666  17.950  22.919  0.00  0.00    +0.000 C 
ATOM     27  C   UNL     1       6.949  17.753  21.585  0.00  0.00    +0.000 C 
ATOM     28  C   UNL     1       5.921  16.615  21.608  0.00  0.00    +0.000 C 
ENDBRANCH   8  23
TORSDOF 4
ENDMDL
MODEL 9
REMARK VINA RESULT:      -5.4      3.444      4.664
REMARK  Name = 
REMARK  5 active torsions:
REMARK  status: ('A' for Active; 'I' for Inactive)
REMARK    1  A    between atoms: C_1  and  O_2
REMARK    2  A    between atoms: O_2  and  C_3
REMARK    3  A    between atoms: C_6  and  C_7
REMARK    4  A    between atoms: N_10  and  C_11
REMARK    5  A    between atoms: N_20  and  C_21
REMARK                            x       y       z     vdW  Elec       q    Type
REMARK                         _______ _______ _______ _____ _____    ______ ____
ROOT
ATOM      1  C   UNL     1       7.561  13.678  22.565  0.00  0.00    +0.000 C 
ATOM      2  C   UNL     1       8.286  12.363  22.125  0.00  0.00    +0.000 C 
ATOM      3  O   UNL     1       8.069  11.291  22.684  0.00  0.00    +0.000 OA
ATOM      4  N   UNL     1       9.113  12.494  21.018  0.00  0.00    +0.000 N 
ATOM      5  C   UNL     1       8.640  13.469  20.052  0.00  0.00    +0.000 C 
ATOM      6  C   UNL     1       8.509  14.868  20.668  0.00  0.00    +0.000 C 
ATOM      7  O   UNL     1       8.514  15.839  19.917  0.00  0.00    +0.000 OA
ATOM      8  N   UNL     1       8.283  14.901  22.066  0.00  0.00    +0.000 N 
ENDROOT
BRANCH   1  12
ATOM      9  C   UNL     1       6.722  13.622  26.845  0.00  0.00    +0.000 A 
ATOM     10  C   UNL     1       7.981  13.248  26.376  0.00  0.00    +0.000 A 
ATOM     11  C   UNL     1       8.248  13.269  25.008  0.00  0.00    +0.000 A 
ATOM     12  C   UNL     1       7.259  13.624  24.069  0.00  0.00    +0.000 A 
ATOM     13  C   UNL     1       5.983  13.958  24.552  0.00  0.00    +0.000 A 
ATOM     14  C   UNL     1       5.724  13.968  25.931  0.00  0.00    +0.000 A 
BRANCH   9  16
ATOM     15  C   UNL     1       5.260  13.702  28.700  0.00  0.00    +0.000 C 
ATOM     16  O   UNL     1       6.583  13.572  28.203  0.00  0.00    +0.000 OA
ENDBRANCH   9  16
ENDBRANCH   1  12
BRANCH   4  17
ATOM     17  C   UNL     1      10.123  11.503  20.593  0.00  0.00    +0.000 C 
ATOM     18  C   UNL     1       9.575  10.505  19.564  0.00  0.00    +0.000 C 
ATOM     19  C   UNL     1       9.519  11.047  18.146  0.00  0.00    +0.000 C 
ATOM     20  C   UNL     1      10.831  11.681  17.683  0.00  0.00    +0.000 C 
ATOM     21  C   UNL     1      11.573  12.539  18.708  0.00  0.00    +0.000 C 
ATOM     22  C   UNL     1      11.484  12.056  20.152  0.00  0.00    +0.000 C 
ENDBRANCH   4  17
BRANCH   8  23
ATOM     23  C   UNL     1       8.128  16.207  22.793  0.00  0.00    +0.000 C 
ATOM     24  C   UNL     1       8.892  16.256  24.139  0.00  0.00    +0.000 C 
ATOM     25  C   UNL     1      10.398  16.208  23.939  0.00  0.00    +0.000 C 
ATOM     26  C   UNL     1      10.868  17.423  23.154  0.00  0.00    +0.000 C 
ATOM     27  C   UNL     1      10.070  17.639  21.869  0.00  0.00    +0.000 C 
ATOM     28  C   UNL     1       8.555  17.507  22.065  0.00  0.00    +0.000 C 
ENDBRANCH   8  23
TORSDOF 4
ENDMDL
