MODEL 1
REMARK VINA RESULT:      -7.3      0.000      0.000
REMARK  Name = 
REMARK  1 active torsions:
REMARK  status: ('A' for Active; 'I' for Inactive)
REMARK    1  A    between atoms: C_5  and  C_6
REMARK                            x       y       z     vdW  Elec       q    Type
REMARK                         _______ _______ _______ _____ _____    ______ ____
ROOT
ATOM      1  C   UNL     1       4.407   4.507  18.515  0.00  0.00    +0.000 A 
ATOM      2  N   UNL     1       4.546   3.417  19.254  0.00  0.00    +0.000 NA
ATOM      3  N   UNL     1       3.708   3.506  20.335  0.00  0.00    +0.000 NA
ATOM      4  C   UNL     1       3.052   4.638  20.230  0.00  0.00    +0.000 A 
ATOM      5  C   UNL     1       2.079   5.233  21.042  0.00  0.00    +0.000 A 
ATOM      6  C   UNL     1       1.560   6.406  20.671  0.00  0.00    +0.000 A 
ATOM      7  C   UNL     1       2.026   7.070  19.396  0.00  0.00    +0.000 A 
ATOM      8  N   UNL     1       1.478   8.301  19.020  0.00  0.00    +0.000 N 
ATOM      9  C   UNL     1       0.392   8.928  19.792  0.00  0.00    +0.000 C 
ATOM     10  C   UNL     1      -0.262  10.127  19.109  0.00  0.00    +0.000 C 
ATOM     11  C   UNL     1       0.805  11.108  18.730  0.00  0.00    +0.000 A 
ATOM     12  C   UNL     1       0.654  12.482  18.928  0.00  0.00    +0.000 A 
ATOM     13  C   UNL     1       1.685  13.348  18.570  0.00  0.00    +0.000 A 
ATOM     14  C   UNL     1       2.854  12.843  18.001  0.00  0.00    +0.000 A 
ATOM     15  C   UNL     1       2.999  11.469  17.790  0.00  0.00    +0.000 A 
ATOM     16  C   UNL     1       1.980  10.587  18.166  0.00  0.00    +0.000 A 
ATOM     17  C   UNL     1       2.087   9.090  17.931  0.00  0.00    +0.000 C 
ATOM     18  N   UNL     1       2.944   6.517  18.638  0.00  0.00    +0.000 NA
ATOM     19  N   UNL     1       3.436   5.313  19.091  0.00  0.00    +0.000 N 
ENDROOT
BRANCH   1  24
ATOM     20  F   UNL     1       7.226   5.403  13.756  0.00  0.00    +0.000 F 
ATOM     21  C   UNL     1       6.553   5.198  14.895  0.00  0.00    +0.000 A 
ATOM     22  C   UNL     1       5.472   4.326  14.907  0.00  0.00    +0.000 A 
ATOM     23  C   UNL     1       4.777   4.113  16.099  0.00  0.00    +0.000 A 
ATOM     24  C   UNL     1       5.152   4.777  17.282  0.00  0.00    +0.000 A 
ATOM     25  C   UNL     1       6.256   5.641  17.246  0.00  0.00    +0.000 A 
ATOM     26  C   UNL     1       6.953   5.853  16.054  0.00  0.00    +0.000 A 
ENDBRANCH   1  24
TORSDOF 1
ENDMDL
MODEL 2
REMARK VINA RESULT:      -7.3      1.414      2.093
REMARK  Name = 
REMARK  1 active torsions:
REMARK  status: ('A' for Active; 'I' for Inactive)
REMARK    1  A    between atoms: C_5  and  C_6
REMARK                            x       y       z     vdW  Elec       q    Type
REMARK                         _______ _______ _______ _____ _____    ______ ____
ROOT
ATOM      1  C   UNL     1       2.910   5.908  19.157  0.00  0.00    +0.000 A 
ATOM      2  N   UNL     1       2.734   4.880  19.972  0.00  0.00    +0.000 NA
ATOM      3  N   UNL     1       1.915   5.266  21.001  0.00  0.00    +0.000 NA
ATOM      4  C   UNL     1       1.583   6.518  20.788  0.00  0.00    +0.000 A 
ATOM      5  C   UNL     1       0.775   7.406  21.508  0.00  0.00    +0.000 A 
ATOM      6  C   UNL     1       0.593   8.641  21.035  0.00  0.00    +0.000 A 
ATOM      7  C   UNL     1       1.258   9.061  19.744  0.00  0.00    +0.000 A 
ATOM      8  N   UNL     1       1.064  10.359  19.260  0.00  0.00    +0.000 N 
ATOM      9  C   UNL     1       0.157  11.304  19.932  0.00  0.00    +0.000 C 
ATOM     10  C   UNL     1      -0.138  12.575  19.140  0.00  0.00    +0.000 C 
ATOM     11  C   UNL     1       1.161  13.214  18.752  0.00  0.00    +0.000 A 
ATOM     12  C   UNL     1       1.370  14.591  18.850  0.00  0.00    +0.000 A 
ATOM     13  C   UNL     1       2.603  15.130  18.489  0.00  0.00    +0.000 A 
ATOM     14  C   UNL     1       3.616  14.297  18.014  0.00  0.00    +0.000 A 
ATOM     15  C   UNL     1       3.402  12.919  17.902  0.00  0.00    +0.000 A 
ATOM     16  C   UNL     1       2.176  12.364  18.284  0.00  0.00    +0.000 A 
ATOM     17  C   UNL     1       1.894  10.877  18.153  0.00  0.00    +0.000 C 
ATOM     18  N   UNL     1       2.022   8.232  19.072  0.00  0.00    +0.000 NA
ATOM     19  N   UNL     1       2.167   6.981  19.628  0.00  0.00    +0.000 N 
ENDROOT
BRANCH   1  24
ATOM     20  F   UNL     1       6.132   5.671  14.578  0.00  0.00    +0.000 F 
ATOM     21  C   UNL     1       5.357   5.735  15.669  0.00  0.00    +0.000 A 
ATOM     22  C   UNL     1       4.861   4.566  16.229  0.00  0.00    +0.000 A 
ATOM     23  C   UNL     1       4.058   4.639  17.368  0.00  0.00    +0.000 A 
ATOM     24  C   UNL     1       3.738   5.880  17.948  0.00  0.00    +0.000 A 
ATOM     25  C   UNL     1       4.265   7.046  17.372  0.00  0.00    +0.000 A 
ATOM     26  C   UNL     1       5.070   6.973  16.232  0.00  0.00    +0.000 A 
ENDBRANCH   1  24
TORSDOF 1
ENDMDL
MODEL 3
REMARK VINA RESULT:      -7.0      3.949      6.099
REMARK  Name = 
REMARK  1 active torsions:
REMARK  status: ('A' for Active; 'I' for Inactive)
REMARK    1  A    between atoms: C_5  and  C_6
REMARK                            x       y       z     vdW  Elec       q    Type
REMARK                         _______ _______ _______ _____ _____    ______ ____
ROOT
ATOM      1  C   UNL     1       0.366   9.278  21.461  0.00  0.00    +0.000 A 
ATOM      2  N   UNL     1      -0.114   8.711  22.558  0.00  0.00    +0.000 NA
ATOM      3  N   UNL     1      -0.742   9.669  23.311  0.00  0.00    +0.000 NA
ATOM      4  C   UNL     1      -0.658  10.802  22.654  0.00  0.00    +0.000 A 
ATOM      5  C   UNL     1      -1.121  12.090  22.949  0.00  0.00    +0.000 A 
ATOM      6  C   UNL     1      -0.905  13.070  22.068  0.00  0.00    +0.000 A 
ATOM      7  C   UNL     1      -0.169  12.781  20.780  0.00  0.00    +0.000 A 
ATOM      8  N   UNL     1       0.056  13.815  19.867  0.00  0.00    +0.000 N 
ATOM      9  C   UNL     1      -0.483  15.168  20.088  0.00  0.00    +0.000 C 
ATOM     10  C   UNL     1      -0.370  16.102  18.886  0.00  0.00    +0.000 C 
ATOM     11  C   UNL     1       1.056  16.128  18.428  0.00  0.00    +0.000 A 
ATOM     12  C   UNL     1       1.700  17.314  18.070  0.00  0.00    +0.000 A 
ATOM     13  C   UNL     1       3.032  17.282  17.665  0.00  0.00    +0.000 A 
ATOM     14  C   UNL     1       3.712  16.065  17.601  0.00  0.00    +0.000 A 
ATOM     15  C   UNL     1       3.064  14.875  17.945  0.00  0.00    +0.000 A 
ATOM     16  C   UNL     1       1.732  14.898  18.375  0.00  0.00    +0.000 A 
ATOM     17  C   UNL     1       0.984  13.626  18.733  0.00  0.00    +0.000 C 
ATOM     18  N   UNL     1       0.273  11.574  20.506  0.00  0.00    +0.000 NA
ATOM     19  N   UNL     1       0.018  10.621  21.466  0.00  0.00    +0.000 N 
ENDROOT
BRANCH   1  24
ATOM     20  F   UNL     1       3.315   6.516  17.578  0.00  0.00    +0.000 F 
ATOM     21  C   UNL     1       2.603   7.179  18.500  0.00  0.00    +0.000 A 
ATOM     22  C   UNL     1       2.426   6.624  19.760  0.00  0.00    +0.000 A 
ATOM     23  C   UNL     1       1.687   7.321  20.718  0.00  0.00    +0.000 A 
ATOM     24  C   UNL     1       1.114   8.571  20.418  0.00  0.00    +0.000 A 
ATOM     25  C   UNL     1       1.321   9.116  19.142  0.00  0.00    +0.000 A 
ATOM     26  C   UNL     1       2.062   8.419  18.184  0.00  0.00    +0.000 A 
ENDBRANCH   1  24
TORSDOF 1
ENDMDL
MODEL 4
REMARK VINA RESULT:      -6.9      3.373      5.453
REMARK  Name = 
REMARK  1 active torsions:
REMARK  status: ('A' for Active; 'I' for Inactive)
REMARK    1  A    between atoms: C_5  and  C_6
REMARK                            x       y       z     vdW  Elec       q    Type
REMARK                         _______ _______ _______ _____ _____    ______ ____
ROOT
ATOM      1  C   UNL     1       0.767   8.700  20.920  0.00  0.00    +0.000 A 
ATOM      2  N   UNL     1       0.123   8.080  21.896  0.00  0.00    +0.000 NA
ATOM      3  N   UNL     1      -0.540   9.012  22.651  0.00  0.00    +0.000 NA
ATOM      4  C   UNL     1      -0.312  10.186  22.112  0.00  0.00    +0.000 A 
ATOM      5  C   UNL     1      -0.735  11.474  22.464  0.00  0.00    +0.000 A 
ATOM      6  C   UNL     1      -0.357  12.506  21.706  0.00  0.00    +0.000 A 
ATOM      7  C   UNL     1       0.518  12.275  20.496  0.00  0.00    +0.000 A 
ATOM      8  N   UNL     1       0.913  13.364  19.712  0.00  0.00    +0.000 N 
ATOM      9  C   UNL     1       0.426  14.727  19.986  0.00  0.00    +0.000 C 
ATOM     10  C   UNL     1       0.740  15.746  18.895  0.00  0.00    +0.000 C 
ATOM     11  C   UNL     1       2.212  15.715  18.616  0.00  0.00    +0.000 A 
ATOM     12  C   UNL     1       2.961  16.881  18.446  0.00  0.00    +0.000 A 
ATOM     13  C   UNL     1       4.330  16.794  18.203  0.00  0.00    +0.000 A 
ATOM     14  C   UNL     1       4.944  15.545  18.112  0.00  0.00    +0.000 A 
ATOM     15  C   UNL     1       4.192  14.376  18.268  0.00  0.00    +0.000 A 
ATOM     16  C   UNL     1       2.820  14.452  18.535  0.00  0.00    +0.000 A 
ATOM     17  C   UNL     1       1.963  13.207  18.686  0.00  0.00    +0.000 C 
ATOM     18  N   UNL     1       0.923  11.069  20.170  0.00  0.00    +0.000 NA
ATOM     19  N   UNL     1       0.497  10.059  21.004  0.00  0.00    +0.000 N 
ENDROOT
BRANCH   1  24
ATOM     20  F   UNL     1       4.029   6.085  17.189  0.00  0.00    +0.000 F 
ATOM     21  C   UNL     1       3.243   6.713  18.074  0.00  0.00    +0.000 A 
ATOM     22  C   UNL     1       2.952   6.104  19.287  0.00  0.00    +0.000 A 
ATOM     23  C   UNL     1       2.136   6.765  20.207  0.00  0.00    +0.000 A 
ATOM     24  C   UNL     1       1.600   8.034  19.916  0.00  0.00    +0.000 A 
ATOM     25  C   UNL     1       1.922   8.633  18.690  0.00  0.00    +0.000 A 
ATOM     26  C   UNL     1       2.740   7.972  17.769  0.00  0.00    +0.000 A 
ENDBRANCH   1  24
TORSDOF 1
ENDMDL
MODEL 5
REMARK VINA RESULT:      -6.9      3.675      5.747
REMARK  Name = 
REMARK  1 active torsions:
REMARK  status: ('A' for Active; 'I' for Inactive)
REMARK    1  A    between atoms: C_5  and  C_6
REMARK                            x       y       z     vdW  Elec       q    Type
REMARK                         _______ _______ _______ _____ _____    ______ ____
ROOT
ATOM      1  C   UNL     1       0.557   8.916  21.260  0.00  0.00    +0.000 A 
ATOM      2  N   UNL     1      -0.077   8.353  22.277  0.00  0.00    +0.000 NA
ATOM      3  N   UNL     1      -0.719   9.330  22.993  0.00  0.00    +0.000 NA
ATOM      4  C   UNL     1      -0.488  10.473  22.390  0.00  0.00    +0.000 A 
ATOM      5  C   UNL     1      -0.894  11.781  22.681  0.00  0.00    +0.000 A 
ATOM      6  C   UNL     1      -0.518  12.769  21.865  0.00  0.00    +0.000 A 
ATOM      7  C   UNL     1       0.334  12.466  20.654  0.00  0.00    +0.000 A 
ATOM      8  N   UNL     1       0.726  13.509  19.809  0.00  0.00    +0.000 N 
ATOM      9  C   UNL     1       0.257  14.889  20.020  0.00  0.00    +0.000 C 
ATOM     10  C   UNL     1       0.563  15.848  18.872  0.00  0.00    +0.000 C 
ATOM     11  C   UNL     1       2.029  15.787  18.571  0.00  0.00    +0.000 A 
ATOM     12  C   UNL     1       2.786  16.935  18.328  0.00  0.00    +0.000 A 
ATOM     13  C   UNL     1       4.150  16.821  18.068  0.00  0.00    +0.000 A 
ATOM     14  C   UNL     1       4.750  15.562  18.032  0.00  0.00    +0.000 A 
ATOM     15  C   UNL     1       3.990  14.411  18.261  0.00  0.00    +0.000 A 
ATOM     16  C   UNL     1       2.624  14.515  18.547  0.00  0.00    +0.000 A 
ATOM     17  C   UNL     1       1.758  13.289  18.775  0.00  0.00    +0.000 C 
ATOM     18  N   UNL     1       0.722  11.241  20.385  0.00  0.00    +0.000 NA
ATOM     19  N   UNL     1       0.301  10.280  21.277  0.00  0.00    +0.000 N 
ENDROOT
BRANCH   1  24
ATOM     20  F   UNL     1       3.573   6.202  17.396  0.00  0.00    +0.000 F 
ATOM     21  C   UNL     1       2.858   6.848  18.326  0.00  0.00    +0.000 A 
ATOM     22  C   UNL     1       2.350   8.109  18.048  0.00  0.00    +0.000 A 
ATOM     23  C   UNL     1       1.602   8.776  19.021  0.00  0.00    +0.000 A 
ATOM     24  C   UNL     1       1.366   8.190  20.278  0.00  0.00    +0.000 A 
ATOM     25  C   UNL     1       1.878   6.908  20.527  0.00  0.00    +0.000 A 
ATOM     26  C   UNL     1       2.626   6.240  19.554  0.00  0.00    +0.000 A 
ENDBRANCH   1  24
TORSDOF 1
ENDMDL
MODEL 6
REMARK VINA RESULT:      -6.8      7.496     10.605
REMARK  Name = 
REMARK  1 active torsions:
REMARK  status: ('A' for Active; 'I' for Inactive)
REMARK    1  A    between atoms: C_5  and  C_6
REMARK                            x       y       z     vdW  Elec       q    Type
REMARK                         _______ _______ _______ _____ _____    ______ ____
ROOT
ATOM      1  C   UNL     1      -1.409  12.636  22.911  0.00  0.00    +0.000 A 
ATOM      2  N   UNL     1      -1.456  11.354  23.240  0.00  0.00    +0.000 NA
ATOM      3  N   UNL     1      -0.600  10.658  22.427  0.00  0.00    +0.000 NA
ATOM      4  C   UNL     1      -0.024  11.526  21.629  0.00  0.00    +0.000 A 
ATOM      5  C   UNL     1       0.926  11.373  20.611  0.00  0.00    +0.000 A 
ATOM      6  C   UNL     1       1.356  12.458  19.964  0.00  0.00    +0.000 A 
ATOM      7  C   UNL     1       0.816  13.821  20.330  0.00  0.00    +0.000 A 
ATOM      8  N   UNL     1       1.271  14.951  19.641  0.00  0.00    +0.000 N 
ATOM      9  C   UNL     1       2.331  14.857  18.623  0.00  0.00    +0.000 C 
ATOM     10  C   UNL     1       2.887  16.200  18.158  0.00  0.00    +0.000 C 
ATOM     11  C   UNL     1       1.747  17.066  17.713  0.00  0.00    +0.000 A 
ATOM     12  C   UNL     1       1.810  17.836  16.550  0.00  0.00    +0.000 A 
ATOM     13  C   UNL     1       0.715  18.612  16.176  0.00  0.00    +0.000 A 
ATOM     14  C   UNL     1      -0.431  18.631  16.972  0.00  0.00    +0.000 A 
ATOM     15  C   UNL     1      -0.489  17.871  18.143  0.00  0.00    +0.000 A 
ATOM     16  C   UNL     1       0.596  17.070  18.517  0.00  0.00    +0.000 A 
ATOM     17  C   UNL     1       0.584  16.249  19.795  0.00  0.00    +0.000 C 
ATOM     18  N   UNL     1      -0.081  13.965  21.278  0.00  0.00    +0.000 NA
ATOM     19  N   UNL     1      -0.480  12.800  21.893  0.00  0.00    +0.000 N 
ENDROOT
BRANCH   1  24
ATOM     20  F   UNL     1      -4.542  16.637  25.272  0.00  0.00    +0.000 F 
ATOM     21  C   UNL     1      -3.787  15.682  24.714  0.00  0.00    +0.000 A 
ATOM     22  C   UNL     1      -4.391  14.547  24.191  0.00  0.00    +0.000 A 
ATOM     23  C   UNL     1      -3.598  13.556  23.607  0.00  0.00    +0.000 A 
ATOM     24  C   UNL     1      -2.199  13.690  23.553  0.00  0.00    +0.000 A 
ATOM     25  C   UNL     1      -1.615  14.853  24.076  0.00  0.00    +0.000 A 
ATOM     26  C   UNL     1      -2.408  15.846  24.659  0.00  0.00    +0.000 A 
ENDBRANCH   1  24
TORSDOF 1
ENDMDL
MODEL 7
REMARK VINA RESULT:      -6.8      7.587     11.452
REMARK  Name = 
REMARK  1 active torsions:
REMARK  status: ('A' for Active; 'I' for Inactive)
REMARK    1  A    between atoms: C_5  and  C_6
REMARK                            x       y       z     vdW  Elec       q    Type
REMARK                         _______ _______ _______ _____ _____    ______ ____
ROOT
ATOM      1  C   UNL     1      -6.622  12.385  19.600  0.00  0.00    +0.000 A 
ATOM      2  N   UNL     1      -7.537  12.222  18.656  0.00  0.00    +0.000 NA
ATOM      3  N   UNL     1      -6.909  11.882  17.487  0.00  0.00    +0.000 NA
ATOM      4  C   UNL     1      -5.622  11.820  17.736  0.00  0.00    +0.000 A 
ATOM      5  C   UNL     1      -4.525  11.519  16.920  0.00  0.00    +0.000 A 
ATOM      6  C   UNL     1      -3.304  11.510  17.459  0.00  0.00    +0.000 A 
ATOM      7  C   UNL     1      -3.122  11.825  18.926  0.00  0.00    +0.000 A 
ATOM      8  N   UNL     1      -1.838  11.818  19.479  0.00  0.00    +0.000 N 
ATOM      9  C   UNL     1      -0.660  11.425  18.686  0.00  0.00    +0.000 C 
ATOM     10  C   UNL     1       0.615  11.222  19.500  0.00  0.00    +0.000 C 
ATOM     11  C   UNL     1       0.866  12.453  20.317  0.00  0.00    +0.000 A 
ATOM     12  C   UNL     1       2.139  13.015  20.441  0.00  0.00    +0.000 A 
ATOM     13  C   UNL     1       2.313  14.168  21.202  0.00  0.00    +0.000 A 
ATOM     14  C   UNL     1       1.222  14.747  21.851  0.00  0.00    +0.000 A 
ATOM     15  C   UNL     1      -0.050  14.177  21.738  0.00  0.00    +0.000 A 
ATOM     16  C   UNL     1      -0.241  13.031  20.957  0.00  0.00    +0.000 A 
ATOM     17  C   UNL     1      -1.600  12.366  20.830  0.00  0.00    +0.000 C 
ATOM     18  N   UNL     1      -4.149  12.116  19.691  0.00  0.00    +0.000 NA
ATOM     19  N   UNL     1      -5.373  12.112  19.060  0.00  0.00    +0.000 N 
ENDROOT
BRANCH   1  24
ATOM     20  F   UNL     1      -7.856  13.756  24.891  0.00  0.00    +0.000 F 
ATOM     21  C   UNL     1      -7.553  13.432  23.627  0.00  0.00    +0.000 A 
ATOM     22  C   UNL     1      -7.896  12.179  23.138  0.00  0.00    +0.000 A 
ATOM     23  C   UNL     1      -7.580  11.849  21.818  0.00  0.00    +0.000 A 
ATOM     24  C   UNL     1      -6.913  12.766  20.985  0.00  0.00    +0.000 A 
ATOM     25  C   UNL     1      -6.592  14.030  21.499  0.00  0.00    +0.000 A 
ATOM     26  C   UNL     1      -6.908  14.362  22.820  0.00  0.00    +0.000 A 
ENDBRANCH   1  24
TORSDOF 1
ENDMDL
MODEL 8
REMARK VINA RESULT:      -6.7      6.948      8.978
REMARK  Name = 
REMARK  1 active torsions:
REMARK  status: ('A' for Active; 'I' for Inactive)
REMARK    1  A    between atoms: C_5  and  C_6
REMARK                            x       y       z     vdW  Elec       q    Type
REMARK                         _______ _______ _______ _____ _____    ______ ____
ROOT
ATOM      1  C   UNL     1       9.461  14.344  18.748  0.00  0.00    +0.000 A 
ATOM      2  N   UNL     1      10.554  15.012  18.411  0.00  0.00    +0.000 NA
ATOM      3  N   UNL     1      10.251  16.346  18.338  0.00  0.00    +0.000 NA
ATOM      4  C   UNL     1       8.984  16.479  18.653  0.00  0.00    +0.000 A 
ATOM      5  C   UNL     1       8.156  17.604  18.742  0.00  0.00    +0.000 A 
ATOM      6  C   UNL     1       6.884  17.440  19.113  0.00  0.00    +0.000 A 
ATOM      7  C   UNL     1       6.360  16.058  19.426  0.00  0.00    +0.000 A 
ATOM      8  N   UNL     1       5.024  15.897  19.810  0.00  0.00    +0.000 N 
ATOM      9  C   UNL     1       4.134  17.055  20.002  0.00  0.00    +0.000 C 
ATOM     10  C   UNL     1       2.799  16.727  20.665  0.00  0.00    +0.000 C 
ATOM     11  C   UNL     1       2.138  15.624  19.897  0.00  0.00    +0.000 A 
ATOM     12  C   UNL     1       0.775  15.644  19.592  0.00  0.00    +0.000 A 
ATOM     13  C   UNL     1       0.215  14.598  18.862  0.00  0.00    +0.000 A 
ATOM     14  C   UNL     1       1.010  13.527  18.455  0.00  0.00    +0.000 A 
ATOM     15  C   UNL     1       2.372  13.499  18.772  0.00  0.00    +0.000 A 
ATOM     16  C   UNL     1       2.950  14.556  19.485  0.00  0.00    +0.000 A 
ATOM     17  C   UNL     1       4.419  14.552  19.872  0.00  0.00    +0.000 C 
ATOM     18  N   UNL     1       7.134  15.000  19.335  0.00  0.00    +0.000 NA
ATOM     19  N   UNL     1       8.428  15.250  18.939  0.00  0.00    +0.000 N 
ENDROOT
BRANCH   1  24
ATOM     20  F   UNL     1       9.081   8.778  19.269  0.00  0.00    +0.000 F 
ATOM     21  C   UNL     1       9.180  10.108  19.150  0.00  0.00    +0.000 A 
ATOM     22  C   UNL     1       8.885  10.712  17.935  0.00  0.00    +0.000 A 
ATOM     23  C   UNL     1       8.986  12.100  17.817  0.00  0.00    +0.000 A 
ATOM     24  C   UNL     1       9.391  12.889  18.910  0.00  0.00    +0.000 A 
ATOM     25  C   UNL     1       9.668  12.256  20.130  0.00  0.00    +0.000 A 
ATOM     26  C   UNL     1       9.566  10.867  20.248  0.00  0.00    +0.000 A 
ENDBRANCH   1  24
TORSDOF 1
ENDMDL
MODEL 9
REMARK VINA RESULT:      -6.7      7.201     10.692
REMARK  Name = 
REMARK  1 active torsions:
REMARK  status: ('A' for Active; 'I' for Inactive)
REMARK    1  A    between atoms: C_5  and  C_6
REMARK                            x       y       z     vdW  Elec       q    Type
REMARK                         _______ _______ _______ _____ _____    ______ ____
ROOT
ATOM      1  C   UNL     1       3.723  15.942  19.843  0.00  0.00    +0.000 A 
ATOM      2  N   UNL     1       3.155  17.006  20.389  0.00  0.00    +0.000 NA
ATOM      3  N   UNL     1       4.109  17.973  20.570  0.00  0.00    +0.000 NA
ATOM      4  C   UNL     1       5.242  17.496  20.111  0.00  0.00    +0.000 A 
ATOM      5  C   UNL     1       6.528  18.046  20.041  0.00  0.00    +0.000 A 
ATOM      6  C   UNL     1       7.509  17.325  19.492  0.00  0.00    +0.000 A 
ATOM      7  C   UNL     1       7.223  15.938  18.964  0.00  0.00    +0.000 A 
ATOM      8  N   UNL     1       8.258  15.190  18.395  0.00  0.00    +0.000 N 
ATOM      9  C   UNL     1       9.608  15.753  18.219  0.00  0.00    +0.000 C 
ATOM     10  C   UNL     1      10.542  14.907  17.357  0.00  0.00    +0.000 C 
ATOM     11  C   UNL     1      10.575  13.514  17.906  0.00  0.00    +0.000 A 
ATOM     12  C   UNL     1      11.765  12.793  18.033  0.00  0.00    +0.000 A 
ATOM     13  C   UNL     1      11.740  11.506  18.564  0.00  0.00    +0.000 A 
ATOM     14  C   UNL     1      10.527  10.934  18.950  0.00  0.00    +0.000 A 
ATOM     15  C   UNL     1       9.334  11.649  18.810  0.00  0.00    +0.000 A 
ATOM     16  C   UNL     1       9.350  12.952  18.299  0.00  0.00    +0.000 A 
ATOM     17  C   UNL     1       8.074  13.753  18.107  0.00  0.00    +0.000 C 
ATOM     18  N   UNL     1       6.019  15.418  19.036  0.00  0.00    +0.000 NA
ATOM     19  N   UNL     1       5.065  16.220  19.621  0.00  0.00    +0.000 N 
ENDROOT
BRANCH   1  24
ATOM     20  F   UNL     1       1.077  11.134  18.712  0.00  0.00    +0.000 F 
ATOM     21  C   UNL     1       1.706  12.288  18.975  0.00  0.00    +0.000 A 
ATOM     22  C   UNL     1       1.796  12.737  20.285  0.00  0.00    +0.000 A 
ATOM     23  C   UNL     1       2.456  13.938  20.553  0.00  0.00    +0.000 A 
ATOM     24  C   UNL     1       3.020  14.700  19.513  0.00  0.00    +0.000 A 
ATOM     25  C   UNL     1       2.927  14.215  18.200  0.00  0.00    +0.000 A 
ATOM     26  C   UNL     1       2.268  13.013  17.931  0.00  0.00    +0.000 A 
ENDBRANCH   1  24
TORSDOF 1
ENDMDL
