MODEL 1
REMARK VINA RESULT:      -8.3      0.000      0.000
REMARK  Name = 
REMARK  11 active torsions:
REMARK  status: ('A' for Active; 'I' for Inactive)
REMARK    1  A    between atoms: C_1  and  C_2
REMARK    2  A    between atoms: C_4  and  N_5
REMARK    3  A    between atoms: N_5  and  C_6
REMARK    4  A    between atoms: C_6  and  N_8
REMARK    5  A    between atoms: N_8  and  C_9
REMARK    6  A    between atoms: N_8  and  C_17
REMARK    7  A    between atoms: C_9  and  C_10
REMARK    8  A    between atoms: C_15  and  C_16
REMARK    9  A    between atoms: C_17  and  C_18
REMARK   10  A    between atoms: C_21  and  C_22
REMARK   11  A    between atoms: C_22  and  O_24
REMARK                            x       y       z     vdW  Elec       q    Type
REMARK                         _______ _______ _______ _____ _____    ______ ____
ROOT
ATOM      1  N   UNL     1       3.123   6.540  18.440  0.00  0.00    +0.000 N 
ENDROOT
BRANCH   1   2
ATOM      2  C   UNL     1       2.435   7.775  18.775  0.00  0.00    +0.000 C 
ATOM      3  S   UNL     1       1.995   8.959  17.658  0.00  0.00    +0.000 S 
BRANCH   2   4
ATOM      4  N   UNL     1       2.139   7.842  20.136  0.00  0.00    +0.000 N 
ATOM      5  H   UNL     1       2.553   7.079  20.657  0.00  0.00    +0.000 HD
BRANCH   4   9
ATOM      6  C   UNL     1       0.495  12.385  20.991  0.00  0.00    +0.000 C 
ATOM      7  C   UNL     1       0.404  10.917  21.301  0.00  0.00    +0.000 A 
ATOM      8  C   UNL     1       1.268  10.019  20.643  0.00  0.00    +0.000 A 
ATOM      9  C   UNL     1       1.220   8.637  20.878  0.00  0.00    +0.000 A 
ATOM     10  C   UNL     1       0.255   8.161  21.770  0.00  0.00    +0.000 A 
ATOM     11  C   UNL     1      -0.593   9.042  22.454  0.00  0.00    +0.000 A 
ATOM     12  C   UNL     1      -0.520  10.414  22.223  0.00  0.00    +0.000 A 
ATOM     13 CL   UNL     1      -1.605  11.446  23.082  0.00  0.00    +0.000 Cl
ENDBRANCH   4   9
ENDBRANCH   2   4
ENDBRANCH   1   2
BRANCH   1  14
ATOM     14  C   UNL     1       2.265   5.347  18.109  0.00  0.00    +0.000 C 
BRANCH  14  15
ATOM     15  C   UNL     1       2.136   4.224  19.133  0.00  0.00    +0.000 A 
ATOM     16  C   UNL     1       1.761   4.529  20.451  0.00  0.00    +0.000 A 
ATOM     17  C   UNL     1       1.466   3.546  21.399  0.00  0.00    +0.000 A 
ATOM     18  C   UNL     1       1.505   2.210  21.043  0.00  0.00    +0.000 A 
ATOM     19  C   UNL     1       1.856   1.865  19.744  0.00  0.00    +0.000 A 
ATOM     20  C   UNL     1       2.189   2.849  18.784  0.00  0.00    +0.000 A 
ATOM     21  C   UNL     1       2.501   2.361  17.392  0.00  0.00    +0.000 C 
ENDBRANCH  14  15
ENDBRANCH   1  14
BRANCH   1  22
ATOM     22  C   UNL     1       4.414   6.240  19.137  0.00  0.00    +0.000 C 
BRANCH  22  23
ATOM     23  C   UNL     1       5.722   5.984  18.343  0.00  0.00    +0.000 C 
ATOM     24  C   UNL     1       6.108   4.551  17.953  0.00  0.00    +0.000 C 
ATOM     25  C   UNL     1       5.405   3.948  16.744  0.00  0.00    +0.000 C 
ATOM     26  C   UNL     1       5.332   4.849  15.517  0.00  0.00    +0.000 C 
ATOM     27  C   UNL     1       5.068   6.326  15.838  0.00  0.00    +0.000 C 
ATOM     28  C   UNL     1       5.737   6.894  17.091  0.00  0.00    +0.000 C 
BRANCH  26  29
ATOM     29  C   UNL     1       6.555   4.654  14.626  0.00  0.00    +0.000 C 
ATOM     30  O   UNL     1       7.523   5.398  14.636  0.00  0.00    +0.000 OA
BRANCH  29  31
ATOM     31  O   UNL     1       6.473   3.584  13.812  0.00  0.00    +0.000 OA
ATOM     32  H   UNL     1       7.121   3.585  13.081  0.00  0.00    +0.000 HD
ENDBRANCH  29  31
ENDBRANCH  26  29
ENDBRANCH  22  23
ENDBRANCH   1  22
TORSDOF 9
ENDMDL
MODEL 2
REMARK VINA RESULT:      -8.1      0.804      1.619
REMARK  Name = 
REMARK  11 active torsions:
REMARK  status: ('A' for Active; 'I' for Inactive)
REMARK    1  A    between atoms: C_1  and  C_2
REMARK    2  A    between atoms: C_4  and  N_5
REMARK    3  A    between atoms: N_5  and  C_6
REMARK    4  A    between atoms: C_6  and  N_8
REMARK    5  A    between atoms: N_8  and  C_9
REMARK    6  A    between atoms: N_8  and  C_17
REMARK    7  A    between atoms: C_9  and  C_10
REMARK    8  A    between atoms: C_15  and  C_16
REMARK    9  A    between atoms: C_17  and  C_18
REMARK   10  A    between atoms: C_21  and  C_22
REMARK   11  A    between atoms: C_22  and  O_24
REMARK                            x       y       z     vdW  Elec       q    Type
REMARK                         _______ _______ _______ _____ _____    ______ ____
ROOT
ATOM      1  N   UNL     1       2.835   6.559  18.220  0.00  0.00    +0.000 N 
ENDROOT
BRANCH   1   2
ATOM      2  C   UNL     1       2.397   7.860  18.695  0.00  0.00    +0.000 C 
ATOM      3  S   UNL     1       2.294   9.243  17.736  0.00  0.00    +0.000 S 
BRANCH   2   4
ATOM      4  N   UNL     1       2.026   7.816  20.038  0.00  0.00    +0.000 N 
ATOM      5  H   UNL     1       2.266   6.934  20.474  0.00  0.00    +0.000 HD
BRANCH   4   9
ATOM      6  C   UNL     1      -1.306  11.417  19.999  0.00  0.00    +0.000 C 
ATOM      7  C   UNL     1      -0.457  10.474  20.805  0.00  0.00    +0.000 A 
ATOM      8  C   UNL     1       0.407   9.583  20.139  0.00  0.00    +0.000 A 
ATOM      9  C   UNL     1       1.211   8.669  20.835  0.00  0.00    +0.000 A 
ATOM     10  C   UNL     1       1.108   8.641  22.228  0.00  0.00    +0.000 A 
ATOM     11  C   UNL     1       0.276   9.539  22.909  0.00  0.00    +0.000 A 
ATOM     12  C   UNL     1      -0.503  10.454  22.203  0.00  0.00    +0.000 A 
ATOM     13 CL   UNL     1      -1.523  11.521  23.098  0.00  0.00    +0.000 Cl
ENDBRANCH   4   9
ENDBRANCH   2   4
ENDBRANCH   1   2
BRANCH   1  14
ATOM     14  C   UNL     1       1.761   5.579  17.825  0.00  0.00    +0.000 C 
BRANCH  14  15
ATOM     15  C   UNL     1       1.928   4.110  18.200  0.00  0.00    +0.000 A 
ATOM     16  C   UNL     1       2.583   3.240  17.314  0.00  0.00    +0.000 A 
ATOM     17  C   UNL     1       2.917   1.927  17.654  0.00  0.00    +0.000 A 
ATOM     18  C   UNL     1       2.632   1.447  18.919  0.00  0.00    +0.000 A 
ATOM     19  C   UNL     1       1.998   2.281  19.833  0.00  0.00    +0.000 A 
ATOM     20  C   UNL     1       1.626   3.602  19.490  0.00  0.00    +0.000 A 
ATOM     21  C   UNL     1       0.993   4.432  20.578  0.00  0.00    +0.000 C 
ENDBRANCH  14  15
ENDBRANCH   1  14
BRANCH   1  22
ATOM     22  C   UNL     1       4.068   5.964  18.827  0.00  0.00    +0.000 C 
BRANCH  22  23
ATOM     23  C   UNL     1       5.438   6.025  18.101  0.00  0.00    +0.000 C 
ATOM     24  C   UNL     1       6.188   4.726  17.780  0.00  0.00    +0.000 C 
ATOM     25  C   UNL     1       5.721   3.938  16.564  0.00  0.00    +0.000 C 
ATOM     26  C   UNL     1       5.490   4.762  15.303  0.00  0.00    +0.000 C 
ATOM     27  C   UNL     1       4.849   6.133  15.559  0.00  0.00    +0.000 C 
ATOM     28  C   UNL     1       5.290   6.880  16.819  0.00  0.00    +0.000 C 
BRANCH  26  29
ATOM     29  C   UNL     1       6.767   4.859  14.474  0.00  0.00    +0.000 C 
ATOM     30  O   UNL     1       6.893   4.357  13.368  0.00  0.00    +0.000 OA
BRANCH  29  31
ATOM     31  O   UNL     1       7.758   5.545  15.075  0.00  0.00    +0.000 OA
ATOM     32  H   UNL     1       7.841   6.472  14.778  0.00  0.00    +0.000 HD
ENDBRANCH  29  31
ENDBRANCH  26  29
ENDBRANCH  22  23
ENDBRANCH   1  22
TORSDOF 9
ENDMDL
MODEL 3
REMARK VINA RESULT:      -8.0      3.197      5.270
REMARK  Name = 
REMARK  11 active torsions:
REMARK  status: ('A' for Active; 'I' for Inactive)
REMARK    1  A    between atoms: C_1  and  C_2
REMARK    2  A    between atoms: C_4  and  N_5
REMARK    3  A    between atoms: N_5  and  C_6
REMARK    4  A    between atoms: C_6  and  N_8
REMARK    5  A    between atoms: N_8  and  C_9
REMARK    6  A    between atoms: N_8  and  C_17
REMARK    7  A    between atoms: C_9  and  C_10
REMARK    8  A    between atoms: C_15  and  C_16
REMARK    9  A    between atoms: C_17  and  C_18
REMARK   10  A    between atoms: C_21  and  C_22
REMARK   11  A    between atoms: C_22  and  O_24
REMARK                            x       y       z     vdW  Elec       q    Type
REMARK                         _______ _______ _______ _____ _____    ______ ____
ROOT
ATOM      1  N   UNL     1       3.053   6.689  18.021  0.00  0.00    +0.000 N 
ENDROOT
BRANCH   1   2
ATOM      2  C   UNL     1       2.318   7.738  18.707  0.00  0.00    +0.000 C 
ATOM      3  S   UNL     1       1.855   7.679  20.328  0.00  0.00    +0.000 S 
BRANCH   2   4
ATOM      4  N   UNL     1       2.081   8.828  17.870  0.00  0.00    +0.000 N 
ATOM      5  H   UNL     1       2.508   8.712  16.959  0.00  0.00    +0.000 HD
BRANCH   4   9
ATOM      6  C   UNL     1      -1.967  11.415  18.866  0.00  0.00    +0.000 C 
ATOM      7  C   UNL     1      -0.485  11.413  18.612  0.00  0.00    +0.000 A 
ATOM      8  C   UNL     1       0.167  10.193  18.344  0.00  0.00    +0.000 A 
ATOM      9  C   UNL     1       1.549  10.125  18.115  0.00  0.00    +0.000 A 
ATOM     10  C   UNL     1       2.281  11.313  18.194  0.00  0.00    +0.000 A 
ATOM     11  C   UNL     1       1.646  12.539  18.431  0.00  0.00    +0.000 A 
ATOM     12  C   UNL     1       0.268  12.591  18.638  0.00  0.00    +0.000 A 
ATOM     13 CL   UNL     1      -0.453  14.129  18.946  0.00  0.00    +0.000 Cl
ENDBRANCH   4   9
ENDBRANCH   2   4
ENDBRANCH   1   2
BRANCH   1  14
ATOM     14  C   UNL     1       4.235   7.114  17.190  0.00  0.00    +0.000 C 
BRANCH  14  15
ATOM     15  C   UNL     1       5.528   6.311  17.283  0.00  0.00    +0.000 A 
ATOM     16  C   UNL     1       6.255   6.308  18.483  0.00  0.00    +0.000 A 
ATOM     17  C   UNL     1       7.355   5.474  18.698  0.00  0.00    +0.000 A 
ATOM     18  C   UNL     1       7.747   4.582  17.717  0.00  0.00    +0.000 A 
ATOM     19  C   UNL     1       7.045   4.541  16.519  0.00  0.00    +0.000 A 
ATOM     20  C   UNL     1       5.950   5.403  16.277  0.00  0.00    +0.000 A 
ATOM     21  C   UNL     1       5.230   5.233  14.963  0.00  0.00    +0.000 C 
ENDBRANCH  14  15
ENDBRANCH   1  14
BRANCH   1  22
ATOM     22  C   UNL     1       2.285   5.510  17.508  0.00  0.00    +0.000 C 
BRANCH  22  23
ATOM     23  C   UNL     1       2.455   4.099  18.132  0.00  0.00    +0.000 C 
ATOM     24  C   UNL     1       3.645   3.816  19.058  0.00  0.00    +0.000 C 
ATOM     25  C   UNL     1       3.535   4.301  20.497  0.00  0.00    +0.000 C 
ATOM     26  C   UNL     1       2.215   3.988  21.191  0.00  0.00    +0.000 C 
ATOM     27  C   UNL     1       0.982   4.134  20.288  0.00  0.00    +0.000 C 
ATOM     28  C   UNL     1       1.134   3.696  18.830  0.00  0.00    +0.000 C 
BRANCH  26  29
ATOM     29  C   UNL     1       2.274   2.631  21.886  0.00  0.00    +0.000 C 
ATOM     30  O   UNL     1       3.291   1.962  21.975  0.00  0.00    +0.000 OA
BRANCH  29  31
ATOM     31  O   UNL     1       1.093   2.225  22.392  0.00  0.00    +0.000 OA
ATOM     32  H   UNL     1       0.318   2.478  21.854  0.00  0.00    +0.000 HD
ENDBRANCH  29  31
ENDBRANCH  26  29
ENDBRANCH  22  23
ENDBRANCH   1  22
TORSDOF 9
ENDMDL
MODEL 4
REMARK VINA RESULT:      -8.0      3.188      5.233
REMARK  Name = 
REMARK  11 active torsions:
REMARK  status: ('A' for Active; 'I' for Inactive)
REMARK    1  A    between atoms: C_1  and  C_2
REMARK    2  A    between atoms: C_4  and  N_5
REMARK    3  A    between atoms: N_5  and  C_6
REMARK    4  A    between atoms: C_6  and  N_8
REMARK    5  A    between atoms: N_8  and  C_9
REMARK    6  A    between atoms: N_8  and  C_17
REMARK    7  A    between atoms: C_9  and  C_10
REMARK    8  A    between atoms: C_15  and  C_16
REMARK    9  A    between atoms: C_17  and  C_18
REMARK   10  A    between atoms: C_21  and  C_22
REMARK   11  A    between atoms: C_22  and  O_24
REMARK                            x       y       z     vdW  Elec       q    Type
REMARK                         _______ _______ _______ _____ _____    ______ ____
ROOT
ATOM      1  N   UNL     1       3.045   6.653  18.087  0.00  0.00    +0.000 N 
ENDROOT
BRANCH   1   2
ATOM      2  C   UNL     1       2.270   7.665  18.784  0.00  0.00    +0.000 C 
ATOM      3  S   UNL     1       1.908   7.627  20.431  0.00  0.00    +0.000 S 
BRANCH   2   4
ATOM      4  N   UNL     1       1.897   8.702  17.930  0.00  0.00    +0.000 N 
ATOM      5  H   UNL     1       2.262   8.578  16.993  0.00  0.00    +0.000 HD
BRANCH   4   9
ATOM      6  C   UNL     1       2.684  13.520  18.424  0.00  0.00    +0.000 C 
ATOM      7  C   UNL     1       1.701  12.383  18.416  0.00  0.00    +0.000 A 
ATOM      8  C   UNL     1       2.167  11.071  18.203  0.00  0.00    +0.000 A 
ATOM      9  C   UNL     1       1.297   9.970  18.169  0.00  0.00    +0.000 A 
ATOM     10  C   UNL     1      -0.070  10.218  18.322  0.00  0.00    +0.000 A 
ATOM     11  C   UNL     1      -0.549  11.512  18.563  0.00  0.00    +0.000 A 
ATOM     12  C   UNL     1       0.332  12.591  18.613  0.00  0.00    +0.000 A 
ATOM     13 CL   UNL     1      -0.321  14.165  18.894  0.00  0.00    +0.000 Cl
ENDBRANCH   4   9
ENDBRANCH   2   4
ENDBRANCH   1   2
BRANCH   1  14
ATOM     14  C   UNL     1       4.240   7.127  17.303  0.00  0.00    +0.000 C 
BRANCH  14  15
ATOM     15  C   UNL     1       5.530   6.316  17.362  0.00  0.00    +0.000 A 
ATOM     16  C   UNL     1       6.259   6.262  18.560  0.00  0.00    +0.000 A 
ATOM     17  C   UNL     1       7.356   5.415  18.740  0.00  0.00    +0.000 A 
ATOM     18  C   UNL     1       7.742   4.561  17.724  0.00  0.00    +0.000 A 
ATOM     19  C   UNL     1       7.037   4.570  16.526  0.00  0.00    +0.000 A 
ATOM     20  C   UNL     1       5.946   5.446  16.321  0.00  0.00    +0.000 A 
ATOM     21  C   UNL     1       5.223   5.331  15.003  0.00  0.00    +0.000 C 
ENDBRANCH  14  15
ENDBRANCH   1  14
BRANCH   1  22
ATOM     22  C   UNL     1       2.316   5.476  17.515  0.00  0.00    +0.000 C 
BRANCH  22  23
ATOM     23  C   UNL     1       2.442   4.063  18.144  0.00  0.00    +0.000 C 
ATOM     24  C   UNL     1       3.606   3.755  19.097  0.00  0.00    +0.000 C 
ATOM     25  C   UNL     1       3.475   4.245  20.532  0.00  0.00    +0.000 C 
ATOM     26  C   UNL     1       2.134   3.962  21.198  0.00  0.00    +0.000 C 
ATOM     27  C   UNL     1       0.925   4.132  20.268  0.00  0.00    +0.000 C 
ATOM     28  C   UNL     1       1.099   3.689  18.815  0.00  0.00    +0.000 C 
BRANCH  26  29
ATOM     29  C   UNL     1       2.149   2.605  21.895  0.00  0.00    +0.000 C 
ATOM     30  O   UNL     1       1.154   2.081  22.372  0.00  0.00    +0.000 OA
BRANCH  29  31
ATOM     31  O   UNL     1       3.365   2.030  21.948  0.00  0.00    +0.000 OA
ATOM     32  H   UNL     1       3.706   1.731  21.082  0.00  0.00    +0.000 HD
ENDBRANCH  29  31
ENDBRANCH  26  29
ENDBRANCH  22  23
ENDBRANCH   1  22
TORSDOF 9
ENDMDL
MODEL 5
REMARK VINA RESULT:      -7.9      3.167      5.453
REMARK  Name = 
REMARK  11 active torsions:
REMARK  status: ('A' for Active; 'I' for Inactive)
REMARK    1  A    between atoms: C_1  and  C_2
REMARK    2  A    between atoms: C_4  and  N_5
REMARK    3  A    between atoms: N_5  and  C_6
REMARK    4  A    between atoms: C_6  and  N_8
REMARK    5  A    between atoms: N_8  and  C_9
REMARK    6  A    between atoms: N_8  and  C_17
REMARK    7  A    between atoms: C_9  and  C_10
REMARK    8  A    between atoms: C_15  and  C_16
REMARK    9  A    between atoms: C_17  and  C_18
REMARK   10  A    between atoms: C_21  and  C_22
REMARK   11  A    between atoms: C_22  and  O_24
REMARK                            x       y       z     vdW  Elec       q    Type
REMARK                         _______ _______ _______ _____ _____    ______ ____
ROOT
ATOM      1  N   UNL     1       3.084   6.721  18.099  0.00  0.00    +0.000 N 
ENDROOT
BRANCH   1   2
ATOM      2  C   UNL     1       2.327   7.771  18.757  0.00  0.00    +0.000 C 
ATOM      3  S   UNL     1       1.792   7.708  20.355  0.00  0.00    +0.000 S 
BRANCH   2   4
ATOM      4  N   UNL     1       2.135   8.867  17.916  0.00  0.00    +0.000 N 
ATOM      5  H   UNL     1       2.607   8.755  17.027  0.00  0.00    +0.000 HD
BRANCH   4   9
ATOM      6  C   UNL     1      -1.920  11.432  18.941  0.00  0.00    +0.000 C 
ATOM      7  C   UNL     1      -0.444  11.440  18.654  0.00  0.00    +0.000 A 
ATOM      8  C   UNL     1       0.216  10.222  18.400  0.00  0.00    +0.000 A 
ATOM      9  C   UNL     1       1.593  10.163  18.142  0.00  0.00    +0.000 A 
ATOM     10  C   UNL     1       2.313  11.361  18.176  0.00  0.00    +0.000 A 
ATOM     11  C   UNL     1       1.669  12.585  18.398  0.00  0.00    +0.000 A 
ATOM     12  C   UNL     1       0.296  12.627  18.635  0.00  0.00    +0.000 A 
ATOM     13 CL   UNL     1      -0.436  14.164  18.921  0.00  0.00    +0.000 Cl
ENDBRANCH   4   9
ENDBRANCH   2   4
ENDBRANCH   1   2
BRANCH   1  14
ATOM     14  C   UNL     1       4.301   7.141  17.318  0.00  0.00    +0.000 C 
BRANCH  14  15
ATOM     15  C   UNL     1       5.215   6.066  16.740  0.00  0.00    +0.000 A 
ATOM     16  C   UNL     1       5.154   5.770  15.369  0.00  0.00    +0.000 A 
ATOM     17  C   UNL     1       6.065   4.919  14.738  0.00  0.00    +0.000 A 
ATOM     18  C   UNL     1       7.099   4.356  15.463  0.00  0.00    +0.000 A 
ATOM     19  C   UNL     1       7.206   4.636  16.820  0.00  0.00    +0.000 A 
ATOM     20  C   UNL     1       6.271   5.470  17.477  0.00  0.00    +0.000 A 
ATOM     21  C   UNL     1       6.518   5.746  18.938  0.00  0.00    +0.000 C 
ENDBRANCH  14  15
ENDBRANCH   1  14
BRANCH   1  22
ATOM     22  C   UNL     1       2.332   5.546  17.552  0.00  0.00    +0.000 C 
BRANCH  22  23
ATOM     23  C   UNL     1       2.474   4.133  18.175  0.00  0.00    +0.000 C 
ATOM     24  C   UNL     1       3.611   3.848  19.166  0.00  0.00    +0.000 C 
ATOM     25  C   UNL     1       3.417   4.323  20.599  0.00  0.00    +0.000 C 
ATOM     26  C   UNL     1       2.061   4.000  21.215  0.00  0.00    +0.000 C 
ATOM     27  C   UNL     1       0.881   4.146  20.244  0.00  0.00    +0.000 C 
ATOM     28  C   UNL     1       1.118   3.718  18.795  0.00  0.00    +0.000 C 
BRANCH  26  29
ATOM     29  C   UNL     1       2.087   2.639  21.903  0.00  0.00    +0.000 C 
ATOM     30  O   UNL     1       1.102   2.116  22.402  0.00  0.00    +0.000 OA
BRANCH  29  31
ATOM     31  O   UNL     1       3.302   2.059  21.922  0.00  0.00    +0.000 OA
ATOM     32  H   UNL     1       3.624   1.773  21.045  0.00  0.00    +0.000 HD
ENDBRANCH  29  31
ENDBRANCH  26  29
ENDBRANCH  22  23
ENDBRANCH   1  22
TORSDOF 9
ENDMDL
MODEL 6
REMARK VINA RESULT:      -7.9      2.712      4.868
REMARK  Name = 
REMARK  11 active torsions:
REMARK  status: ('A' for Active; 'I' for Inactive)
REMARK    1  A    between atoms: C_1  and  C_2
REMARK    2  A    between atoms: C_4  and  N_5
REMARK    3  A    between atoms: N_5  and  C_6
REMARK    4  A    between atoms: C_6  and  N_8
REMARK    5  A    between atoms: N_8  and  C_9
REMARK    6  A    between atoms: N_8  and  C_17
REMARK    7  A    between atoms: C_9  and  C_10
REMARK    8  A    between atoms: C_15  and  C_16
REMARK    9  A    between atoms: C_17  and  C_18
REMARK   10  A    between atoms: C_21  and  C_22
REMARK   11  A    between atoms: C_22  and  O_24
REMARK                            x       y       z     vdW  Elec       q    Type
REMARK                         _______ _______ _______ _____ _____    ______ ____
ROOT
ATOM      1  N   UNL     1       3.223   7.005  17.995  0.00  0.00    +0.000 N 
ENDROOT
BRANCH   1   2
ATOM      2  C   UNL     1       2.439   8.137  18.456  0.00  0.00    +0.000 C 
ATOM      3  S   UNL     1       2.238   9.575  17.598  0.00  0.00    +0.000 S 
BRANCH   2   4
ATOM      4  N   UNL     1       1.829   7.872  19.682  0.00  0.00    +0.000 N 
ATOM      5  H   UNL     1       1.781   6.880  19.880  0.00  0.00    +0.000 HD
BRANCH   4   9
ATOM      6  C   UNL     1      -1.362  11.576  20.097  0.00  0.00    +0.000 C 
ATOM      7  C   UNL     1      -0.502  10.551  20.782  0.00  0.00    +0.000 A 
ATOM      8  C   UNL     1       0.286   9.681  20.004  0.00  0.00    +0.000 A 
ATOM      9  C   UNL     1       1.096   8.693  20.584  0.00  0.00    +0.000 A 
ATOM     10  C   UNL     1       1.076   8.571  21.976  0.00  0.00    +0.000 A 
ATOM     11  C   UNL     1       0.321   9.446  22.768  0.00  0.00    +0.000 A 
ATOM     12  C   UNL     1      -0.464  10.434  22.176  0.00  0.00    +0.000 A 
ATOM     13 CL   UNL     1      -1.388  11.469  23.204  0.00  0.00    +0.000 Cl
ENDBRANCH   4   9
ENDBRANCH   2   4
ENDBRANCH   1   2
BRANCH   1  14
ATOM     14  C   UNL     1       4.398   7.306  17.101  0.00  0.00    +0.000 C 
BRANCH  14  15
ATOM     15  C   UNL     1       5.643   6.431  17.201  0.00  0.00    +0.000 A 
ATOM     16  C   UNL     1       6.408   6.448  18.378  0.00  0.00    +0.000 A 
ATOM     17  C   UNL     1       7.462   5.560  18.606  0.00  0.00    +0.000 A 
ATOM     18  C   UNL     1       7.767   4.593  17.666  0.00  0.00    +0.000 A 
ATOM     19  C   UNL     1       7.023   4.531  16.493  0.00  0.00    +0.000 A 
ATOM     20  C   UNL     1       5.975   5.445  16.236  0.00  0.00    +0.000 A 
ATOM     21  C   UNL     1       5.203   5.248  14.956  0.00  0.00    +0.000 C 
ENDBRANCH  14  15
ENDBRANCH   1  14
BRANCH   1  22
ATOM     22  C   UNL     1       2.509   5.717  17.720  0.00  0.00    +0.000 C 
BRANCH  22  23
ATOM     23  C   UNL     1       2.908   4.401  18.440  0.00  0.00    +0.000 C 
ATOM     24  C   UNL     1       3.673   4.463  19.769  0.00  0.00    +0.000 C 
ATOM     25  C   UNL     1       2.861   4.754  21.023  0.00  0.00    +0.000 C 
ATOM     26  C   UNL     1       1.575   3.950  21.168  0.00  0.00    +0.000 C 
ATOM     27  C   UNL     1       0.813   3.743  19.852  0.00  0.00    +0.000 C 
ATOM     28  C   UNL     1       1.652   3.511  18.594  0.00  0.00    +0.000 C 
BRANCH  26  29
ATOM     29  C   UNL     1       1.833   2.640  21.907  0.00  0.00    +0.000 C 
ATOM     30  O   UNL     1       0.974   2.036  22.531  0.00  0.00    +0.000 OA
BRANCH  29  31
ATOM     31  O   UNL     1       3.104   2.204  21.818  0.00  0.00    +0.000 OA
ATOM     32  H   UNL     1       3.189   1.262  21.570  0.00  0.00    +0.000 HD
ENDBRANCH  29  31
ENDBRANCH  26  29
ENDBRANCH  22  23
ENDBRANCH   1  22
TORSDOF 9
ENDMDL
MODEL 7
REMARK VINA RESULT:      -7.9      1.238      1.729
REMARK  Name = 
REMARK  11 active torsions:
REMARK  status: ('A' for Active; 'I' for Inactive)
REMARK    1  A    between atoms: C_1  and  C_2
REMARK    2  A    between atoms: C_4  and  N_5
REMARK    3  A    between atoms: N_5  and  C_6
REMARK    4  A    between atoms: C_6  and  N_8
REMARK    5  A    between atoms: N_8  and  C_9
REMARK    6  A    between atoms: N_8  and  C_17
REMARK    7  A    between atoms: C_9  and  C_10
REMARK    8  A    between atoms: C_15  and  C_16
REMARK    9  A    between atoms: C_17  and  C_18
REMARK   10  A    between atoms: C_21  and  C_22
REMARK   11  A    between atoms: C_22  and  O_24
REMARK                            x       y       z     vdW  Elec       q    Type
REMARK                         _______ _______ _______ _____ _____    ______ ____
ROOT
ATOM      1  N   UNL     1       2.947   6.664  18.931  0.00  0.00    +0.000 N 
ENDROOT
BRANCH   1   2
ATOM      2  C   UNL     1       2.204   7.889  19.171  0.00  0.00    +0.000 C 
ATOM      3  S   UNL     1       1.846   9.038  17.989  0.00  0.00    +0.000 S 
BRANCH   2   4
ATOM      4  N   UNL     1       1.779   7.979  20.496  0.00  0.00    +0.000 N 
ATOM      5  H   UNL     1       1.999   7.145  21.026  0.00  0.00    +0.000 HD
BRANCH   4   9
ATOM      6  C   UNL     1      -1.181  11.859  19.992  0.00  0.00    +0.000 C 
ATOM      7  C   UNL     1      -0.546  10.850  20.908  0.00  0.00    +0.000 A 
ATOM      8  C   UNL     1       0.324   9.882  20.369  0.00  0.00    +0.000 A 
ATOM      9  C   UNL     1       0.934   8.905  21.170  0.00  0.00    +0.000 A 
ATOM     10  C   UNL     1       0.625   8.895  22.533  0.00  0.00    +0.000 A 
ATOM     11  C   UNL     1      -0.216   9.866  23.090  0.00  0.00    +0.000 A 
ATOM     12  C   UNL     1      -0.799  10.842  22.284  0.00  0.00    +0.000 A 
ATOM     13 CL   UNL     1      -1.841  12.000  23.027  0.00  0.00    +0.000 Cl
ENDBRANCH   4   9
ENDBRANCH   2   4
ENDBRANCH   1   2
BRANCH   1  14
ATOM     14  C   UNL     1       2.521   5.444  19.705  0.00  0.00    +0.000 C 
BRANCH  14  15
ATOM     15  C   UNL     1       2.953   4.068  19.208  0.00  0.00    +0.000 A 
ATOM     16  C   UNL     1       3.952   3.365  19.901  0.00  0.00    +0.000 A 
ATOM     17  C   UNL     1       4.285   2.041  19.607  0.00  0.00    +0.000 A 
ATOM     18  C   UNL     1       3.598   1.359  18.620  0.00  0.00    +0.000 A 
ATOM     19  C   UNL     1       2.591   2.013  17.920  0.00  0.00    +0.000 A 
ATOM     20  C   UNL     1       2.266   3.363  18.186  0.00  0.00    +0.000 A 
ATOM     21  C   UNL     1       1.120   3.952  17.404  0.00  0.00    +0.000 C 
ENDBRANCH  14  15
ENDBRANCH   1  14
BRANCH   1  22
ATOM     22  C   UNL     1       4.412   6.773  18.640  0.00  0.00    +0.000 C 
BRANCH  22  23
ATOM     23  C   UNL     1       4.939   6.940  17.190  0.00  0.00    +0.000 C 
ATOM     24  C   UNL     1       6.451   6.984  16.931  0.00  0.00    +0.000 C 
ATOM     25  C   UNL     1       7.191   5.654  16.913  0.00  0.00    +0.000 C 
ATOM     26  C   UNL     1       6.528   4.551  16.097  0.00  0.00    +0.000 C 
ATOM     27  C   UNL     1       4.998   4.520  16.211  0.00  0.00    +0.000 C 
ATOM     28  C   UNL     1       4.280   5.868  16.289  0.00  0.00    +0.000 C 
BRANCH  26  29
ATOM     29  C   UNL     1       7.005   4.584  14.648  0.00  0.00    +0.000 C 
ATOM     30  O   UNL     1       6.532   3.884  13.765  0.00  0.00    +0.000 OA
BRANCH  29  31
ATOM     31  O   UNL     1       8.008   5.454  14.422  0.00  0.00    +0.000 OA
ATOM     32  H   UNL     1       8.295   5.503  13.490  0.00  0.00    +0.000 HD
ENDBRANCH  29  31
ENDBRANCH  26  29
ENDBRANCH  22  23
ENDBRANCH   1  22
TORSDOF 9
ENDMDL
MODEL 8
REMARK VINA RESULT:      -7.8      1.123      1.657
REMARK  Name = 
REMARK  11 active torsions:
REMARK  status: ('A' for Active; 'I' for Inactive)
REMARK    1  A    between atoms: C_1  and  C_2
REMARK    2  A    between atoms: C_4  and  N_5
REMARK    3  A    between atoms: N_5  and  C_6
REMARK    4  A    between atoms: C_6  and  N_8
REMARK    5  A    between atoms: N_8  and  C_9
REMARK    6  A    between atoms: N_8  and  C_17
REMARK    7  A    between atoms: C_9  and  C_10
REMARK    8  A    between atoms: C_15  and  C_16
REMARK    9  A    between atoms: C_17  and  C_18
REMARK   10  A    between atoms: C_21  and  C_22
REMARK   11  A    between atoms: C_22  and  O_24
REMARK                            x       y       z     vdW  Elec       q    Type
REMARK                         _______ _______ _______ _____ _____    ______ ____
ROOT
ATOM      1  N   UNL     1       2.906   6.430  19.409  0.00  0.00    +0.000 N 
ENDROOT
BRANCH   1   2
ATOM      2  C   UNL     1       2.160   7.672  19.523  0.00  0.00    +0.000 C 
ATOM      3  S   UNL     1       1.905   8.754  18.255  0.00  0.00    +0.000 S 
BRANCH   2   4
ATOM      4  N   UNL     1       1.638   7.839  20.805  0.00  0.00    +0.000 N 
ATOM      5  H   UNL     1       1.690   6.990  21.354  0.00  0.00    +0.000 HD
BRANCH   4   9
ATOM      6  C   UNL     1      -0.021  12.428  20.292  0.00  0.00    +0.000 C 
ATOM      7  C   UNL     1       0.052  11.185  21.135  0.00  0.00    +0.000 A 
ATOM      8  C   UNL     1       0.785  10.077  20.667  0.00  0.00    +0.000 A 
ATOM      9  C   UNL     1       0.878   8.885  21.400  0.00  0.00    +0.000 A 
ATOM     10  C   UNL     1       0.184   8.811  22.611  0.00  0.00    +0.000 A 
ATOM     11  C   UNL     1      -0.526   9.912  23.106  0.00  0.00    +0.000 A 
ATOM     12  C   UNL     1      -0.592  11.096  22.373  0.00  0.00    +0.000 A 
ATOM     13 CL   UNL     1      -1.500  12.411  23.027  0.00  0.00    +0.000 Cl
ENDBRANCH   4   9
ENDBRANCH   2   4
ENDBRANCH   1   2
BRANCH   1  14
ATOM     14  C   UNL     1       2.587   5.347  20.407  0.00  0.00    +0.000 C 
BRANCH  14  15
ATOM     15  C   UNL     1       2.256   3.949  19.897  0.00  0.00    +0.000 A 
ATOM     16  C   UNL     1       0.934   3.637  19.542  0.00  0.00    +0.000 A 
ATOM     17  C   UNL     1       0.582   2.438  18.918  0.00  0.00    +0.000 A 
ATOM     18  C   UNL     1       1.560   1.515  18.595  0.00  0.00    +0.000 A 
ATOM     19  C   UNL     1       2.884   1.791  18.913  0.00  0.00    +0.000 A 
ATOM     20  C   UNL     1       3.249   2.987  19.575  0.00  0.00    +0.000 A 
ATOM     21  C   UNL     1       4.720   3.204  19.821  0.00  0.00    +0.000 C 
ENDBRANCH  14  15
ENDBRANCH   1  14
BRANCH   1  22
ATOM     22  C   UNL     1       4.333   6.503  18.961  0.00  0.00    +0.000 C 
BRANCH  22  23
ATOM     23  C   UNL     1       4.703   6.677  17.464  0.00  0.00    +0.000 C 
ATOM     24  C   UNL     1       6.169   6.885  17.061  0.00  0.00    +0.000 C 
ATOM     25  C   UNL     1       7.056   5.648  17.007  0.00  0.00    +0.000 C 
ATOM     26  C   UNL     1       6.456   4.448  16.286  0.00  0.00    +0.000 C 
ATOM     27  C   UNL     1       4.957   4.245  16.545  0.00  0.00    +0.000 C 
ATOM     28  C   UNL     1       4.096   5.504  16.656  0.00  0.00    +0.000 C 
BRANCH  26  29
ATOM     29  C   UNL     1       6.792   4.483  14.798  0.00  0.00    +0.000 C 
ATOM     30  O   UNL     1       6.266   3.755  13.970  0.00  0.00    +0.000 OA
BRANCH  29  31
ATOM     31  O   UNL     1       7.733   5.390  14.471  0.00  0.00    +0.000 OA
ATOM     32  H   UNL     1       8.015   5.357  13.537  0.00  0.00    +0.000 HD
ENDBRANCH  29  31
ENDBRANCH  26  29
ENDBRANCH  22  23
ENDBRANCH   1  22
TORSDOF 9
ENDMDL
MODEL 9
REMARK VINA RESULT:      -7.8      0.763      1.555
REMARK  Name = 
REMARK  11 active torsions:
REMARK  status: ('A' for Active; 'I' for Inactive)
REMARK    1  A    between atoms: C_1  and  C_2
REMARK    2  A    between atoms: C_4  and  N_5
REMARK    3  A    between atoms: N_5  and  C_6
REMARK    4  A    between atoms: C_6  and  N_8
REMARK    5  A    between atoms: N_8  and  C_9
REMARK    6  A    between atoms: N_8  and  C_17
REMARK    7  A    between atoms: C_9  and  C_10
REMARK    8  A    between atoms: C_15  and  C_16
REMARK    9  A    between atoms: C_17  and  C_18
REMARK   10  A    between atoms: C_21  and  C_22
REMARK   11  A    between atoms: C_22  and  O_24
REMARK                            x       y       z     vdW  Elec       q    Type
REMARK                         _______ _______ _______ _____ _____    ______ ____
ROOT
ATOM      1  N   UNL     1       2.702   6.476  18.641  0.00  0.00    +0.000 N 
ENDROOT
BRANCH   1   2
ATOM      2  C   UNL     1       2.200   7.797  18.975  0.00  0.00    +0.000 C 
ATOM      3  S   UNL     1       1.903   9.020  17.851  0.00  0.00    +0.000 S 
BRANCH   2   4
ATOM      4  N   UNL     1       1.947   7.918  20.340  0.00  0.00    +0.000 N 
ATOM      5  H   UNL     1       2.352   7.159  20.874  0.00  0.00    +0.000 HD
BRANCH   4   9
ATOM      6  C   UNL     1       0.462  12.536  21.079  0.00  0.00    +0.000 C 
ATOM      7  C   UNL     1       0.339  11.083  21.445  0.00  0.00    +0.000 A 
ATOM      8  C   UNL     1       1.155  10.137  20.794  0.00  0.00    +0.000 A 
ATOM      9  C   UNL     1       1.076   8.766  21.081  0.00  0.00    +0.000 A 
ATOM     10  C   UNL     1       0.129   8.352  22.022  0.00  0.00    +0.000 A 
ATOM     11  C   UNL     1      -0.671   9.281  22.700  0.00  0.00    +0.000 A 
ATOM     12  C   UNL     1      -0.566  10.642  22.416  0.00  0.00    +0.000 A 
ATOM     13 CL   UNL     1      -1.593  11.736  23.271  0.00  0.00    +0.000 Cl
ENDBRANCH   4   9
ENDBRANCH   2   4
ENDBRANCH   1   2
BRANCH   1  14
ATOM     14  C   UNL     1       1.724   5.333  18.718  0.00  0.00    +0.000 C 
BRANCH  14  15
ATOM     15  C   UNL     1       2.259   3.905  18.758  0.00  0.00    +0.000 A 
ATOM     16  C   UNL     1       2.601   3.261  17.558  0.00  0.00    +0.000 A 
ATOM     17  C   UNL     1       3.246   2.022  17.523  0.00  0.00    +0.000 A 
ATOM     18  C   UNL     1       3.604   1.397  18.703  0.00  0.00    +0.000 A 
ATOM     19  C   UNL     1       3.299   2.008  19.914  0.00  0.00    +0.000 A 
ATOM     20  C   UNL     1       2.617   3.246  19.963  0.00  0.00    +0.000 A 
ATOM     21  C   UNL     1       2.388   3.841  21.329  0.00  0.00    +0.000 C 
ENDBRANCH  14  15
ENDBRANCH   1  14
BRANCH   1  22
ATOM     22  C   UNL     1       4.118   6.147  19.003  0.00  0.00    +0.000 C 
BRANCH  22  23
ATOM     23  C   UNL     1       5.292   6.450  18.034  0.00  0.00    +0.000 C 
ATOM     24  C   UNL     1       6.539   5.555  18.046  0.00  0.00    +0.000 C 
ATOM     25  C   UNL     1       6.443   4.223  17.314  0.00  0.00    +0.000 C 
ATOM     26  C   UNL     1       5.830   4.288  15.921  0.00  0.00    +0.000 C 
ATOM     27  C   UNL     1       4.648   5.259  15.801  0.00  0.00    +0.000 C 
ATOM     28  C   UNL     1       4.739   6.564  16.593  0.00  0.00    +0.000 C 
BRANCH  26  29
ATOM     29  C   UNL     1       6.903   4.540  14.866  0.00  0.00    +0.000 C 
ATOM     30  O   UNL     1       7.716   5.449  14.933  0.00  0.00    +0.000 OA
BRANCH  29  31
ATOM     31  O   UNL     1       6.873   3.671  13.838  0.00  0.00    +0.000 OA
ATOM     32  H   UNL     1       6.336   2.871  14.004  0.00  0.00    +0.000 HD
ENDBRANCH  29  31
ENDBRANCH  26  29
ENDBRANCH  22  23
ENDBRANCH   1  22
TORSDOF 9
ENDMDL
