MODEL 1
REMARK VINA RESULT:      -7.4      0.000      0.000
REMARK  Name = 
REMARK  4 active torsions:
REMARK  status: ('A' for Active; 'I' for Inactive)
REMARK    1  A    between atoms: C_1  and  C_2
REMARK    2  A    between atoms: C_2  and  C_4
REMARK    3  A    between atoms: C_6  and  C_7
REMARK    4  A    between atoms: C_18  and  N_19
REMARK                            x       y       z     vdW  Elec       q    Type
REMARK                         _______ _______ _______ _____ _____    ______ ____
ROOT
ATOM      1  C   UNL     1       3.026   3.546  20.269  0.00  0.00    +0.000 A 
ATOM      2  C   UNL     1       3.861   3.235  19.212  0.00  0.00    +0.000 A 
ATOM      3  C   UNL     1       4.069   4.397  18.439  0.00  0.00    +0.000 A 
ATOM      4  C   UNL     1       3.316   5.402  19.009  0.00  0.00    +0.000 A 
ATOM      5  C   UNL     1       3.036   6.759  18.651  0.00  0.00    +0.000 A 
ATOM      6  C   UNL     1       2.249   7.548  19.417  0.00  0.00    +0.000 A 
ATOM      7  C   UNL     1       1.701   6.989  20.653  0.00  0.00    +0.000 A 
ATOM      8  C   UNL     1       1.943   5.718  20.993  0.00  0.00    +0.000 A 
ATOM      9  N   UNL     1       2.716   4.900  20.164  0.00  0.00    +0.000 N 
ENDROOT
BRANCH   3  10
ATOM     10  C   UNL     1       4.918   4.517  17.212  0.00  0.00    +0.000 A 
ATOM     11  N   UNL     1       4.663   3.837  16.116  0.00  0.00    +0.000 NA
ATOM     12  C   UNL     1       5.541   4.204  15.116  0.00  0.00    +0.000 A 
ATOM     13  C   UNL     1       5.497   3.770  13.776  0.00  0.00    +0.000 A 
ATOM     14  C   UNL     1       6.470   4.208  12.873  0.00  0.00    +0.000 A 
ATOM     15  C   UNL     1       7.495   5.051  13.292  0.00  0.00    +0.000 A 
ATOM     16  C   UNL     1       7.547   5.509  14.612  0.00  0.00    +0.000 A 
ATOM     17  C   UNL     1       6.542   5.094  15.497  0.00  0.00    +0.000 A 
ATOM     18  S   UNL     1       6.283   5.557  17.132  0.00  0.00    +0.000 S 
ENDBRANCH   3  10
BRANCH   6  19
ATOM     19  N   UNL     1       1.872   8.851  19.093  0.00  0.00    +0.000 N 
ATOM     20  C   UNL     1       2.131   9.392  17.737  0.00  0.00    +0.000 C 
ATOM     21  C   UNL     1       2.249  10.921  17.795  0.00  0.00    +0.000 C 
ATOM     22  O   UNL     1       1.078  11.523  18.374  0.00  0.00    +0.000 OA
ATOM     23  C   UNL     1       0.876  11.022  19.705  0.00  0.00    +0.000 C 
ATOM     24  C   UNL     1       0.692   9.497  19.710  0.00  0.00    +0.000 C 
ENDBRANCH   6  19
BRANCH   1  26
ATOM     25  C   UNL     1       1.090   2.524  21.551  0.00  0.00    +0.000 C 
ATOM     26  C   UNL     1       2.584   2.644  21.326  0.00  0.00    +0.000 C 
ATOM     27  O   UNL     1       3.351   1.972  21.998  0.00  0.00    +0.000 OA
ENDBRANCH   1  26
TORSDOF 3
ENDMDL
MODEL 2
REMARK VINA RESULT:      -7.0      2.312      6.638
REMARK  Name = 
REMARK  4 active torsions:
REMARK  status: ('A' for Active; 'I' for Inactive)
REMARK    1  A    between atoms: C_1  and  C_2
REMARK    2  A    between atoms: C_2  and  C_4
REMARK    3  A    between atoms: C_6  and  C_7
REMARK    4  A    between atoms: C_18  and  N_19
REMARK                            x       y       z     vdW  Elec       q    Type
REMARK                         _______ _______ _______ _____ _____    ______ ____
ROOT
ATOM      1  C   UNL     1       2.574   3.928  20.693  0.00  0.00    +0.000 A 
ATOM      2  C   UNL     1       2.038   5.191  20.855  0.00  0.00    +0.000 A 
ATOM      3  C   UNL     1       2.423   5.994  19.760  0.00  0.00    +0.000 A 
ATOM      4  C   UNL     1       3.235   5.220  18.957  0.00  0.00    +0.000 A 
ATOM      5  C   UNL     1       3.997   5.476  17.773  0.00  0.00    +0.000 A 
ATOM      6  C   UNL     1       4.717   4.504  17.169  0.00  0.00    +0.000 A 
ATOM      7  C   UNL     1       4.682   3.158  17.740  0.00  0.00    +0.000 A 
ATOM      8  C   UNL     1       3.986   2.907  18.854  0.00  0.00    +0.000 A 
ATOM      9  N   UNL     1       3.288   3.934  19.496  0.00  0.00    +0.000 N 
ENDROOT
BRANCH   3  10
ATOM     10  C   UNL     1       2.052   7.425  19.523  0.00  0.00    +0.000 A 
ATOM     11  N   UNL     1       1.428   8.145  20.429  0.00  0.00    +0.000 NA
ATOM     12  C   UNL     1       1.292   9.445  19.989  0.00  0.00    +0.000 A 
ATOM     13  C   UNL     1       0.778  10.522  20.738  0.00  0.00    +0.000 A 
ATOM     14  C   UNL     1       0.677  11.789  20.153  0.00  0.00    +0.000 A 
ATOM     15  C   UNL     1       1.059  11.987  18.830  0.00  0.00    +0.000 A 
ATOM     16  C   UNL     1       1.590  10.938  18.074  0.00  0.00    +0.000 A 
ATOM     17  C   UNL     1       1.723   9.683  18.685  0.00  0.00    +0.000 A 
ATOM     18  S   UNL     1       2.420   8.243  18.058  0.00  0.00    +0.000 S 
ENDBRANCH   3  10
BRANCH   6  19
ATOM     19  N   UNL     1       5.542   4.697  16.061  0.00  0.00    +0.000 N 
ATOM     20  C   UNL     1       5.038   4.424  14.694  0.00  0.00    +0.000 C 
ATOM     21  C   UNL     1       6.207   4.076  13.763  0.00  0.00    +0.000 C 
ATOM     22  O   UNL     1       7.200   5.116  13.745  0.00  0.00    +0.000 OA
ATOM     23  C   UNL     1       7.710   5.329  15.072  0.00  0.00    +0.000 C 
ATOM     24  C   UNL     1       6.594   5.739  16.045  0.00  0.00    +0.000 C 
ENDBRANCH   6  19
BRANCH   1  26
ATOM     25  C   UNL     1       0.973   2.415  21.953  0.00  0.00    +0.000 C 
ATOM     26  C   UNL     1       2.395   2.783  21.579  0.00  0.00    +0.000 C 
ATOM     27  O   UNL     1       3.323   2.106  21.994  0.00  0.00    +0.000 OA
ENDBRANCH   1  26
TORSDOF 3
ENDMDL
MODEL 3
REMARK VINA RESULT:      -6.9      4.077      7.187
REMARK  Name = 
REMARK  4 active torsions:
REMARK  status: ('A' for Active; 'I' for Inactive)
REMARK    1  A    between atoms: C_1  and  C_2
REMARK    2  A    between atoms: C_2  and  C_4
REMARK    3  A    between atoms: C_6  and  C_7
REMARK    4  A    between atoms: C_18  and  N_19
REMARK                            x       y       z     vdW  Elec       q    Type
REMARK                         _______ _______ _______ _____ _____    ______ ____
ROOT
ATOM      1  C   UNL     1      -1.501  11.300  18.497  0.00  0.00    +0.000 A 
ATOM      2  C   UNL     1      -0.974  10.026  18.419  0.00  0.00    +0.000 A 
ATOM      3  C   UNL     1       0.424  10.099  18.598  0.00  0.00    +0.000 A 
ATOM      4  C   UNL     1       0.744  11.433  18.738  0.00  0.00    +0.000 A 
ATOM      5  C   UNL     1       1.976  12.153  18.858  0.00  0.00    +0.000 A 
ATOM      6  C   UNL     1       2.002  13.498  18.996  0.00  0.00    +0.000 A 
ATOM      7  C   UNL     1       0.727  14.214  19.049  0.00  0.00    +0.000 A 
ATOM      8  C   UNL     1      -0.431  13.556  18.925  0.00  0.00    +0.000 A 
ATOM      9  N   UNL     1      -0.439  12.172  18.731  0.00  0.00    +0.000 N 
ENDROOT
BRANCH   3  10
ATOM     10  C   UNL     1       1.389   8.954  18.604  0.00  0.00    +0.000 A 
ATOM     11  N   UNL     1       2.169   8.691  17.579  0.00  0.00    +0.000 NA
ATOM     12  C   UNL     1       3.017   7.647  17.884  0.00  0.00    +0.000 A 
ATOM     13  C   UNL     1       4.064   7.167  17.073  0.00  0.00    +0.000 A 
ATOM     14  C   UNL     1       4.833   6.081  17.502  0.00  0.00    +0.000 A 
ATOM     15  C   UNL     1       4.556   5.456  18.714  0.00  0.00    +0.000 A 
ATOM     16  C   UNL     1       3.534   5.926  19.544  0.00  0.00    +0.000 A 
ATOM     17  C   UNL     1       2.798   7.041  19.120  0.00  0.00    +0.000 A 
ATOM     18  S   UNL     1       1.563   7.901  19.949  0.00  0.00    +0.000 S 
ENDBRANCH   3  10
BRANCH   6  19
ATOM     19  N   UNL     1       3.161  14.271  19.041  0.00  0.00    +0.000 N 
ATOM     20  C   UNL     1       3.538  15.126  17.889  0.00  0.00    +0.000 C 
ATOM     21  C   UNL     1       5.057  15.343  17.871  0.00  0.00    +0.000 C 
ATOM     22  O   UNL     1       5.528  15.907  19.106  0.00  0.00    +0.000 OA
ATOM     23  C   UNL     1       5.197  15.038  20.201  0.00  0.00    +0.000 C 
ATOM     24  C   UNL     1       3.679  14.826  20.312  0.00  0.00    +0.000 C 
ENDBRANCH   6  19
BRANCH   1  26
ATOM     25  C   UNL     1      -3.610  11.379  17.087  0.00  0.00    +0.000 C 
ATOM     26  C   UNL     1      -2.908  11.670  18.398  0.00  0.00    +0.000 C 
ATOM     27  O   UNL     1      -3.537  12.164  19.322  0.00  0.00    +0.000 OA
ENDBRANCH   1  26
TORSDOF 3
ENDMDL
MODEL 4
REMARK VINA RESULT:      -6.8      5.970     10.255
REMARK  Name = 
REMARK  4 active torsions:
REMARK  status: ('A' for Active; 'I' for Inactive)
REMARK    1  A    between atoms: C_1  and  C_2
REMARK    2  A    between atoms: C_2  and  C_4
REMARK    3  A    between atoms: C_6  and  C_7
REMARK    4  A    between atoms: C_18  and  N_19
REMARK                            x       y       z     vdW  Elec       q    Type
REMARK                         _______ _______ _______ _____ _____    ______ ____
ROOT
ATOM      1  C   UNL     1       0.688  10.268  18.533  0.00  0.00    +0.000 A 
ATOM      2  C   UNL     1      -0.684  10.173  18.670  0.00  0.00    +0.000 A 
ATOM      3  C   UNL     1      -1.222  11.474  18.777  0.00  0.00    +0.000 A 
ATOM      4  C   UNL     1      -0.161  12.354  18.751  0.00  0.00    +0.000 A 
ATOM      5  C   UNL     1      -0.042  13.772  18.906  0.00  0.00    +0.000 A 
ATOM      6  C   UNL     1       1.154  14.397  18.823  0.00  0.00    +0.000 A 
ATOM      7  C   UNL     1       2.340  13.589  18.540  0.00  0.00    +0.000 A 
ATOM      8  C   UNL     1       2.246  12.262  18.407  0.00  0.00    +0.000 A 
ATOM      9  N   UNL     1       1.010  11.624  18.547  0.00  0.00    +0.000 N 
ENDROOT
BRANCH   3  10
ATOM     10  C   UNL     1      -2.668  11.836  18.924  0.00  0.00    +0.000 A 
ATOM     11  N   UNL     1      -3.561  11.531  18.010  0.00  0.00    +0.000 NA
ATOM     12  C   UNL     1      -4.821  11.897  18.437  0.00  0.00    +0.000 A 
ATOM     13  C   UNL     1      -6.032  11.624  17.772  0.00  0.00    +0.000 A 
ATOM     14  C   UNL     1      -7.239  12.079  18.314  0.00  0.00    +0.000 A 
ATOM     15  C   UNL     1      -7.250  12.819  19.492  0.00  0.00    +0.000 A 
ATOM     16  C   UNL     1      -6.061  13.085  20.179  0.00  0.00    +0.000 A 
ATOM     17  C   UNL     1      -4.864  12.589  19.646  0.00  0.00    +0.000 A 
ATOM     18  S   UNL     1      -3.276  12.666  20.299  0.00  0.00    +0.000 S 
ENDBRANCH   3  10
BRANCH   6  19
ATOM     19  N   UNL     1       1.356  15.760  19.038  0.00  0.00    +0.000 N 
ATOM     20  C   UNL     1       2.729  16.302  19.178  0.00  0.00    +0.000 C 
ATOM     21  C   UNL     1       2.703  17.589  20.014  0.00  0.00    +0.000 C 
ATOM     22  O   UNL     1       1.818  18.571  19.450  0.00  0.00    +0.000 OA
ATOM     23  C   UNL     1       0.484  18.042  19.371  0.00  0.00    +0.000 C 
ATOM     24  C   UNL     1       0.431  16.780  18.496  0.00  0.00    +0.000 C 
ENDBRANCH   6  19
BRANCH   1  26
ATOM     25  C   UNL     1       1.830   8.240  19.543  0.00  0.00    +0.000 C 
ATOM     26  C   UNL     1       1.626   9.166  18.360  0.00  0.00    +0.000 C 
ATOM     27  O   UNL     1       2.216   8.946  17.313  0.00  0.00    +0.000 OA
ENDBRANCH   1  26
TORSDOF 3
ENDMDL
MODEL 5
REMARK VINA RESULT:      -6.8      4.057      7.151
REMARK  Name = 
REMARK  4 active torsions:
REMARK  status: ('A' for Active; 'I' for Inactive)
REMARK    1  A    between atoms: C_1  and  C_2
REMARK    2  A    between atoms: C_2  and  C_4
REMARK    3  A    between atoms: C_6  and  C_7
REMARK    4  A    between atoms: C_18  and  N_19
REMARK                            x       y       z     vdW  Elec       q    Type
REMARK                         _______ _______ _______ _____ _____    ______ ____
ROOT
ATOM      1  C   UNL     1      -1.445  11.139  18.120  0.00  0.00    +0.000 A 
ATOM      2  C   UNL     1      -0.875   9.882  18.053  0.00  0.00    +0.000 A 
ATOM      3  C   UNL     1       0.493   9.983  18.387  0.00  0.00    +0.000 A 
ATOM      4  C   UNL     1       0.757  11.318  18.610  0.00  0.00    +0.000 A 
ATOM      5  C   UNL     1       1.946  12.063  18.890  0.00  0.00    +0.000 A 
ATOM      6  C   UNL     1       1.918  13.402  19.080  0.00  0.00    +0.000 A 
ATOM      7  C   UNL     1       0.624  14.083  19.019  0.00  0.00    +0.000 A 
ATOM      8  C   UNL     1      -0.494  13.402  18.745  0.00  0.00    +0.000 A 
ATOM      9  N   UNL     1      -0.440  12.026  18.501  0.00  0.00    +0.000 N 
ENDROOT
BRANCH   3  10
ATOM     10  C   UNL     1       1.484   8.863  18.456  0.00  0.00    +0.000 A 
ATOM     11  N   UNL     1       2.318   8.606  17.473  0.00  0.00    +0.000 NA
ATOM     12  C   UNL     1       3.177   7.588  17.834  0.00  0.00    +0.000 A 
ATOM     13  C   UNL     1       4.273   7.123  17.080  0.00  0.00    +0.000 A 
ATOM     14  C   UNL     1       5.047   6.064  17.562  0.00  0.00    +0.000 A 
ATOM     15  C   UNL     1       4.729   5.449  18.770  0.00  0.00    +0.000 A 
ATOM     16  C   UNL     1       3.658   5.906  19.544  0.00  0.00    +0.000 A 
ATOM     17  C   UNL     1       2.915   6.995  19.068  0.00  0.00    +0.000 A 
ATOM     18  S   UNL     1       1.621   7.835  19.825  0.00  0.00    +0.000 S 
ENDBRANCH   3  10
BRANCH   6  19
ATOM     19  N   UNL     1       3.043  14.201  19.279  0.00  0.00    +0.000 N 
ATOM     20  C   UNL     1       3.637  14.337  20.631  0.00  0.00    +0.000 C 
ATOM     21  C   UNL     1       4.380  15.675  20.746  0.00  0.00    +0.000 C 
ATOM     22  O   UNL     1       5.384  15.815  19.727  0.00  0.00    +0.000 OA
ATOM     23  C   UNL     1       4.779  15.731  18.427  0.00  0.00    +0.000 C 
ATOM     24  C   UNL     1       4.065  14.385  18.224  0.00  0.00    +0.000 C 
ENDBRANCH   6  19
BRANCH   1  26
ATOM     25  C   UNL     1      -3.393  11.208  16.496  0.00  0.00    +0.000 C 
ATOM     26  C   UNL     1      -2.843  11.477  17.882  0.00  0.00    +0.000 C 
ATOM     27  O   UNL     1      -3.580  11.927  18.747  0.00  0.00    +0.000 OA
ENDBRANCH   1  26
TORSDOF 3
ENDMDL
MODEL 6
REMARK VINA RESULT:      -6.7      6.019     10.403
REMARK  Name = 
REMARK  4 active torsions:
REMARK  status: ('A' for Active; 'I' for Inactive)
REMARK    1  A    between atoms: C_1  and  C_2
REMARK    2  A    between atoms: C_2  and  C_4
REMARK    3  A    between atoms: C_6  and  C_7
REMARK    4  A    between atoms: C_18  and  N_19
REMARK                            x       y       z     vdW  Elec       q    Type
REMARK                         _______ _______ _______ _____ _____    ______ ____
ROOT
ATOM      1  C   UNL     1       0.522  10.278  18.507  0.00  0.00    +0.000 A 
ATOM      2  C   UNL     1      -0.850  10.112  18.515  0.00  0.00    +0.000 A 
ATOM      3  C   UNL     1      -1.463  11.382  18.564  0.00  0.00    +0.000 A 
ATOM      4  C   UNL     1      -0.451  12.316  18.633  0.00  0.00    +0.000 A 
ATOM      5  C   UNL     1      -0.421  13.739  18.791  0.00  0.00    +0.000 A 
ATOM      6  C   UNL     1       0.744  14.426  18.818  0.00  0.00    +0.000 A 
ATOM      7  C   UNL     1       1.992  13.680  18.653  0.00  0.00    +0.000 A 
ATOM      8  C   UNL     1       1.979  12.350  18.518  0.00  0.00    +0.000 A 
ATOM      9  N   UNL     1       0.770  11.649  18.544  0.00  0.00    +0.000 N 
ENDROOT
BRANCH   3  10
ATOM     10  C   UNL     1      -2.932  11.669  18.572  0.00  0.00    +0.000 A 
ATOM     11  N   UNL     1      -3.534  12.206  19.611  0.00  0.00    +0.000 NA
ATOM     12  C   UNL     1      -4.861  12.445  19.318  0.00  0.00    +0.000 A 
ATOM     13  C   UNL     1      -5.784  13.113  20.147  0.00  0.00    +0.000 A 
ATOM     14  C   UNL     1      -7.109  13.265  19.728  0.00  0.00    +0.000 A 
ATOM     15  C   UNL     1      -7.529  12.739  18.510  0.00  0.00    +0.000 A 
ATOM     16  C   UNL     1      -6.627  12.089  17.663  0.00  0.00    +0.000 A 
ATOM     17  C   UNL     1      -5.292  11.980  18.077  0.00  0.00    +0.000 A 
ATOM     18  S   UNL     1      -3.946  11.332  17.228  0.00  0.00    +0.000 S 
ENDBRANCH   3  10
BRANCH   6  19
ATOM     19  N   UNL     1       0.854  15.797  19.044  0.00  0.00    +0.000 N 
ATOM     20  C   UNL     1       2.182  16.455  19.034  0.00  0.00    +0.000 C 
ATOM     21  C   UNL     1       2.148  17.721  19.901  0.00  0.00    +0.000 C 
ATOM     22  O   UNL     1       1.121  18.631  19.473  0.00  0.00    +0.000 OA
ATOM     23  C   UNL     1      -0.162  17.988  19.539  0.00  0.00    +0.000 C 
ATOM     24  C   UNL     1      -0.214  16.741  18.643  0.00  0.00    +0.000 C 
ENDBRANCH   6  19
BRANCH   1  26
ATOM     25  C   UNL     1       1.725   8.366  19.662  0.00  0.00    +0.000 C 
ATOM     26  C   UNL     1       1.528   9.226  18.430  0.00  0.00    +0.000 C 
ATOM     27  O   UNL     1       2.180   8.995  17.422  0.00  0.00    +0.000 OA
ENDBRANCH   1  26
TORSDOF 3
ENDMDL
MODEL 7
REMARK VINA RESULT:      -6.6      5.828     10.441
REMARK  Name = 
REMARK  4 active torsions:
REMARK  status: ('A' for Active; 'I' for Inactive)
REMARK    1  A    between atoms: C_1  and  C_2
REMARK    2  A    between atoms: C_2  and  C_4
REMARK    3  A    between atoms: C_6  and  C_7
REMARK    4  A    between atoms: C_18  and  N_19
REMARK                            x       y       z     vdW  Elec       q    Type
REMARK                         _______ _______ _______ _____ _____    ______ ____
ROOT
ATOM      1  C   UNL     1       0.360  10.193  18.970  0.00  0.00    +0.000 A 
ATOM      2  C   UNL     1      -1.018  10.085  18.964  0.00  0.00    +0.000 A 
ATOM      3  C   UNL     1      -1.575  11.372  18.808  0.00  0.00    +0.000 A 
ATOM      4  C   UNL     1      -0.525  12.265  18.766  0.00  0.00    +0.000 A 
ATOM      5  C   UNL     1      -0.435  13.693  18.712  0.00  0.00    +0.000 A 
ATOM      6  C   UNL     1       0.758  14.328  18.669  0.00  0.00    +0.000 A 
ATOM      7  C   UNL     1       1.975  13.517  18.651  0.00  0.00    +0.000 A 
ATOM      8  C   UNL     1       1.907  12.183  18.715  0.00  0.00    +0.000 A 
ATOM      9  N   UNL     1       0.668  11.543  18.811  0.00  0.00    +0.000 N 
ENDROOT
BRANCH   3  10
ATOM     10  C   UNL     1      -3.030  11.716  18.733  0.00  0.00    +0.000 A 
ATOM     11  N   UNL     1      -3.656  12.324  19.716  0.00  0.00    +0.000 NA
ATOM     12  C   UNL     1      -4.957  12.601  19.350  0.00  0.00    +0.000 A 
ATOM     13  C   UNL     1      -5.889  13.342  20.103  0.00  0.00    +0.000 A 
ATOM     14  C   UNL     1      -7.187  13.525  19.615  0.00  0.00    +0.000 A 
ATOM     15  C   UNL     1      -7.571  12.961  18.403  0.00  0.00    +0.000 A 
ATOM     16  C   UNL     1      -6.658  12.237  17.630  0.00  0.00    +0.000 A 
ATOM     17  C   UNL     1      -5.350  12.096  18.112  0.00  0.00    +0.000 A 
ATOM     18  S   UNL     1      -3.994  11.357  17.358  0.00  0.00    +0.000 S 
ENDBRANCH   3  10
BRANCH   6  19
ATOM     19  N   UNL     1       0.923  15.712  18.693  0.00  0.00    +0.000 N 
ATOM     20  C   UNL     1       0.269  16.528  19.744  0.00  0.00    +0.000 C 
ATOM     21  C   UNL     1       0.041  17.957  19.233  0.00  0.00    +0.000 C 
ATOM     22  O   UNL     1       1.267  18.568  18.798  0.00  0.00    +0.000 OA
ATOM     23  C   UNL     1       1.857  17.788  17.746  0.00  0.00    +0.000 C 
ATOM     24  C   UNL     1       2.166  16.357  18.212  0.00  0.00    +0.000 C 
ENDBRANCH   6  19
BRANCH   1  26
ATOM     25  C   UNL     1       2.022   8.670  17.804  0.00  0.00    +0.000 C 
ATOM     26  C   UNL     1       1.321   9.101  19.077  0.00  0.00    +0.000 C 
ATOM     27  O   UNL     1       1.600   8.556  20.134  0.00  0.00    +0.000 OA
ENDBRANCH   1  26
TORSDOF 3
ENDMDL
MODEL 8
REMARK VINA RESULT:      -6.6      5.762     10.497
REMARK  Name = 
REMARK  4 active torsions:
REMARK  status: ('A' for Active; 'I' for Inactive)
REMARK    1  A    between atoms: C_1  and  C_2
REMARK    2  A    between atoms: C_2  and  C_4
REMARK    3  A    between atoms: C_6  and  C_7
REMARK    4  A    between atoms: C_18  and  N_19
REMARK                            x       y       z     vdW  Elec       q    Type
REMARK                         _______ _______ _______ _____ _____    ______ ____
ROOT
ATOM      1  C   UNL     1       1.019  10.326  19.128  0.00  0.00    +0.000 A 
ATOM      2  C   UNL     1      -0.094  10.244  19.943  0.00  0.00    +0.000 A 
ATOM      3  C   UNL     1      -0.422  11.539  20.397  0.00  0.00    +0.000 A 
ATOM      4  C   UNL     1       0.529  12.399  19.889  0.00  0.00    +0.000 A 
ATOM      5  C   UNL     1       0.798  13.795  20.055  0.00  0.00    +0.000 A 
ATOM      6  C   UNL     1       1.820  14.403  19.412  0.00  0.00    +0.000 A 
ATOM      7  C   UNL     1       2.645  13.602  18.508  0.00  0.00    +0.000 A 
ATOM      8  C   UNL     1       2.415  12.293  18.354  0.00  0.00    +0.000 A 
ATOM      9  N   UNL     1       1.386  11.669  19.065  0.00  0.00    +0.000 N 
ENDROOT
BRANCH   3  10
ATOM     10  C   UNL     1      -1.565  11.914  21.289  0.00  0.00    +0.000 A 
ATOM     11  N   UNL     1      -2.665  12.462  20.822  0.00  0.00    +0.000 NA
ATOM     12  C   UNL     1      -3.585  12.619  21.838  0.00  0.00    +0.000 A 
ATOM     13  C   UNL     1      -4.912  13.066  21.692  0.00  0.00    +0.000 A 
ATOM     14  C   UNL     1      -5.729  13.198  22.819  0.00  0.00    +0.000 A 
ATOM     15  C   UNL     1      -5.232  12.913  24.087  0.00  0.00    +0.000 A 
ATOM     16  C   UNL     1      -3.924  12.450  24.255  0.00  0.00    +0.000 A 
ATOM     17  C   UNL     1      -3.130  12.283  23.112  0.00  0.00    +0.000 A 
ATOM     18  S   UNL     1      -1.538  11.648  22.985  0.00  0.00    +0.000 S 
ENDBRANCH   3  10
BRANCH   6  19
ATOM     19  N   UNL     1       2.187  15.737  19.584  0.00  0.00    +0.000 N 
ATOM     20  C   UNL     1       3.614  16.135  19.535  0.00  0.00    +0.000 C 
ATOM     21  C   UNL     1       3.831  17.416  20.353  0.00  0.00    +0.000 C 
ATOM     22  O   UNL     1       2.984  18.485  19.900  0.00  0.00    +0.000 OA
ATOM     23  C   UNL     1       1.604  18.096  20.004  0.00  0.00    +0.000 C 
ATOM     24  C   UNL     1       1.307  16.849  19.158  0.00  0.00    +0.000 C 
ENDBRANCH   6  19
BRANCH   1  26
ATOM     25  C   UNL     1       2.019   7.996  19.239  0.00  0.00    +0.000 C 
ATOM     26  C   UNL     1       1.669   9.226  18.425  0.00  0.00    +0.000 C 
ATOM     27  O   UNL     1       1.906   9.243  17.227  0.00  0.00    +0.000 OA
ENDBRANCH   1  26
TORSDOF 3
ENDMDL
MODEL 9
REMARK VINA RESULT:      -6.6      5.507     10.236
REMARK  Name = 
REMARK  4 active torsions:
REMARK  status: ('A' for Active; 'I' for Inactive)
REMARK    1  A    between atoms: C_1  and  C_2
REMARK    2  A    between atoms: C_2  and  C_4
REMARK    3  A    between atoms: C_6  and  C_7
REMARK    4  A    between atoms: C_18  and  N_19
REMARK                            x       y       z     vdW  Elec       q    Type
REMARK                         _______ _______ _______ _____ _____    ______ ____
ROOT
ATOM      1  C   UNL     1       1.040   9.727  19.613  0.00  0.00    +0.000 A 
ATOM      2  C   UNL     1      -0.024   9.806  20.492  0.00  0.00    +0.000 A 
ATOM      3  C   UNL     1      -0.432  11.154  20.593  0.00  0.00    +0.000 A 
ATOM      4  C   UNL     1       0.422  11.895  19.805  0.00  0.00    +0.000 A 
ATOM      5  C   UNL     1       0.586  13.296  19.562  0.00  0.00    +0.000 A 
ATOM      6  C   UNL     1       1.525  13.764  18.710  0.00  0.00    +0.000 A 
ATOM      7  C   UNL     1       2.369  12.796  18.008  0.00  0.00    +0.000 A 
ATOM      8  C   UNL     1       2.236  11.484  18.236  0.00  0.00    +0.000 A 
ATOM      9  N   UNL     1       1.295  11.020  19.159  0.00  0.00    +0.000 N 
ENDROOT
BRANCH   3  10
ATOM     10  C   UNL     1      -1.559  11.689  21.422  0.00  0.00    +0.000 A 
ATOM     11  N   UNL     1      -2.571  12.337  20.889  0.00  0.00    +0.000 NA
ATOM     12  C   UNL     1      -3.506  12.636  21.859  0.00  0.00    +0.000 A 
ATOM     13  C   UNL     1      -4.768  13.222  21.641  0.00  0.00    +0.000 A 
ATOM     14  C   UNL     1      -5.606  13.490  22.727  0.00  0.00    +0.000 A 
ATOM     15  C   UNL     1      -5.194  13.203  24.025  0.00  0.00    +0.000 A 
ATOM     16  C   UNL     1      -3.953  12.604  24.265  0.00  0.00    +0.000 A 
ATOM     17  C   UNL     1      -3.140  12.304  23.163  0.00  0.00    +0.000 A 
ATOM     18  S   UNL     1      -1.626  11.491  23.126  0.00  0.00    +0.000 S 
ENDBRANCH   3  10
BRANCH   6  19
ATOM     19  N   UNL     1       1.792  15.114  18.483  0.00  0.00    +0.000 N 
ATOM     20  C   UNL     1       1.070  16.160  19.245  0.00  0.00    +0.000 C 
ATOM     21  C   UNL     1       1.022  17.462  18.433  0.00  0.00    +0.000 C 
ATOM     22  O   UNL     1       2.339  17.909  18.068  0.00  0.00    +0.000 OA
ATOM     23  C   UNL     1       3.001  16.901  17.288  0.00  0.00    +0.000 C 
ATOM     24  C   UNL     1       3.134  15.584  18.068  0.00  0.00    +0.000 C 
ENDBRANCH   6  19
BRANCH   1  26
ATOM     25  C   UNL     1       2.026   8.357  17.719  0.00  0.00    +0.000 C 
ATOM     26  C   UNL     1       1.742   8.518  19.199  0.00  0.00    +0.000 C 
ATOM     27  O   UNL     1       2.130   7.667  19.984  0.00  0.00    +0.000 OA
ENDBRANCH   1  26
TORSDOF 3
ENDMDL
