MODEL 1
REMARK VINA RESULT:      -8.0      0.000      0.000
REMARK  Name = 
REMARK  4 active torsions:
REMARK  status: ('A' for Active; 'I' for Inactive)
REMARK    1  A    between atoms: C_1  and  C_2
REMARK    2  A    between atoms: C_2  and  N_3
REMARK    3  A    between atoms: C_2  and  C_18
REMARK    4  A    between atoms: N_8  and  C_9
REMARK                            x       y       z     vdW  Elec       q    Type
REMARK                         _______ _______ _______ _____ _____    ______ ____
ROOT
ATOM      1  N   UNL     1       4.765   5.531  17.418  0.00  0.00    +0.000 N 
ATOM      2  C   UNL     1       4.744   6.768  16.852  0.00  0.00    +0.000 C 
ATOM      3  O   UNL     1       4.675   7.857  17.382  0.00  0.00    +0.000 OA
ATOM      4  C   UNL     1       5.004   6.553  15.356  0.00  0.00    +0.000 C 
ATOM      5  O   UNL     1       4.866   7.423  14.520  0.00  0.00    +0.000 OA
ATOM      6  N   UNL     1       5.358   5.250  15.249  0.00  0.00    +0.000 N 
ATOM      7  C   UNL     1       5.408   4.708  16.521  0.00  0.00    +0.000 C 
ATOM      8  O   UNL     1       6.112   3.761  16.845  0.00  0.00    +0.000 OA
ENDROOT
BRANCH   6   9
ATOM      9  C   UNL     1       5.826   4.590  14.084  0.00  0.00    +0.000 A 
ATOM     10  C   UNL     1       5.012   3.691  13.378  0.00  0.00    +0.000 A 
ATOM     11  C   UNL     1       5.466   3.090  12.197  0.00  0.00    +0.000 A 
ATOM     12  C   UNL     1       6.746   3.356  11.715  0.00  0.00    +0.000 A 
ATOM     13  C   UNL     1       7.582   4.212  12.426  0.00  0.00    +0.000 A 
ATOM     14  C   UNL     1       7.124   4.813  13.596  0.00  0.00    +0.000 A 
ATOM     15  F   UNL     1       8.000   5.551  14.295  0.00  0.00    +0.000 F 
ENDBRANCH   6   9
BRANCH   1  17
ATOM     16  C   UNL     1       6.071   5.006  19.452  0.00  0.00    +0.000 C 
ATOM     17  C   UNL     1       4.681   5.329  18.876  0.00  0.00    +0.000 C 
BRANCH  17  18
ATOM     18  C   UNL     1       3.540   4.340  19.345  0.00  0.00    +0.000 C 
ATOM     19  C   UNL     1       2.826   4.906  20.614  0.00  0.00    +0.000 C 
ATOM     20  C   UNL     1       1.696   3.977  21.093  0.00  0.00    +0.000 C 
ATOM     21  C   UNL     1       0.648   3.823  19.983  0.00  0.00    +0.000 C 
ATOM     22  C   UNL     1       1.309   3.249  18.721  0.00  0.00    +0.000 C 
ATOM     23  C   UNL     1       1.899   1.868  19.051  0.00  0.00    +0.000 C 
ATOM     24  C   UNL     1       2.938   1.999  20.175  0.00  0.00    +0.000 C 
ATOM     25  C   UNL     1       2.287   2.600  21.426  0.00  0.00    +0.000 C 
ATOM     26  C   UNL     1       4.063   2.924  19.692  0.00  0.00    +0.000 C 
ATOM     27  C   UNL     1       2.436   4.194  18.252  0.00  0.00    +0.000 C 
ENDBRANCH  17  18
ENDBRANCH   1  17
TORSDOF 3
ENDMDL
MODEL 2
REMARK VINA RESULT:      -8.0      0.047      1.447
REMARK  Name = 
REMARK  4 active torsions:
REMARK  status: ('A' for Active; 'I' for Inactive)
REMARK    1  A    between atoms: C_1  and  C_2
REMARK    2  A    between atoms: C_2  and  N_3
REMARK    3  A    between atoms: C_2  and  C_18
REMARK    4  A    between atoms: N_8  and  C_9
REMARK                            x       y       z     vdW  Elec       q    Type
REMARK                         _______ _______ _______ _____ _____    ______ ____
ROOT
ATOM      1  N   UNL     1       4.755   5.525  17.392  0.00  0.00    +0.000 N 
ATOM      2  C   UNL     1       4.758   6.763  16.830  0.00  0.00    +0.000 C 
ATOM      3  O   UNL     1       4.708   7.852  17.363  0.00  0.00    +0.000 OA
ATOM      4  C   UNL     1       5.015   6.548  15.334  0.00  0.00    +0.000 C 
ATOM      5  O   UNL     1       4.895   7.423  14.500  0.00  0.00    +0.000 OA
ATOM      6  N   UNL     1       5.345   5.239  15.224  0.00  0.00    +0.000 N 
ATOM      7  C   UNL     1       5.384   4.692  16.493  0.00  0.00    +0.000 C 
ATOM      8  O   UNL     1       6.069   3.732  16.816  0.00  0.00    +0.000 OA
ENDROOT
BRANCH   6   9
ATOM      9  C   UNL     1       5.803   4.574  14.057  0.00  0.00    +0.000 A 
ATOM     10  C   UNL     1       4.980   3.678  13.358  0.00  0.00    +0.000 A 
ATOM     11  C   UNL     1       5.423   3.072  12.175  0.00  0.00    +0.000 A 
ATOM     12  C   UNL     1       6.702   3.330  11.685  0.00  0.00    +0.000 A 
ATOM     13  C   UNL     1       7.547   4.182  12.389  0.00  0.00    +0.000 A 
ATOM     14  C   UNL     1       7.099   4.789  13.560  0.00  0.00    +0.000 A 
ATOM     15  F   UNL     1       7.984   5.524  14.252  0.00  0.00    +0.000 F 
ENDBRANCH   6   9
BRANCH   1  17
ATOM     16  C   UNL     1       6.041   4.934  19.421  0.00  0.00    +0.000 C 
ATOM     17  C   UNL     1       4.665   5.319  18.850  0.00  0.00    +0.000 C 
BRANCH  17  18
ATOM     18  C   UNL     1       3.483   4.379  19.316  0.00  0.00    +0.000 C 
ATOM     19  C   UNL     1       4.035   2.964  19.686  0.00  0.00    +0.000 C 
ATOM     20  C   UNL     1       2.914   2.022  20.160  0.00  0.00    +0.000 C 
ATOM     21  C   UNL     1       2.235   2.612  21.404  0.00  0.00    +0.000 C 
ATOM     22  C   UNL     1       1.661   3.998  21.075  0.00  0.00    +0.000 C 
ATOM     23  C   UNL     1       0.618   3.852  19.953  0.00  0.00    +0.000 C 
ATOM     24  C   UNL     1       1.275   3.245  18.705  0.00  0.00    +0.000 C 
ATOM     25  C   UNL     1       1.876   1.875  19.039  0.00  0.00    +0.000 C 
ATOM     26  C   UNL     1       2.390   4.189  18.234  0.00  0.00    +0.000 C 
ATOM     27  C   UNL     1       2.799   4.931  20.605  0.00  0.00    +0.000 C 
ENDBRANCH  17  18
ENDBRANCH   1  17
TORSDOF 3
ENDMDL
MODEL 3
REMARK VINA RESULT:      -8.0      0.044      1.443
REMARK  Name = 
REMARK  4 active torsions:
REMARK  status: ('A' for Active; 'I' for Inactive)
REMARK    1  A    between atoms: C_1  and  C_2
REMARK    2  A    between atoms: C_2  and  N_3
REMARK    3  A    between atoms: C_2  and  C_18
REMARK    4  A    between atoms: N_8  and  C_9
REMARK                            x       y       z     vdW  Elec       q    Type
REMARK                         _______ _______ _______ _____ _____    ______ ____
ROOT
ATOM      1  N   UNL     1       4.769   5.551  17.433  0.00  0.00    +0.000 N 
ATOM      2  C   UNL     1       4.726   6.784  16.863  0.00  0.00    +0.000 C 
ATOM      3  O   UNL     1       4.643   7.875  17.388  0.00  0.00    +0.000 OA
ATOM      4  C   UNL     1       4.981   6.567  15.366  0.00  0.00    +0.000 C 
ATOM      5  O   UNL     1       4.826   7.432  14.528  0.00  0.00    +0.000 OA
ATOM      6  N   UNL     1       5.354   5.269  15.263  0.00  0.00    +0.000 N 
ATOM      7  C   UNL     1       5.419   4.733  16.536  0.00  0.00    +0.000 C 
ATOM      8  O   UNL     1       6.139   3.799  16.861  0.00  0.00    +0.000 OA
ENDROOT
BRANCH   6   9
ATOM      9  C   UNL     1       5.826   4.612  14.098  0.00  0.00    +0.000 A 
ATOM     10  C   UNL     1       5.019   3.706  13.394  0.00  0.00    +0.000 A 
ATOM     11  C   UNL     1       5.475   3.107  12.213  0.00  0.00    +0.000 A 
ATOM     12  C   UNL     1       6.753   3.382  11.730  0.00  0.00    +0.000 A 
ATOM     13  C   UNL     1       7.584   4.244  12.439  0.00  0.00    +0.000 A 
ATOM     14  C   UNL     1       7.122   4.844  13.609  0.00  0.00    +0.000 A 
ATOM     15  F   UNL     1       7.994   5.588  14.307  0.00  0.00    +0.000 F 
ENDBRANCH   6   9
BRANCH   1  17
ATOM     16  C   UNL     1       6.083   4.999  19.455  0.00  0.00    +0.000 C 
ATOM     17  C   UNL     1       4.695   5.353  18.893  0.00  0.00    +0.000 C 
BRANCH  17  18
ATOM     18  C   UNL     1       3.536   4.393  19.376  0.00  0.00    +0.000 C 
ATOM     19  C   UNL     1       2.459   4.242  18.254  0.00  0.00    +0.000 C 
ATOM     20  C   UNL     1       1.319   3.301  18.681  0.00  0.00    +0.000 C 
ATOM     21  C   UNL     1       1.887   1.909  18.990  0.00  0.00    +0.000 C 
ATOM     22  C   UNL     1       2.937   2.012  20.106  0.00  0.00    +0.000 C 
ATOM     23  C   UNL     1       2.268   2.575  21.371  0.00  0.00    +0.000 C 
ATOM     24  C   UNL     1       1.676   3.962  21.076  0.00  0.00    +0.000 C 
ATOM     25  C   UNL     1       0.649   3.865  19.941  0.00  0.00    +0.000 C 
ATOM     26  C   UNL     1       2.816   4.897  20.652  0.00  0.00    +0.000 C 
ATOM     27  C   UNL     1       4.075   2.956  19.659  0.00  0.00    +0.000 C 
ENDBRANCH  17  18
ENDBRANCH   1  17
TORSDOF 3
ENDMDL
MODEL 4
REMARK VINA RESULT:      -7.3      0.895      1.282
REMARK  Name = 
REMARK  4 active torsions:
REMARK  status: ('A' for Active; 'I' for Inactive)
REMARK    1  A    between atoms: C_1  and  C_2
REMARK    2  A    between atoms: C_2  and  N_3
REMARK    3  A    between atoms: C_2  and  C_18
REMARK    4  A    between atoms: N_8  and  C_9
REMARK                            x       y       z     vdW  Elec       q    Type
REMARK                         _______ _______ _______ _____ _____    ______ ____
ROOT
ATOM      1  N   UNL     1       4.832   5.577  17.474  0.00  0.00    +0.000 N 
ATOM      2  C   UNL     1       4.621   6.805  16.929  0.00  0.00    +0.000 C 
ATOM      3  O   UNL     1       4.356   7.856  17.475  0.00  0.00    +0.000 OA
ATOM      4  C   UNL     1       4.955   6.670  15.438  0.00  0.00    +0.000 C 
ATOM      5  O   UNL     1       4.698   7.523  14.614  0.00  0.00    +0.000 OA
ATOM      6  N   UNL     1       5.524   5.446  15.320  0.00  0.00    +0.000 N 
ATOM      7  C   UNL     1       5.628   4.892  16.583  0.00  0.00    +0.000 C 
ATOM      8  O   UNL     1       6.470   4.068  16.913  0.00  0.00    +0.000 OA
ENDROOT
BRANCH   6   9
ATOM      9  C   UNL     1       6.128   4.899  14.159  0.00  0.00    +0.000 A 
ATOM     10  C   UNL     1       7.371   5.358  13.698  0.00  0.00    +0.000 A 
ATOM     11  C   UNL     1       7.984   4.771  12.584  0.00  0.00    +0.000 A 
ATOM     12  C   UNL     1       7.354   3.736  11.896  0.00  0.00    +0.000 A 
ATOM     13  C   UNL     1       6.101   3.298  12.312  0.00  0.00    +0.000 A 
ATOM     14  C   UNL     1       5.500   3.879  13.426  0.00  0.00    +0.000 A 
ATOM     15  F   UNL     1       4.251   3.489  13.728  0.00  0.00    +0.000 F 
ENDBRANCH   6   9
BRANCH   1  17
ATOM     16  C   UNL     1       6.126   4.974  19.493  0.00  0.00    +0.000 C 
ATOM     17  C   UNL     1       4.742   5.331  18.925  0.00  0.00    +0.000 C 
BRANCH  17  18
ATOM     18  C   UNL     1       3.587   4.342  19.360  0.00  0.00    +0.000 C 
ATOM     19  C   UNL     1       2.824   4.918  20.596  0.00  0.00    +0.000 C 
ATOM     20  C   UNL     1       1.681   3.989  21.042  0.00  0.00    +0.000 C 
ATOM     21  C   UNL     1       0.676   3.819  19.895  0.00  0.00    +0.000 C 
ATOM     22  C   UNL     1       1.386   3.235  18.664  0.00  0.00    +0.000 C 
ATOM     23  C   UNL     1       1.969   1.860  19.031  0.00  0.00    +0.000 C 
ATOM     24  C   UNL     1       2.964   2.007  20.192  0.00  0.00    +0.000 C 
ATOM     25  C   UNL     1       2.264   2.618  21.412  0.00  0.00    +0.000 C 
ATOM     26  C   UNL     1       4.103   2.931  19.742  0.00  0.00    +0.000 C 
ATOM     27  C   UNL     1       2.526   4.180  18.228  0.00  0.00    +0.000 C 
ENDBRANCH  17  18
ENDBRANCH   1  17
TORSDOF 3
ENDMDL
MODEL 5
REMARK VINA RESULT:      -7.2      0.897      1.922
REMARK  Name = 
REMARK  4 active torsions:
REMARK  status: ('A' for Active; 'I' for Inactive)
REMARK    1  A    between atoms: C_1  and  C_2
REMARK    2  A    between atoms: C_2  and  N_3
REMARK    3  A    between atoms: C_2  and  C_18
REMARK    4  A    between atoms: N_8  and  C_9
REMARK                            x       y       z     vdW  Elec       q    Type
REMARK                         _______ _______ _______ _____ _____    ______ ____
ROOT
ATOM      1  N   UNL     1       4.824   5.569  17.484  0.00  0.00    +0.000 N 
ATOM      2  C   UNL     1       4.606   6.798  16.944  0.00  0.00    +0.000 C 
ATOM      3  O   UNL     1       4.332   7.845  17.495  0.00  0.00    +0.000 OA
ATOM      4  C   UNL     1       4.946   6.673  15.454  0.00  0.00    +0.000 C 
ATOM      5  O   UNL     1       4.686   7.529  14.633  0.00  0.00    +0.000 OA
ATOM      6  N   UNL     1       5.524   5.454  15.333  0.00  0.00    +0.000 N 
ATOM      7  C   UNL     1       5.628   4.894  16.593  0.00  0.00    +0.000 C 
ATOM      8  O   UNL     1       6.474   4.075  16.922  0.00  0.00    +0.000 OA
ENDROOT
BRANCH   6   9
ATOM      9  C   UNL     1       6.137   4.918  14.171  0.00  0.00    +0.000 A 
ATOM     10  C   UNL     1       7.382   5.381  13.722  0.00  0.00    +0.000 A 
ATOM     11  C   UNL     1       8.003   4.804  12.607  0.00  0.00    +0.000 A 
ATOM     12  C   UNL     1       7.379   3.774  11.906  0.00  0.00    +0.000 A 
ATOM     13  C   UNL     1       6.124   3.331  12.311  0.00  0.00    +0.000 A 
ATOM     14  C   UNL     1       5.514   3.902  13.425  0.00  0.00    +0.000 A 
ATOM     15  F   UNL     1       4.264   3.509  13.716  0.00  0.00    +0.000 F 
ENDBRANCH   6   9
BRANCH   1  17
ATOM     16  C   UNL     1       6.102   4.904  19.494  0.00  0.00    +0.000 C 
ATOM     17  C   UNL     1       4.729   5.315  18.933  0.00  0.00    +0.000 C 
BRANCH  17  18
ATOM     18  C   UNL     1       3.542   4.365  19.366  0.00  0.00    +0.000 C 
ATOM     19  C   UNL     1       4.095   2.962  19.773  0.00  0.00    +0.000 C 
ATOM     20  C   UNL     1       2.968   2.012  20.215  0.00  0.00    +0.000 C 
ATOM     21  C   UNL     1       2.235   2.608  21.425  0.00  0.00    +0.000 C 
ATOM     22  C   UNL     1       1.657   3.983  21.057  0.00  0.00    +0.000 C 
ATOM     23  C   UNL     1       0.661   3.810  19.898  0.00  0.00    +0.000 C 
ATOM     24  C   UNL     1       1.373   3.197  18.683  0.00  0.00    +0.000 C 
ATOM     25  C   UNL     1       1.976   1.838  19.057  0.00  0.00    +0.000 C 
ATOM     26  C   UNL     1       2.493   4.149  18.245  0.00  0.00    +0.000 C 
ATOM     27  C   UNL     1       2.801   4.924  20.620  0.00  0.00    +0.000 C 
ENDBRANCH  17  18
ENDBRANCH   1  17
TORSDOF 3
ENDMDL
MODEL 6
REMARK VINA RESULT:      -7.2      0.899      1.947
REMARK  Name = 
REMARK  4 active torsions:
REMARK  status: ('A' for Active; 'I' for Inactive)
REMARK    1  A    between atoms: C_1  and  C_2
REMARK    2  A    between atoms: C_2  and  N_3
REMARK    3  A    between atoms: C_2  and  C_18
REMARK    4  A    between atoms: N_8  and  C_9
REMARK                            x       y       z     vdW  Elec       q    Type
REMARK                         _______ _______ _______ _____ _____    ______ ____
ROOT
ATOM      1  N   UNL     1       4.846   5.586  17.510  0.00  0.00    +0.000 N 
ATOM      2  C   UNL     1       4.615   6.809  16.963  0.00  0.00    +0.000 C 
ATOM      3  O   UNL     1       4.337   7.857  17.507  0.00  0.00    +0.000 OA
ATOM      4  C   UNL     1       4.944   6.675  15.471  0.00  0.00    +0.000 C 
ATOM      5  O   UNL     1       4.671   7.522  14.645  0.00  0.00    +0.000 OA
ATOM      6  N   UNL     1       5.530   5.459  15.354  0.00  0.00    +0.000 N 
ATOM      7  C   UNL     1       5.648   4.910  16.618  0.00  0.00    +0.000 C 
ATOM      8  O   UNL     1       6.503   4.099  16.946  0.00  0.00    +0.000 OA
ENDROOT
BRANCH   6   9
ATOM      9  C   UNL     1       6.138   4.918  14.191  0.00  0.00    +0.000 A 
ATOM     10  C   UNL     1       7.383   5.377  13.738  0.00  0.00    +0.000 A 
ATOM     11  C   UNL     1       7.999   4.796  12.622  0.00  0.00    +0.000 A 
ATOM     12  C   UNL     1       7.370   3.766  11.926  0.00  0.00    +0.000 A 
ATOM     13  C   UNL     1       6.115   3.327  12.335  0.00  0.00    +0.000 A 
ATOM     14  C   UNL     1       5.510   3.903  13.450  0.00  0.00    +0.000 A 
ATOM     15  F   UNL     1       4.260   3.514  13.745  0.00  0.00    +0.000 F 
ENDBRANCH   6   9
BRANCH   1  17
ATOM     16  C   UNL     1       6.148   4.958  19.517  0.00  0.00    +0.000 C 
ATOM     17  C   UNL     1       4.765   5.342  18.962  0.00  0.00    +0.000 C 
BRANCH  17  18
ATOM     18  C   UNL     1       3.596   4.377  19.410  0.00  0.00    +0.000 C 
ATOM     19  C   UNL     1       2.577   4.187  18.240  0.00  0.00    +0.000 C 
ATOM     20  C   UNL     1       1.429   3.240  18.633  0.00  0.00    +0.000 C 
ATOM     21  C   UNL     1       1.998   1.864  19.000  0.00  0.00    +0.000 C 
ATOM     22  C   UNL     1       2.992   2.005  20.163  0.00  0.00    +0.000 C 
ATOM     23  C   UNL     1       2.255   2.586  21.381  0.00  0.00    +0.000 C 
ATOM     24  C   UNL     1       1.661   3.958  21.027  0.00  0.00    +0.000 C 
ATOM     25  C   UNL     1       0.691   3.823  19.847  0.00  0.00    +0.000 C 
ATOM     26  C   UNL     1       2.809   4.899  20.638  0.00  0.00    +0.000 C 
ATOM     27  C   UNL     1       4.138   2.954  19.751  0.00  0.00    +0.000 C 
ENDBRANCH  17  18
ENDBRANCH   1  17
TORSDOF 3
ENDMDL
MODEL 7
REMARK VINA RESULT:      -6.9      4.949      7.108
REMARK  Name = 
REMARK  4 active torsions:
REMARK  status: ('A' for Active; 'I' for Inactive)
REMARK    1  A    between atoms: C_1  and  C_2
REMARK    2  A    between atoms: C_2  and  N_3
REMARK    3  A    between atoms: C_2  and  C_18
REMARK    4  A    between atoms: N_8  and  C_9
REMARK                            x       y       z     vdW  Elec       q    Type
REMARK                         _______ _______ _______ _____ _____    ______ ____
ROOT
ATOM      1  N   UNL     1       1.921   7.636  19.436  0.00  0.00    +0.000 N 
ATOM      2  C   UNL     1       1.642   8.052  20.700  0.00  0.00    +0.000 C 
ATOM      3  O   UNL     1       2.191   7.769  21.745  0.00  0.00    +0.000 OA
ATOM      4  C   UNL     1       0.559   9.129  20.561  0.00  0.00    +0.000 C 
ATOM      5  O   UNL     1      -0.060   9.582  21.503  0.00  0.00    +0.000 OA
ATOM      6  N   UNL     1       0.481   9.373  19.231  0.00  0.00    +0.000 N 
ATOM      7  C   UNL     1       1.449   8.618  18.593  0.00  0.00    +0.000 C 
ATOM      8  O   UNL     1       1.973   8.915  17.529  0.00  0.00    +0.000 OA
ENDROOT
BRANCH   6   9
ATOM      9  C   UNL     1      -0.283  10.386  18.597  0.00  0.00    +0.000 A 
ATOM     10  C   UNL     1      -1.381  10.070  17.783  0.00  0.00    +0.000 A 
ATOM     11  C   UNL     1      -2.162  11.081  17.209  0.00  0.00    +0.000 A 
ATOM     12  C   UNL     1      -1.845  12.422  17.417  0.00  0.00    +0.000 A 
ATOM     13  C   UNL     1      -0.734  12.754  18.186  0.00  0.00    +0.000 A 
ATOM     14  C   UNL     1       0.035  11.745  18.761  0.00  0.00    +0.000 A 
ATOM     15  F   UNL     1       1.151  12.112  19.411  0.00  0.00    +0.000 F 
ENDBRANCH   6   9
BRANCH   1  17
ATOM     16  C   UNL     1       3.672   7.038  17.794  0.00  0.00    +0.000 C 
ATOM     17  C   UNL     1       3.012   6.689  19.140  0.00  0.00    +0.000 C 
BRANCH  17  18
ATOM     18  C   UNL     1       2.629   5.164  19.297  0.00  0.00    +0.000 C 
ATOM     19  C   UNL     1       2.049   4.613  17.954  0.00  0.00    +0.000 C 
ATOM     20  C   UNL     1       1.677   3.124  18.063  0.00  0.00    +0.000 C 
ATOM     21  C   UNL     1       2.924   2.304  18.419  0.00  0.00    +0.000 C 
ATOM     22  C   UNL     1       3.514   2.803  19.747  0.00  0.00    +0.000 C 
ATOM     23  C   UNL     1       2.463   2.627  20.856  0.00  0.00    +0.000 C 
ATOM     24  C   UNL     1       1.198   3.426  20.508  0.00  0.00    +0.000 C 
ATOM     25  C   UNL     1       0.625   2.949  19.168  0.00  0.00    +0.000 C 
ATOM     26  C   UNL     1       1.573   4.910  20.403  0.00  0.00    +0.000 C 
ATOM     27  C   UNL     1       3.885   4.296  19.618  0.00  0.00    +0.000 C 
ENDBRANCH  17  18
ENDBRANCH   1  17
TORSDOF 3
ENDMDL
MODEL 8
REMARK VINA RESULT:      -6.9      4.890      7.221
REMARK  Name = 
REMARK  4 active torsions:
REMARK  status: ('A' for Active; 'I' for Inactive)
REMARK    1  A    between atoms: C_1  and  C_2
REMARK    2  A    between atoms: C_2  and  N_3
REMARK    3  A    between atoms: C_2  and  C_18
REMARK    4  A    between atoms: N_8  and  C_9
REMARK                            x       y       z     vdW  Elec       q    Type
REMARK                         _______ _______ _______ _____ _____    ______ ____
ROOT
ATOM      1  N   UNL     1       2.065   7.546  19.293  0.00  0.00    +0.000 N 
ATOM      2  C   UNL     1       1.735   7.716  20.601  0.00  0.00    +0.000 C 
ATOM      3  O   UNL     1       2.150   7.135  21.583  0.00  0.00    +0.000 OA
ATOM      4  C   UNL     1       0.822   8.946  20.651  0.00  0.00    +0.000 C 
ATOM      5  O   UNL     1       0.190   9.273  21.636  0.00  0.00    +0.000 OA
ATOM      6  N   UNL     1       0.892   9.480  19.408  0.00  0.00    +0.000 N 
ATOM      7  C   UNL     1       1.802   8.745  18.670  0.00  0.00    +0.000 C 
ATOM      8  O   UNL     1       2.450   9.184  17.730  0.00  0.00    +0.000 OA
ENDROOT
BRANCH   6   9
ATOM      9  C   UNL     1       0.327  10.709  18.979  0.00  0.00    +0.000 A 
ATOM     10  C   UNL     1       1.019  11.921  19.125  0.00  0.00    +0.000 A 
ATOM     11  C   UNL     1       0.475  13.119  18.646  0.00  0.00    +0.000 A 
ATOM     12  C   UNL     1      -0.778  13.132  18.038  0.00  0.00    +0.000 A 
ATOM     13  C   UNL     1      -1.497  11.947  17.923  0.00  0.00    +0.000 A 
ATOM     14  C   UNL     1      -0.949  10.756  18.394  0.00  0.00    +0.000 A 
ATOM     15  F   UNL     1      -1.721   9.659  18.349  0.00  0.00    +0.000 F 
ENDBRANCH   6   9
BRANCH   1  17
ATOM     16  C   UNL     1       3.498   6.826  17.410  0.00  0.00    +0.000 C 
ATOM     17  C   UNL     1       3.041   6.533  18.850  0.00  0.00    +0.000 C 
BRANCH  17  18
ATOM     18  C   UNL     1       2.604   5.034  19.099  0.00  0.00    +0.000 C 
ATOM     19  C   UNL     1       2.448   4.285  17.737  0.00  0.00    +0.000 C 
ATOM     20  C   UNL     1       2.036   2.816  17.939  0.00  0.00    +0.000 C 
ATOM     21  C   UNL     1       3.106   2.090  18.765  0.00  0.00    +0.000 C 
ATOM     22  C   UNL     1       3.275   2.785  20.125  0.00  0.00    +0.000 C 
ATOM     23  C   UNL     1       1.936   2.737  20.879  0.00  0.00    +0.000 C 
ATOM     24  C   UNL     1       0.847   3.444  20.058  0.00  0.00    +0.000 C 
ATOM     25  C   UNL     1       0.698   2.769  18.690  0.00  0.00    +0.000 C 
ATOM     26  C   UNL     1       1.260   4.909  19.861  0.00  0.00    +0.000 C 
ATOM     27  C   UNL     1       3.691   4.256  19.903  0.00  0.00    +0.000 C 
ENDBRANCH  17  18
ENDBRANCH   1  17
TORSDOF 3
ENDMDL
MODEL 9
REMARK VINA RESULT:      -6.8      4.953      6.945
REMARK  Name = 
REMARK  4 active torsions:
REMARK  status: ('A' for Active; 'I' for Inactive)
REMARK    1  A    between atoms: C_1  and  C_2
REMARK    2  A    between atoms: C_2  and  N_3
REMARK    3  A    between atoms: C_2  and  C_18
REMARK    4  A    between atoms: N_8  and  C_9
REMARK                            x       y       z     vdW  Elec       q    Type
REMARK                         _______ _______ _______ _____ _____    ______ ____
ROOT
ATOM      1  N   UNL     1       1.913   7.635  19.438  0.00  0.00    +0.000 N 
ATOM      2  C   UNL     1       1.627   8.077  20.692  0.00  0.00    +0.000 C 
ATOM      3  O   UNL     1       2.188   7.837  21.741  0.00  0.00    +0.000 OA
ATOM      4  C   UNL     1       0.514   9.120  20.529  0.00  0.00    +0.000 C 
ATOM      5  O   UNL     1      -0.113   9.581  21.461  0.00  0.00    +0.000 OA
ATOM      6  N   UNL     1       0.425   9.325  19.193  0.00  0.00    +0.000 N 
ATOM      7  C   UNL     1       1.410   8.580  18.572  0.00  0.00    +0.000 C 
ATOM      8  O   UNL     1       1.922   8.863  17.498  0.00  0.00    +0.000 OA
ENDROOT
BRANCH   6   9
ATOM      9  C   UNL     1      -0.369  10.300  18.536  0.00  0.00    +0.000 A 
ATOM     10  C   UNL     1      -1.446   9.931  17.715  0.00  0.00    +0.000 A 
ATOM     11  C   UNL     1      -2.257  10.903  17.118  0.00  0.00    +0.000 A 
ATOM     12  C   UNL     1      -1.993  12.258  17.308  0.00  0.00    +0.000 A 
ATOM     13  C   UNL     1      -0.904  12.642  18.084  0.00  0.00    +0.000 A 
ATOM     14  C   UNL     1      -0.104  11.671  18.683  0.00  0.00    +0.000 A 
ATOM     15  F   UNL     1       0.990  12.090  19.339  0.00  0.00    +0.000 F 
ENDBRANCH   6   9
BRANCH   1  17
ATOM     16  C   UNL     1       3.722   7.089  17.842  0.00  0.00    +0.000 C 
ATOM     17  C   UNL     1       3.028   6.710  19.162  0.00  0.00    +0.000 C 
BRANCH  17  18
ATOM     18  C   UNL     1       2.666   5.176  19.287  0.00  0.00    +0.000 C 
ATOM     19  C   UNL     1       1.661   4.955  20.463  0.00  0.00    +0.000 C 
ATOM     20  C   UNL     1       1.273   3.473  20.608  0.00  0.00    +0.000 C 
ATOM     21  C   UNL     1       0.610   2.984  19.313  0.00  0.00    +0.000 C 
ATOM     22  C   UNL     1       1.577   3.167  18.133  0.00  0.00    +0.000 C 
ATOM     23  C   UNL     1       2.846   2.337  18.395  0.00  0.00    +0.000 C 
ATOM     24  C   UNL     1       3.513   2.800  19.699  0.00  0.00    +0.000 C 
ATOM     25  C   UNL     1       2.538   2.646  20.872  0.00  0.00    +0.000 C 
ATOM     26  C   UNL     1       3.901   4.277  19.549  0.00  0.00    +0.000 C 
ATOM     27  C   UNL     1       1.953   4.659  18.000  0.00  0.00    +0.000 C 
ENDBRANCH  17  18
ENDBRANCH   1  17
TORSDOF 3
ENDMDL
