MODEL 1
REMARK VINA RESULT:      -7.9      0.000      0.000
REMARK  Name = 
REMARK  12 active torsions:
REMARK  status: ('A' for Active; 'I' for Inactive)
REMARK    1  A    between atoms: CG1_1  and  CB_2
REMARK    2  A    between atoms: CB_2  and  CG2_3
REMARK    3  A    between atoms: CB_2  and  CA_4
REMARK    4  A    between atoms: CA_4  and  C_5
REMARK    5  A    between atoms: CA_4  and  N_7
REMARK    6  A    between atoms: C_5  and  O_6
REMARK    7  A    between atoms: N_11  and  C_12
REMARK    8  A    between atoms: C_12  and  C_13
REMARK    9  A    between atoms: C_17  and  O_18
REMARK   10  A    between atoms: N_23  and  C_24
REMARK   11  A    between atoms: C_24  and  C_25
REMARK   12  A    between atoms: C_24  and  C_26
REMARK                            x       y       z     vdW  Elec       q    Type
REMARK                         _______ _______ _______ _____ _____    ______ ____
ROOT
ATOM      1  N   VAL A   1       2.565   8.725  18.249  0.00  0.00    +0.000 N 
ATOM      2  C   UNK A   0       3.016   7.428  18.040  0.00  0.00    +0.000 A 
ATOM      3  N   UNK A   0       4.092   7.360  17.242  0.00  0.00    +0.000 NA
ATOM      4  C   UNK A   0       4.670   6.170  16.961  0.00  0.00    +0.000 A 
ATOM      5  N   UNK A   0       5.767   6.216  16.122  0.00  0.00    +0.000 N 
ATOM      6  C   UNK A   0       4.124   5.020  17.554  0.00  0.00    +0.000 A 
ATOM      7  N   UNK A   0       4.462   3.683  17.471  0.00  0.00    +0.000 NA
ATOM      8  C   UNK A   0       3.584   3.069  18.226  0.00  0.00    +0.000 A 
ATOM      9  N   UNK A   0       2.697   3.948  18.805  0.00  0.00    +0.000 N 
ATOM     10  C   UNK A   0       3.015   5.211  18.366  0.00  0.00    +0.000 A 
ATOM     11  N   UNK A   0       2.418   6.383  18.650  0.00  0.00    +0.000 NA
ATOM     12  H   VAL A   1       3.348   9.242  18.629  0.00  0.00    +0.000 HD
ATOM     13  H   UNK A   0       5.549   6.700  15.257  0.00  0.00    +0.000 HD
ENDROOT
BRANCH   9  14
ATOM     14  C   UNK A   0       1.632   3.563  19.710  0.00  0.00    +0.000 C 
ATOM     15  C   UNK A   0       0.683   2.543  19.084  0.00  0.00    +0.000 C 
ATOM     16  C   UNK A   0       2.156   3.104  21.068  0.00  0.00    +0.000 C 
ENDBRANCH   9  14
BRANCH   1  17
ATOM     17  CA  VAL A   1       1.238   8.960  18.808  0.00  0.00    +0.000 C 
BRANCH  17  19
ATOM     18  CG1 VAL A   1       0.794  10.677  20.671  0.00  0.00    +0.000 C 
ATOM     19  CB  VAL A   1       1.371   9.296  20.333  0.00  0.00    +0.000 C 
ATOM     20  CG2 VAL A   1       0.686   8.262  21.239  0.00  0.00    +0.000 C 
ENDBRANCH  17  19
BRANCH  17  21
ATOM     21  C   VAL A   1       0.566  10.129  18.012  0.00  0.00    +0.000 C 
BRANCH  21  22
ATOM     22  O   VAL A   1      -0.700   9.803  17.433  0.00  0.00    +0.000 OA
ATOM     23  H   VAL A   1      -1.033  10.573  16.948  0.00  0.00    +0.000 HD
ENDBRANCH  21  22
ENDBRANCH  17  21
ENDBRANCH   1  17
BRANCH   5  24
ATOM     24  C   UNK A   0       6.667   5.089  16.025  0.00  0.00    +0.000 C 
BRANCH  24  25
ATOM     25  C   UNK A   0       6.831   4.766  14.556  0.00  0.00    +0.000 A 
ATOM     26  C   UNK A   0       7.724   5.517  13.769  0.00  0.00    +0.000 A 
ATOM     27  C   UNK A   0       7.865   5.260  12.408  0.00  0.00    +0.000 A 
ATOM     28  C   UNK A   0       7.128   4.237  11.815  0.00  0.00    +0.000 A 
ATOM     29  C   UNK A   0       6.259   3.480  12.598  0.00  0.00    +0.000 A 
ATOM     30  C   UNK A   0       6.105   3.733  13.957  0.00  0.00    +0.000 A 
BRANCH  29  31
ATOM     31  O   UNK A   0       5.525   2.464  12.058  0.00  0.00    +0.000 OA
ATOM     32  H   UNK A   0       5.328   2.689  11.134  0.00  0.00    +0.000 HD
ENDBRANCH  29  31
ENDBRANCH  24  25
ENDBRANCH   5  24
TORSDOF 8
ENDMDL
MODEL 2
REMARK VINA RESULT:      -7.9      2.185      7.590
REMARK  Name = 
REMARK  12 active torsions:
REMARK  status: ('A' for Active; 'I' for Inactive)
REMARK    1  A    between atoms: CG1_1  and  CB_2
REMARK    2  A    between atoms: CB_2  and  CG2_3
REMARK    3  A    between atoms: CB_2  and  CA_4
REMARK    4  A    between atoms: CA_4  and  C_5
REMARK    5  A    between atoms: CA_4  and  N_7
REMARK    6  A    between atoms: C_5  and  O_6
REMARK    7  A    between atoms: N_11  and  C_12
REMARK    8  A    between atoms: C_12  and  C_13
REMARK    9  A    between atoms: C_17  and  O_18
REMARK   10  A    between atoms: N_23  and  C_24
REMARK   11  A    between atoms: C_24  and  C_25
REMARK   12  A    between atoms: C_24  and  C_26
REMARK                            x       y       z     vdW  Elec       q    Type
REMARK                         _______ _______ _______ _____ _____    ______ ____
ROOT
ATOM      1  N   VAL A   1       5.219   5.560  16.045  0.00  0.00    +0.000 N 
ATOM      2  C   UNK A   0       4.351   5.782  17.107  0.00  0.00    +0.000 A 
ATOM      3  N   UNK A   0       3.861   7.031  17.142  0.00  0.00    +0.000 NA
ATOM      4  C   UNK A   0       2.980   7.400  18.099  0.00  0.00    +0.000 A 
ATOM      5  N   UNK A   0       2.548   8.711  18.046  0.00  0.00    +0.000 N 
ATOM      6  C   UNK A   0       2.576   6.428  19.029  0.00  0.00    +0.000 A 
ATOM      7  N   UNK A   0       1.718   6.478  20.110  0.00  0.00    +0.000 NA
ATOM      8  C   UNK A   0       1.750   5.270  20.618  0.00  0.00    +0.000 A 
ATOM      9  N   UNK A   0       2.583   4.434  19.909  0.00  0.00    +0.000 N 
ATOM     10  C   UNK A   0       3.144   5.168  18.892  0.00  0.00    +0.000 A 
ATOM     11  N   UNK A   0       4.029   4.783  17.956  0.00  0.00    +0.000 NA
ATOM     12  H   VAL A   1       4.706   5.786  15.203  0.00  0.00    +0.000 HD
ATOM     13  H   UNK A   0       3.330   9.357  18.038  0.00  0.00    +0.000 HD
ENDROOT
BRANCH   9  14
ATOM     14  C   UNK A   0       2.799   3.035  20.219  0.00  0.00    +0.000 C 
ATOM     15  C   UNK A   0       2.411   2.694  21.656  0.00  0.00    +0.000 C 
ATOM     16  C   UNK A   0       2.136   2.102  19.208  0.00  0.00    +0.000 C 
ENDBRANCH   9  14
BRANCH   1  17
ATOM     17  CA  VAL A   1       6.085   4.385  16.038  0.00  0.00    +0.000 C 
BRANCH  17  19
ATOM     18  CG1 VAL A   1       5.307   3.960  13.624  0.00  0.00    +0.000 C 
ATOM     19  CB  VAL A   1       6.515   4.068  14.565  0.00  0.00    +0.000 C 
ATOM     20  CG2 VAL A   1       7.477   5.113  13.980  0.00  0.00    +0.000 C 
ENDBRANCH  17  19
BRANCH  17  21
ATOM     21  C   VAL A   1       7.320   4.676  16.954  0.00  0.00    +0.000 C 
BRANCH  21  22
ATOM     22  O   VAL A   1       7.187   4.210  18.299  0.00  0.00    +0.000 OA
ATOM     23  H   VAL A   1       7.413   3.269  18.331  0.00  0.00    +0.000 HD
ENDBRANCH  21  22
ENDBRANCH  17  21
ENDBRANCH   1  17
BRANCH   5  24
ATOM     24  C   UNK A   0       1.371   9.129  18.775  0.00  0.00    +0.000 C 
BRANCH  24  25
ATOM     25  C   UNK A   0       1.293  10.637  18.683  0.00  0.00    +0.000 A 
ATOM     26  C   UNK A   0       0.105  11.299  19.043  0.00  0.00    +0.000 A 
ATOM     27  C   UNK A   0      -0.002  12.684  18.933  0.00  0.00    +0.000 A 
ATOM     28  C   UNK A   0       1.084  13.428  18.478  0.00  0.00    +0.000 A 
ATOM     29  C   UNK A   0       2.267  12.774  18.141  0.00  0.00    +0.000 A 
ATOM     30  C   UNK A   0       2.382  11.392  18.240  0.00  0.00    +0.000 A 
BRANCH  29  31
ATOM     31  O   UNK A   0       3.356  13.469  17.699  0.00  0.00    +0.000 OA
ATOM     32  H   UNK A   0       3.844  12.906  17.077  0.00  0.00    +0.000 HD
ENDBRANCH  29  31
ENDBRANCH  24  25
ENDBRANCH   5  24
TORSDOF 8
ENDMDL
MODEL 3
REMARK VINA RESULT:      -7.7      2.040      7.656
REMARK  Name = 
REMARK  12 active torsions:
REMARK  status: ('A' for Active; 'I' for Inactive)
REMARK    1  A    between atoms: CG1_1  and  CB_2
REMARK    2  A    between atoms: CB_2  and  CG2_3
REMARK    3  A    between atoms: CB_2  and  CA_4
REMARK    4  A    between atoms: CA_4  and  C_5
REMARK    5  A    between atoms: CA_4  and  N_7
REMARK    6  A    between atoms: C_5  and  O_6
REMARK    7  A    between atoms: N_11  and  C_12
REMARK    8  A    between atoms: C_12  and  C_13
REMARK    9  A    between atoms: C_17  and  O_18
REMARK   10  A    between atoms: N_23  and  C_24
REMARK   11  A    between atoms: C_24  and  C_25
REMARK   12  A    between atoms: C_24  and  C_26
REMARK                            x       y       z     vdW  Elec       q    Type
REMARK                         _______ _______ _______ _____ _____    ______ ____
ROOT
ATOM      1  N   VAL A   1       5.115   5.579  16.116  0.00  0.00    +0.000 N 
ATOM      2  C   UNK A   0       4.254   5.803  17.184  0.00  0.00    +0.000 A 
ATOM      3  N   UNK A   0       3.763   7.051  17.219  0.00  0.00    +0.000 NA
ATOM      4  C   UNK A   0       2.889   7.422  18.182  0.00  0.00    +0.000 A 
ATOM      5  N   UNK A   0       2.454   8.733  18.129  0.00  0.00    +0.000 N 
ATOM      6  C   UNK A   0       2.494   6.452  19.119  0.00  0.00    +0.000 A 
ATOM      7  N   UNK A   0       1.644   6.504  20.206  0.00  0.00    +0.000 NA
ATOM      8  C   UNK A   0       1.683   5.298  20.718  0.00  0.00    +0.000 A 
ATOM      9  N   UNK A   0       2.511   4.461  20.005  0.00  0.00    +0.000 N 
ATOM     10  C   UNK A   0       3.063   5.193  18.981  0.00  0.00    +0.000 A 
ATOM     11  N   UNK A   0       3.941   4.806  18.039  0.00  0.00    +0.000 NA
ATOM     12  H   VAL A   1       4.594   5.802  15.278  0.00  0.00    +0.000 HD
ATOM     13  H   UNK A   0       3.235   9.379  18.112  0.00  0.00    +0.000 HD
ENDROOT
BRANCH   9  14
ATOM     14  C   UNK A   0       2.732   3.063  20.317  0.00  0.00    +0.000 C 
ATOM     15  C   UNK A   0       2.335   2.722  21.752  0.00  0.00    +0.000 C 
ATOM     16  C   UNK A   0       2.082   2.127  19.302  0.00  0.00    +0.000 C 
ENDBRANCH   9  14
BRANCH   1  17
ATOM     17  CA  VAL A   1       5.983   4.406  16.106  0.00  0.00    +0.000 C 
BRANCH  17  19
ATOM     18  CG1 VAL A   1       5.237   3.954  13.686  0.00  0.00    +0.000 C 
ATOM     19  CB  VAL A   1       6.434   4.110  14.635  0.00  0.00    +0.000 C 
ATOM     20  CG2 VAL A   1       7.358   5.194  14.058  0.00  0.00    +0.000 C 
ENDBRANCH  17  19
BRANCH  17  21
ATOM     21  C   VAL A   1       7.204   4.687  17.043  0.00  0.00    +0.000 C 
BRANCH  21  22
ATOM     22  O   VAL A   1       7.066   4.171  18.370  0.00  0.00    +0.000 OA
ATOM     23  H   VAL A   1       6.124   4.073  18.575  0.00  0.00    +0.000 HD
ENDBRANCH  21  22
ENDBRANCH  17  21
ENDBRANCH   1  17
BRANCH   5  24
ATOM     24  C   UNK A   0       1.282   9.150  18.865  0.00  0.00    +0.000 C 
BRANCH  24  25
ATOM     25  C   UNK A   0       1.119  10.639  18.651  0.00  0.00    +0.000 A 
ATOM     26  C   UNK A   0       2.257  11.450  18.481  0.00  0.00    +0.000 A 
ATOM     27  C   UNK A   0       2.132  12.828  18.318  0.00  0.00    +0.000 A 
ATOM     28  C   UNK A   0       0.868  13.413  18.305  0.00  0.00    +0.000 A 
ATOM     29  C   UNK A   0      -0.259  12.607  18.453  0.00  0.00    +0.000 A 
ATOM     30  C   UNK A   0      -0.146  11.232  18.624  0.00  0.00    +0.000 A 
BRANCH  29  31
ATOM     31  O   UNK A   0      -1.515  13.140  18.437  0.00  0.00    +0.000 OA
ATOM     32  H   UNK A   0      -1.825  13.162  17.517  0.00  0.00    +0.000 HD
ENDBRANCH  29  31
ENDBRANCH  24  25
ENDBRANCH   5  24
TORSDOF 8
ENDMDL
MODEL 4
REMARK VINA RESULT:      -7.6      2.125      7.777
REMARK  Name = 
REMARK  12 active torsions:
REMARK  status: ('A' for Active; 'I' for Inactive)
REMARK    1  A    between atoms: CG1_1  and  CB_2
REMARK    2  A    between atoms: CB_2  and  CG2_3
REMARK    3  A    between atoms: CB_2  and  CA_4
REMARK    4  A    between atoms: CA_4  and  C_5
REMARK    5  A    between atoms: CA_4  and  N_7
REMARK    6  A    between atoms: C_5  and  O_6
REMARK    7  A    between atoms: N_11  and  C_12
REMARK    8  A    between atoms: C_12  and  C_13
REMARK    9  A    between atoms: C_17  and  O_18
REMARK   10  A    between atoms: N_23  and  C_24
REMARK   11  A    between atoms: C_24  and  C_25
REMARK   12  A    between atoms: C_24  and  C_26
REMARK                            x       y       z     vdW  Elec       q    Type
REMARK                         _______ _______ _______ _____ _____    ______ ____
ROOT
ATOM      1  N   VAL A   1       5.252   5.624  16.042  0.00  0.00    +0.000 N 
ATOM      2  C   UNK A   0       4.377   5.846  17.098  0.00  0.00    +0.000 A 
ATOM      3  N   UNK A   0       3.874   7.090  17.120  0.00  0.00    +0.000 NA
ATOM      4  C   UNK A   0       2.985   7.459  18.070  0.00  0.00    +0.000 A 
ATOM      5  N   UNK A   0       2.539   8.765  18.003  0.00  0.00    +0.000 N 
ATOM      6  C   UNK A   0       2.588   6.492  19.008  0.00  0.00    +0.000 A 
ATOM      7  N   UNK A   0       1.726   6.543  20.085  0.00  0.00    +0.000 NA
ATOM      8  C   UNK A   0       1.769   5.340  20.605  0.00  0.00    +0.000 A 
ATOM      9  N   UNK A   0       2.614   4.506  19.908  0.00  0.00    +0.000 N 
ATOM     10  C   UNK A   0       3.170   5.237  18.885  0.00  0.00    +0.000 A 
ATOM     11  N   UNK A   0       4.063   4.853  17.956  0.00  0.00    +0.000 NA
ATOM     12  H   VAL A   1       4.739   5.837  15.196  0.00  0.00    +0.000 HD
ATOM     13  H   UNK A   0       3.314   9.419  17.991  0.00  0.00    +0.000 HD
ENDROOT
BRANCH   9  14
ATOM     14  C   UNK A   0       2.844   3.113  20.231  0.00  0.00    +0.000 C 
ATOM     15  C   UNK A   0       2.405   2.770  21.653  0.00  0.00    +0.000 C 
ATOM     16  C   UNK A   0       2.240   2.164  19.199  0.00  0.00    +0.000 C 
ENDBRANCH   9  14
BRANCH   1  17
ATOM     17  CA  VAL A   1       6.131   4.459  16.050  0.00  0.00    +0.000 C 
BRANCH  17  19
ATOM     18  CG1 VAL A   1       5.207   3.919  13.711  0.00  0.00    +0.000 C 
ATOM     19  CB  VAL A   1       6.469   4.057  14.573  0.00  0.00    +0.000 C 
ATOM     20  CG2 VAL A   1       7.410   5.053  13.879  0.00  0.00    +0.000 C 
ENDBRANCH  17  19
BRANCH  17  21
ATOM     21  C   VAL A   1       7.418   4.816  16.864  0.00  0.00    +0.000 C 
BRANCH  21  22
ATOM     22  O   VAL A   1       7.518   4.166  18.134  0.00  0.00    +0.000 OA
ATOM     23  H   VAL A   1       7.627   3.213  17.993  0.00  0.00    +0.000 HD
ENDBRANCH  21  22
ENDBRANCH  17  21
ENDBRANCH   1  17
BRANCH   5  24
ATOM     24  C   UNK A   0       1.355   9.176  18.723  0.00  0.00    +0.000 C 
BRANCH  24  25
ATOM     25  C   UNK A   0       1.506  10.648  19.040  0.00  0.00    +0.000 A 
ATOM     26  C   UNK A   0       2.163  11.496  18.129  0.00  0.00    +0.000 A 
ATOM     27  C   UNK A   0       2.345  12.847  18.416  0.00  0.00    +0.000 A 
ATOM     28  C   UNK A   0       1.857  13.374  19.610  0.00  0.00    +0.000 A 
ATOM     29  C   UNK A   0       1.188  12.539  20.502  0.00  0.00    +0.000 A 
ATOM     30  C   UNK A   0       1.007  11.187  20.229  0.00  0.00    +0.000 A 
BRANCH  29  31
ATOM     31  O   UNK A   0       0.688  13.018  21.678  0.00  0.00    +0.000 OA
ATOM     32  H   UNK A   0       0.559  13.976  21.585  0.00  0.00    +0.000 HD
ENDBRANCH  29  31
ENDBRANCH  24  25
ENDBRANCH   5  24
TORSDOF 8
ENDMDL
MODEL 5
REMARK VINA RESULT:      -7.4      0.985      1.340
REMARK  Name = 
REMARK  12 active torsions:
REMARK  status: ('A' for Active; 'I' for Inactive)
REMARK    1  A    between atoms: CG1_1  and  CB_2
REMARK    2  A    between atoms: CB_2  and  CG2_3
REMARK    3  A    between atoms: CB_2  and  CA_4
REMARK    4  A    between atoms: CA_4  and  C_5
REMARK    5  A    between atoms: CA_4  and  N_7
REMARK    6  A    between atoms: C_5  and  O_6
REMARK    7  A    between atoms: N_11  and  C_12
REMARK    8  A    between atoms: C_12  and  C_13
REMARK    9  A    between atoms: C_17  and  O_18
REMARK   10  A    between atoms: N_23  and  C_24
REMARK   11  A    between atoms: C_24  and  C_25
REMARK   12  A    between atoms: C_24  and  C_26
REMARK                            x       y       z     vdW  Elec       q    Type
REMARK                         _______ _______ _______ _____ _____    ______ ____
ROOT
ATOM      1  N   VAL A   1       2.463   8.686  18.511  0.00  0.00    +0.000 N 
ATOM      2  C   UNK A   0       2.838   7.382  18.211  0.00  0.00    +0.000 A 
ATOM      3  N   UNK A   0       3.955   7.306  17.471  0.00  0.00    +0.000 NA
ATOM      4  C   UNK A   0       4.468   6.106  17.117  0.00  0.00    +0.000 A 
ATOM      5  N   UNK A   0       5.615   6.145  16.348  0.00  0.00    +0.000 N 
ATOM      6  C   UNK A   0       3.811   4.951  17.573  0.00  0.00    +0.000 A 
ATOM      7  N   UNK A   0       4.064   3.606  17.388  0.00  0.00    +0.000 NA
ATOM      8  C   UNK A   0       3.101   2.994  18.034  0.00  0.00    +0.000 A 
ATOM      9  N   UNK A   0       2.240   3.881  18.640  0.00  0.00    +0.000 N 
ATOM     10  C   UNK A   0       2.669   5.151  18.336  0.00  0.00    +0.000 A 
ATOM     11  N   UNK A   0       2.135   6.334  18.691  0.00  0.00    +0.000 NA
ATOM     12  H   VAL A   1       3.253   9.110  18.979  0.00  0.00    +0.000 HD
ATOM     13  H   UNK A   0       5.485   6.716  15.520  0.00  0.00    +0.000 HD
ENDROOT
BRANCH   9  14
ATOM     14  C   UNK A   0       1.099   3.497  19.446  0.00  0.00    +0.000 C 
ATOM     15  C   UNK A   0       0.511   2.156  19.013  0.00  0.00    +0.000 C 
ATOM     16  C   UNK A   0       1.398   3.538  20.942  0.00  0.00    +0.000 C 
ENDBRANCH   9  14
BRANCH   1  17
ATOM     17  CA  VAL A   1       1.122   8.967  19.014  0.00  0.00    +0.000 C 
BRANCH  17  19
ATOM     18  CG1 VAL A   1       0.727  10.646  20.921  0.00  0.00    +0.000 C 
ATOM     19  CB  VAL A   1       1.194   9.230  20.557  0.00  0.00    +0.000 C 
ATOM     20  CG2 VAL A   1       0.363   8.232  21.378  0.00  0.00    +0.000 C 
ENDBRANCH  17  19
BRANCH  17  21
ATOM     21  C   VAL A   1       0.552  10.201  18.239  0.00  0.00    +0.000 C 
BRANCH  21  22
ATOM     22  O   VAL A   1      -0.665   9.949  17.532  0.00  0.00    +0.000 OA
ATOM     23  H   VAL A   1      -1.354   9.704  18.166  0.00  0.00    +0.000 HD
ENDBRANCH  21  22
ENDBRANCH  17  21
ENDBRANCH   1  17
BRANCH   5  24
ATOM     24  C   UNK A   0       6.443   4.969  16.200  0.00  0.00    +0.000 C 
BRANCH  24  25
ATOM     25  C   UNK A   0       6.684   4.768  14.720  0.00  0.00    +0.000 A 
ATOM     26  C   UNK A   0       6.065   3.696  14.049  0.00  0.00    +0.000 A 
ATOM     27  C   UNK A   0       6.301   3.471  12.695  0.00  0.00    +0.000 A 
ATOM     28  C   UNK A   0       7.146   4.324  11.987  0.00  0.00    +0.000 A 
ATOM     29  C   UNK A   0       7.742   5.396  12.647  0.00  0.00    +0.000 A 
ATOM     30  C   UNK A   0       7.519   5.626  14.000  0.00  0.00    +0.000 A 
BRANCH  29  31
ATOM     31  O   UNK A   0       8.569   6.259  11.987  0.00  0.00    +0.000 OA
ATOM     32  H   UNK A   0       8.212   6.400  11.095  0.00  0.00    +0.000 HD
ENDBRANCH  29  31
ENDBRANCH  24  25
ENDBRANCH   5  24
TORSDOF 8
ENDMDL
MODEL 6
REMARK VINA RESULT:      -7.4      1.850      7.774
REMARK  Name = 
REMARK  12 active torsions:
REMARK  status: ('A' for Active; 'I' for Inactive)
REMARK    1  A    between atoms: CG1_1  and  CB_2
REMARK    2  A    between atoms: CB_2  and  CG2_3
REMARK    3  A    between atoms: CB_2  and  CA_4
REMARK    4  A    between atoms: CA_4  and  C_5
REMARK    5  A    between atoms: CA_4  and  N_7
REMARK    6  A    between atoms: C_5  and  O_6
REMARK    7  A    between atoms: N_11  and  C_12
REMARK    8  A    between atoms: C_12  and  C_13
REMARK    9  A    between atoms: C_17  and  O_18
REMARK   10  A    between atoms: N_23  and  C_24
REMARK   11  A    between atoms: C_24  and  C_25
REMARK   12  A    between atoms: C_24  and  C_26
REMARK                            x       y       z     vdW  Elec       q    Type
REMARK                         _______ _______ _______ _____ _____    ______ ____
ROOT
ATOM      1  N   VAL A   1       4.791   6.033  16.248  0.00  0.00    +0.000 N 
ATOM      2  C   UNK A   0       4.011   5.990  17.397  0.00  0.00    +0.000 A 
ATOM      3  N   UNK A   0       3.477   7.178  17.722  0.00  0.00    +0.000 NA
ATOM      4  C   UNK A   0       2.670   7.299  18.801  0.00  0.00    +0.000 A 
ATOM      5  N   UNK A   0       2.183   8.568  19.049  0.00  0.00    +0.000 N 
ATOM      6  C   UNK A   0       2.389   6.141  19.544  0.00  0.00    +0.000 A 
ATOM      7  N   UNK A   0       1.628   5.926  20.676  0.00  0.00    +0.000 NA
ATOM      8  C   UNK A   0       1.753   4.645  20.925  0.00  0.00    +0.000 A 
ATOM      9  N   UNK A   0       2.553   4.015  19.998  0.00  0.00    +0.000 N 
ATOM     10  C   UNK A   0       2.992   4.968  19.110  0.00  0.00    +0.000 A 
ATOM     11  N   UNK A   0       3.805   4.827  18.049  0.00  0.00    +0.000 NA
ATOM     12  H   VAL A   1       4.196   6.393  15.512  0.00  0.00    +0.000 HD
ATOM     13  H   UNK A   0       2.935   9.246  19.110  0.00  0.00    +0.000 HD
ENDROOT
BRANCH   9  14
ATOM     14  C   UNK A   0       2.851   2.597  20.000  0.00  0.00    +0.000 C 
ATOM     15  C   UNK A   0       2.278   1.885  18.776  0.00  0.00    +0.000 C 
ATOM     16  C   UNK A   0       4.339   2.312  20.188  0.00  0.00    +0.000 C 
ENDBRANCH   9  14
BRANCH   1  17
ATOM     17  CA  VAL A   1       5.699   4.935  15.935  0.00  0.00    +0.000 C 
BRANCH  17  19
ATOM     18  CG1 VAL A   1       7.573   5.121  14.184  0.00  0.00    +0.000 C 
ATOM     19  CB  VAL A   1       6.062   4.981  14.412  0.00  0.00    +0.000 C 
ATOM     20  CG2 VAL A   1       5.579   3.744  13.639  0.00  0.00    +0.000 C 
ENDBRANCH  17  19
BRANCH  17  21
ATOM     21  C   VAL A   1       6.969   5.071  16.839  0.00  0.00    +0.000 C 
BRANCH  21  22
ATOM     22  O   VAL A   1       6.972   4.224  17.991  0.00  0.00    +0.000 OA
ATOM     23  H   VAL A   1       7.881   3.944  18.175  0.00  0.00    +0.000 HD
ENDBRANCH  21  22
ENDBRANCH  17  21
ENDBRANCH   1  17
BRANCH   5  24
ATOM     24  C   UNK A   0       1.059   8.765  19.936  0.00  0.00    +0.000 C 
BRANCH  24  25
ATOM     25  C   UNK A   0       0.570  10.184  19.741  0.00  0.00    +0.000 A 
ATOM     26  C   UNK A   0       0.843  11.158  20.719  0.00  0.00    +0.000 A 
ATOM     27  C   UNK A   0       0.372  12.462  20.577  0.00  0.00    +0.000 A 
ATOM     28  C   UNK A   0      -0.363  12.814  19.447  0.00  0.00    +0.000 A 
ATOM     29  C   UNK A   0      -0.615  11.854  18.470  0.00  0.00    +0.000 A 
ATOM     30  C   UNK A   0      -0.157  10.549  18.604  0.00  0.00    +0.000 A 
BRANCH  29  31
ATOM     31  O   UNK A   0      -1.324  12.162  17.345  0.00  0.00    +0.000 OA
ATOM     32  H   UNK A   0      -2.134  11.626  17.339  0.00  0.00    +0.000 HD
ENDBRANCH  29  31
ENDBRANCH  24  25
ENDBRANCH   5  24
TORSDOF 8
ENDMDL
MODEL 7
REMARK VINA RESULT:      -7.4      1.942      7.807
REMARK  Name = 
REMARK  12 active torsions:
REMARK  status: ('A' for Active; 'I' for Inactive)
REMARK    1  A    between atoms: CG1_1  and  CB_2
REMARK    2  A    between atoms: CB_2  and  CG2_3
REMARK    3  A    between atoms: CB_2  and  CA_4
REMARK    4  A    between atoms: CA_4  and  C_5
REMARK    5  A    between atoms: CA_4  and  N_7
REMARK    6  A    between atoms: C_5  and  O_6
REMARK    7  A    between atoms: N_11  and  C_12
REMARK    8  A    between atoms: C_12  and  C_13
REMARK    9  A    between atoms: C_17  and  O_18
REMARK   10  A    between atoms: N_23  and  C_24
REMARK   11  A    between atoms: C_24  and  C_25
REMARK   12  A    between atoms: C_24  and  C_26
REMARK                            x       y       z     vdW  Elec       q    Type
REMARK                         _______ _______ _______ _____ _____    ______ ____
ROOT
ATOM      1  N   VAL A   1       4.944   6.269  16.105  0.00  0.00    +0.000 N 
ATOM      2  C   UNK A   0       4.126   6.321  17.227  0.00  0.00    +0.000 A 
ATOM      3  N   UNK A   0       3.576   7.528  17.429  0.00  0.00    +0.000 NA
ATOM      4  C   UNK A   0       2.731   7.737  18.465  0.00  0.00    +0.000 A 
ATOM      5  N   UNK A   0       2.230   9.019  18.584  0.00  0.00    +0.000 N 
ATOM      6  C   UNK A   0       2.431   6.646  19.297  0.00  0.00    +0.000 A 
ATOM      7  N   UNK A   0       1.633   6.525  20.417  0.00  0.00    +0.000 NA
ATOM      8  C   UNK A   0       1.755   5.272  20.782  0.00  0.00    +0.000 A 
ATOM      9  N   UNK A   0       2.590   4.569  19.941  0.00  0.00    +0.000 N 
ATOM     10  C   UNK A   0       3.054   5.444  18.988  0.00  0.00    +0.000 A 
ATOM     11  N   UNK A   0       3.904   5.217  17.971  0.00  0.00    +0.000 NA
ATOM     12  H   VAL A   1       4.374   6.559  15.322  0.00  0.00    +0.000 HD
ATOM     13  H   UNK A   0       2.976   9.705  18.611  0.00  0.00    +0.000 HD
ENDROOT
BRANCH   9  14
ATOM     14  C   UNK A   0       2.894   3.159  20.077  0.00  0.00    +0.000 C 
ATOM     15  C   UNK A   0       2.608   2.640  21.485  0.00  0.00    +0.000 C 
ATOM     16  C   UNK A   0       2.222   2.309  19.003  0.00  0.00    +0.000 C 
ENDBRANCH   9  14
BRANCH   1  17
ATOM     17  CA  VAL A   1       5.868   5.155  15.921  0.00  0.00    +0.000 C 
BRANCH  17  19
ATOM     18  CG1 VAL A   1       7.601   5.241  14.022  0.00  0.00    +0.000 C 
ATOM     19  CB  VAL A   1       6.138   4.955  14.391  0.00  0.00    +0.000 C 
ATOM     20  CG2 VAL A   1       5.793   3.542  13.897  0.00  0.00    +0.000 C 
ENDBRANCH  17  19
BRANCH  17  21
ATOM     21  C   VAL A   1       7.184   5.468  16.708  0.00  0.00    +0.000 C 
BRANCH  21  22
ATOM     22  O   VAL A   1       7.805   4.328  17.306  0.00  0.00    +0.000 OA
ATOM     23  H   VAL A   1       7.137   3.823  17.793  0.00  0.00    +0.000 HD
ENDBRANCH  21  22
ENDBRANCH  17  21
ENDBRANCH   1  17
BRANCH   5  24
ATOM     24  C   UNK A   0       1.076   9.284  19.413  0.00  0.00    +0.000 C 
BRANCH  24  25
ATOM     25  C   UNK A   0       0.521  10.630  19.001  0.00  0.00    +0.000 A 
ATOM     26  C   UNK A   0       1.382  11.739  18.898  0.00  0.00    +0.000 A 
ATOM     27  C   UNK A   0       0.888  12.996  18.555  0.00  0.00    +0.000 A 
ATOM     28  C   UNK A   0      -0.471  13.158  18.294  0.00  0.00    +0.000 A 
ATOM     29  C   UNK A   0      -1.319  12.056  18.377  0.00  0.00    +0.000 A 
ATOM     30  C   UNK A   0      -0.838  10.799  18.725  0.00  0.00    +0.000 A 
BRANCH  29  31
ATOM     31  O   UNK A   0      -2.655  12.173  18.120  0.00  0.00    +0.000 OA
ATOM     32  H   UNK A   0      -2.793  12.047  17.167  0.00  0.00    +0.000 HD
ENDBRANCH  29  31
ENDBRANCH  24  25
ENDBRANCH   5  24
TORSDOF 8
ENDMDL
MODEL 8
REMARK VINA RESULT:      -7.3      2.083      7.791
REMARK  Name = 
REMARK  12 active torsions:
REMARK  status: ('A' for Active; 'I' for Inactive)
REMARK    1  A    between atoms: CG1_1  and  CB_2
REMARK    2  A    between atoms: CB_2  and  CG2_3
REMARK    3  A    between atoms: CB_2  and  CA_4
REMARK    4  A    between atoms: CA_4  and  C_5
REMARK    5  A    between atoms: CA_4  and  N_7
REMARK    6  A    between atoms: C_5  and  O_6
REMARK    7  A    between atoms: N_11  and  C_12
REMARK    8  A    between atoms: C_12  and  C_13
REMARK    9  A    between atoms: C_17  and  O_18
REMARK   10  A    between atoms: N_23  and  C_24
REMARK   11  A    between atoms: C_24  and  C_25
REMARK   12  A    between atoms: C_24  and  C_26
REMARK                            x       y       z     vdW  Elec       q    Type
REMARK                         _______ _______ _______ _____ _____    ______ ____
ROOT
ATOM      1  N   VAL A   1       4.849   6.107  16.159  0.00  0.00    +0.000 N 
ATOM      2  C   UNK A   0       4.049   6.164  17.294  0.00  0.00    +0.000 A 
ATOM      3  N   UNK A   0       3.531   7.381  17.520  0.00  0.00    +0.000 NA
ATOM      4  C   UNK A   0       2.708   7.597  18.571  0.00  0.00    +0.000 A 
ATOM      5  N   UNK A   0       2.240   8.889  18.714  0.00  0.00    +0.000 N 
ATOM      6  C   UNK A   0       2.394   6.503  19.394  0.00  0.00    +0.000 A 
ATOM      7  N   UNK A   0       1.610   6.387  20.525  0.00  0.00    +0.000 NA
ATOM      8  C   UNK A   0       1.708   5.127  20.872  0.00  0.00    +0.000 A 
ATOM      9  N   UNK A   0       2.512   4.415  20.010  0.00  0.00    +0.000 N 
ATOM     10  C   UNK A   0       2.982   5.291  19.061  0.00  0.00    +0.000 A 
ATOM     11  N   UNK A   0       3.811   5.056  18.028  0.00  0.00    +0.000 NA
ATOM     12  H   VAL A   1       4.273   6.420  15.388  0.00  0.00    +0.000 HD
ATOM     13  H   UNK A   0       3.003   9.557  18.738  0.00  0.00    +0.000 HD
ENDROOT
BRANCH   9  14
ATOM     14  C   UNK A   0       2.784   2.997  20.124  0.00  0.00    +0.000 C 
ATOM     15  C   UNK A   0       2.604   2.487  21.552  0.00  0.00    +0.000 C 
ATOM     16  C   UNK A   0       1.996   2.166  19.113  0.00  0.00    +0.000 C 
ENDBRANCH   9  14
BRANCH   1  17
ATOM     17  CA  VAL A   1       5.742   4.972  15.947  0.00  0.00    +0.000 C 
BRANCH  17  19
ATOM     18  CG1 VAL A   1       7.702   5.092  14.286  0.00  0.00    +0.000 C 
ATOM     19  CB  VAL A   1       6.183   4.937  14.444  0.00  0.00    +0.000 C 
ATOM     20  CG2 VAL A   1       5.762   3.647  13.723  0.00  0.00    +0.000 C 
ENDBRANCH  17  19
BRANCH  17  21
ATOM     21  C   VAL A   1       6.967   5.121  16.909  0.00  0.00    +0.000 C 
BRANCH  21  22
ATOM     22  O   VAL A   1       6.954   4.234  18.030  0.00  0.00    +0.000 OA
ATOM     23  H   VAL A   1       7.031   3.322  17.713  0.00  0.00    +0.000 HD
ENDBRANCH  21  22
ENDBRANCH  17  21
ENDBRANCH   1  17
BRANCH   5  24
ATOM     24  C   UNK A   0       1.105   9.171  19.564  0.00  0.00    +0.000 C 
BRANCH  24  25
ATOM     25  C   UNK A   0       0.522  10.493  19.116  0.00  0.00    +0.000 A 
ATOM     26  C   UNK A   0      -0.825  10.563  18.715  0.00  0.00    +0.000 A 
ATOM     27  C   UNK A   0      -1.374  11.762  18.265  0.00  0.00    +0.000 A 
ATOM     28  C   UNK A   0      -0.589  12.912  18.226  0.00  0.00    +0.000 A 
ATOM     29  C   UNK A   0       0.739  12.847  18.642  0.00  0.00    +0.000 A 
ATOM     30  C   UNK A   0       1.299  11.655  19.086  0.00  0.00    +0.000 A 
BRANCH  29  31
ATOM     31  O   UNK A   0       1.538  13.953  18.628  0.00  0.00    +0.000 OA
ATOM     32  H   UNK A   0       2.279  13.785  18.023  0.00  0.00    +0.000 HD
ENDBRANCH  29  31
ENDBRANCH  24  25
ENDBRANCH   5  24
TORSDOF 8
ENDMDL
MODEL 9
REMARK VINA RESULT:      -7.2      0.762      1.081
REMARK  Name = 
REMARK  12 active torsions:
REMARK  status: ('A' for Active; 'I' for Inactive)
REMARK    1  A    between atoms: CG1_1  and  CB_2
REMARK    2  A    between atoms: CB_2  and  CG2_3
REMARK    3  A    between atoms: CB_2  and  CA_4
REMARK    4  A    between atoms: CA_4  and  C_5
REMARK    5  A    between atoms: CA_4  and  N_7
REMARK    6  A    between atoms: C_5  and  O_6
REMARK    7  A    between atoms: N_11  and  C_12
REMARK    8  A    between atoms: C_12  and  C_13
REMARK    9  A    between atoms: C_17  and  O_18
REMARK   10  A    between atoms: N_23  and  C_24
REMARK   11  A    between atoms: C_24  and  C_25
REMARK   12  A    between atoms: C_24  and  C_26
REMARK                            x       y       z     vdW  Elec       q    Type
REMARK                         _______ _______ _______ _____ _____    ______ ____
ROOT
ATOM      1  N   VAL A   1       2.385   9.111  17.938  0.00  0.00    +0.000 N 
ATOM      2  C   UNK A   0       2.857   7.806  17.871  0.00  0.00    +0.000 A 
ATOM      3  N   UNK A   0       3.917   7.665  17.060  0.00  0.00    +0.000 NA
ATOM      4  C   UNK A   0       4.512   6.460  16.907  0.00  0.00    +0.000 A 
ATOM      5  N   UNK A   0       5.589   6.426  16.042  0.00  0.00    +0.000 N 
ATOM      6  C   UNK A   0       4.004   5.378  17.644  0.00  0.00    +0.000 A 
ATOM      7  N   UNK A   0       4.367   4.047  17.710  0.00  0.00    +0.000 NA
ATOM      8  C   UNK A   0       3.519   3.511  18.553  0.00  0.00    +0.000 A 
ATOM      9  N   UNK A   0       2.627   4.436  19.047  0.00  0.00    +0.000 N 
ATOM     10  C   UNK A   0       2.909   5.644  18.455  0.00  0.00    +0.000 A 
ATOM     11  N   UNK A   0       2.295   6.830  18.614  0.00  0.00    +0.000 NA
ATOM     12  H   VAL A   1       3.165   9.683  18.235  0.00  0.00    +0.000 HD
ATOM     13  H   UNK A   0       5.343   6.801  15.132  0.00  0.00    +0.000 HD
ENDROOT
BRANCH   9  14
ATOM     14  C   UNK A   0       1.591   4.141  20.016  0.00  0.00    +0.000 C 
ATOM     15  C   UNK A   0       0.715   2.966  19.587  0.00  0.00    +0.000 C 
ATOM     16  C   UNK A   0       2.144   3.961  21.428  0.00  0.00    +0.000 C 
ENDBRANCH   9  14
BRANCH   1  17
ATOM     17  CA  VAL A   1       1.066   9.387  18.498  0.00  0.00    +0.000 C 
BRANCH  17  19
ATOM     18  CG1 VAL A   1       1.135  10.907  20.571  0.00  0.00    +0.000 C 
ATOM     19  CB  VAL A   1       1.032  10.856  19.040  0.00  0.00    +0.000 C 
ATOM     20  CG2 VAL A   1       2.148  11.739  18.461  0.00  0.00    +0.000 C 
ENDBRANCH  17  19
BRANCH  17  21
ATOM     21  C   VAL A   1      -0.004   9.155  17.379  0.00  0.00    +0.000 C 
BRANCH  21  22
ATOM     22  O   VAL A   1      -1.009  10.169  17.299  0.00  0.00    +0.000 OA
ATOM     23  H   VAL A   1      -1.335  10.220  16.388  0.00  0.00    +0.000 HD
ENDBRANCH  21  22
ENDBRANCH  17  21
ENDBRANCH   1  17
BRANCH   5  24
ATOM     24  C   UNK A   0       6.510   5.312  16.055  0.00  0.00    +0.000 C 
BRANCH  24  25
ATOM     25  C   UNK A   0       6.761   4.914  14.617  0.00  0.00    +0.000 A 
ATOM     26  C   UNK A   0       7.700   5.626  13.848  0.00  0.00    +0.000 A 
ATOM     27  C   UNK A   0       7.922   5.301  12.512  0.00  0.00    +0.000 A 
ATOM     28  C   UNK A   0       7.220   4.247  11.930  0.00  0.00    +0.000 A 
ATOM     29  C   UNK A   0       6.306   3.529  12.698  0.00  0.00    +0.000 A 
ATOM     30  C   UNK A   0       6.072   3.850  14.030  0.00  0.00    +0.000 A 
BRANCH  29  31
ATOM     31  O   UNK A   0       5.606   2.484  12.167  0.00  0.00    +0.000 OA
ATOM     32  H   UNK A   0       5.219   2.774  11.325  0.00  0.00    +0.000 HD
ENDBRANCH  29  31
ENDBRANCH  24  25
ENDBRANCH   5  24
TORSDOF 8
ENDMDL
