MODEL 1
REMARK VINA RESULT:      -7.3      0.000      0.000
REMARK  Name = 
REMARK  5 active torsions:
REMARK  status: ('A' for Active; 'I' for Inactive)
REMARK    1  A    between atoms: C_1  and  C_2
REMARK    2  A    between atoms: C_3  and  C_4
REMARK    3  A    between atoms: C_4  and  O_6
REMARK    4  A    between atoms: O_6  and  C_7
REMARK    5  A    between atoms: C_12  and  C_13
REMARK                            x       y       z     vdW  Elec       q    Type
REMARK                         _______ _______ _______ _____ _____    ______ ____
ROOT
ATOM      1  C   UNL     1       1.212   3.811  20.500  0.00  0.00    +0.000 C 
ATOM      2  C   UNL     1       2.665   3.867  20.100  0.00  0.00    +0.000 C 
ATOM      3  C   UNL     1       3.314   4.825  19.394  0.00  0.00    +0.000 C 
ATOM      4  C   UNL     1       4.798   4.697  19.148  0.00  0.00    +0.000 C 
ATOM      5  N   UNL     1       5.240   3.323  19.304  0.00  0.00    +0.000 N 
ATOM      6  C   UNL     1       4.637   2.437  20.128  0.00  0.00    +0.000 C 
ATOM      7  O   UNL     1       5.167   1.381  20.450  0.00  0.00    +0.000 OA
ATOM      8  N   UNL     1       3.377   2.763  20.528  0.00  0.00    +0.000 N 
ATOM      9  H   UNL     1       6.179   3.070  19.028  0.00  0.00    +0.000 HD
ATOM     10  H   UNL     1       2.916   2.043  21.069  0.00  0.00    +0.000 HD
ENDROOT
BRANCH   4  11
ATOM     11  C   UNL     1       5.256   5.107  17.780  0.00  0.00    +0.000 A 
ATOM     12  C   UNL     1       5.044   4.422  16.555  0.00  0.00    +0.000 A 
ATOM     13  C   UNL     1       5.574   5.222  15.568  0.00  0.00    +0.000 A 
ATOM     14  O   UNL     1       6.114   6.343  16.112  0.00  0.00    +0.000 OA
ATOM     15  C   UNL     1       5.927   6.264  17.450  0.00  0.00    +0.000 A 
ENDBRANCH   4  11
BRANCH   3  16
ATOM     16  C   UNL     1       2.584   6.001  18.843  0.00  0.00    +0.000 C 
ATOM     17  O   UNL     1       1.967   5.974  17.787  0.00  0.00    +0.000 OA
BRANCH  16  18
ATOM     18  O   UNL     1       2.692   7.114  19.623  0.00  0.00    +0.000 OA
BRANCH  18  19
ATOM     19  C   UNL     1       1.460   7.834  19.792  0.00  0.00    +0.000 C 
ATOM     20  C   UNL     1       1.305   8.271  21.242  0.00  0.00    +0.000 C 
ATOM     21  C   UNL     1       0.311   9.416  21.191  0.00  0.00    +0.000 C 
ATOM     22  C   UNL     1       0.506  10.070  19.824  0.00  0.00    +0.000 C 
ATOM     23  C   UNL     1       1.459   9.165  19.039  0.00  0.00    +0.000 C 
ENDBRANCH  18  19
ENDBRANCH  16  18
ENDBRANCH   3  16
TORSDOF 4
ENDMDL
MODEL 2
REMARK VINA RESULT:      -7.2      0.836      1.173
REMARK  Name = 
REMARK  5 active torsions:
REMARK  status: ('A' for Active; 'I' for Inactive)
REMARK    1  A    between atoms: C_1  and  C_2
REMARK    2  A    between atoms: C_3  and  C_4
REMARK    3  A    between atoms: C_4  and  O_6
REMARK    4  A    between atoms: O_6  and  C_7
REMARK    5  A    between atoms: C_12  and  C_13
REMARK                            x       y       z     vdW  Elec       q    Type
REMARK                         _______ _______ _______ _____ _____    ______ ____
ROOT
ATOM      1  C   UNL     1       1.251   3.576  20.598  0.00  0.00    +0.000 C 
ATOM      2  C   UNL     1       2.687   3.613  20.140  0.00  0.00    +0.000 C 
ATOM      3  C   UNL     1       3.288   4.492  19.301  0.00  0.00    +0.000 C 
ATOM      4  C   UNL     1       4.765   4.365  19.016  0.00  0.00    +0.000 C 
ATOM      5  N   UNL     1       5.246   3.029  19.318  0.00  0.00    +0.000 N 
ATOM      6  C   UNL     1       4.693   2.237  20.264  0.00  0.00    +0.000 C 
ATOM      7  O   UNL     1       5.260   1.237  20.689  0.00  0.00    +0.000 OA
ATOM      8  N   UNL     1       3.441   2.583  20.670  0.00  0.00    +0.000 N 
ATOM      9  H   UNL     1       6.180   2.763  19.038  0.00  0.00    +0.000 HD
ATOM     10  H   UNL     1       3.017   1.924  21.309  0.00  0.00    +0.000 HD
ENDROOT
BRANCH   4  11
ATOM     11  C   UNL     1       5.165   4.617  17.593  0.00  0.00    +0.000 A 
ATOM     12  C   UNL     1       5.891   5.724  17.080  0.00  0.00    +0.000 A 
ATOM     13  C   UNL     1       6.085   5.471  15.740  0.00  0.00    +0.000 A 
ATOM     14  O   UNL     1       5.507   4.293  15.396  0.00  0.00    +0.000 OA
ATOM     15  C   UNL     1       4.945   3.784  16.517  0.00  0.00    +0.000 A 
ENDBRANCH   4  11
BRANCH   3  16
ATOM     16  C   UNL     1       2.510   5.578  18.641  0.00  0.00    +0.000 C 
ATOM     17  O   UNL     1       1.706   5.378  17.742  0.00  0.00    +0.000 OA
BRANCH  16  18
ATOM     18  O   UNL     1       2.802   6.818  19.127  0.00  0.00    +0.000 OA
BRANCH  18  19
ATOM     19  C   UNL     1       1.798   7.808  18.852  0.00  0.00    +0.000 C 
ATOM     20  C   UNL     1       1.471   8.587  20.118  0.00  0.00    +0.000 C 
ATOM     21  C   UNL     1       0.849   9.879  19.621  0.00  0.00    +0.000 C 
ATOM     22  C   UNL     1       1.486  10.146  18.258  0.00  0.00    +0.000 C 
ATOM     23  C   UNL     1       2.304   8.900  17.908  0.00  0.00    +0.000 C 
ENDBRANCH  18  19
ENDBRANCH  16  18
ENDBRANCH   3  16
TORSDOF 4
ENDMDL
MODEL 3
REMARK VINA RESULT:      -7.0      2.148      5.355
REMARK  Name = 
REMARK  5 active torsions:
REMARK  status: ('A' for Active; 'I' for Inactive)
REMARK    1  A    between atoms: C_1  and  C_2
REMARK    2  A    between atoms: C_3  and  C_4
REMARK    3  A    between atoms: C_4  and  O_6
REMARK    4  A    between atoms: O_6  and  C_7
REMARK    5  A    between atoms: C_12  and  C_13
REMARK                            x       y       z     vdW  Elec       q    Type
REMARK                         _______ _______ _______ _____ _____    ______ ____
ROOT
ATOM      1  C   UNL     1       4.648   1.794  20.000  0.00  0.00    +0.000 C 
ATOM      2  C   UNL     1       3.679   2.694  19.275  0.00  0.00    +0.000 C 
ATOM      3  C   UNL     1       3.895   3.924  18.749  0.00  0.00    +0.000 C 
ATOM      4  C   UNL     1       2.779   4.631  18.017  0.00  0.00    +0.000 C 
ATOM      5  N   UNL     1       1.484   4.090  18.384  0.00  0.00    +0.000 N 
ATOM      6  C   UNL     1       1.297   2.811  18.778  0.00  0.00    +0.000 C 
ATOM      7  O   UNL     1       0.185   2.300  18.827  0.00  0.00    +0.000 OA
ATOM      8  N   UNL     1       2.416   2.144  19.175  0.00  0.00    +0.000 N 
ATOM      9  H   UNL     1       0.644   4.565  18.081  0.00  0.00    +0.000 HD
ATOM     10  H   UNL     1       2.235   1.221  19.549  0.00  0.00    +0.000 HD
ENDROOT
BRANCH   4  11
ATOM     11  C   UNL     1       2.680   6.105  18.275  0.00  0.00    +0.000 A 
ATOM     12  C   UNL     1       3.022   7.164  17.393  0.00  0.00    +0.000 A 
ATOM     13  C   UNL     1       2.682   8.331  18.040  0.00  0.00    +0.000 A 
ATOM     14  O   UNL     1       2.174   8.056  19.268  0.00  0.00    +0.000 OA
ATOM     15  C   UNL     1       2.183   6.710  19.409  0.00  0.00    +0.000 A 
ENDBRANCH   4  11
BRANCH   3  16
ATOM     16  C   UNL     1       5.215   4.600  18.891  0.00  0.00    +0.000 C 
ATOM     17  O   UNL     1       5.437   5.474  19.717  0.00  0.00    +0.000 OA
BRANCH  16  18
ATOM     18  O   UNL     1       6.142   4.161  17.993  0.00  0.00    +0.000 OA
BRANCH  18  19
ATOM     19  C   UNL     1       5.948   4.656  16.658  0.00  0.00    +0.000 C 
ATOM     20  C   UNL     1       7.277   5.108  16.070  0.00  0.00    +0.000 C 
ATOM     21  C   UNL     1       7.053   5.097  14.569  0.00  0.00    +0.000 C 
ATOM     22  C   UNL     1       6.014   4.006  14.316  0.00  0.00    +0.000 C 
ATOM     23  C   UNL     1       5.510   3.557  15.690  0.00  0.00    +0.000 C 
ENDBRANCH  18  19
ENDBRANCH  16  18
ENDBRANCH   3  16
TORSDOF 4
ENDMDL
MODEL 4
REMARK VINA RESULT:      -6.9      2.080      5.487
REMARK  Name = 
REMARK  5 active torsions:
REMARK  status: ('A' for Active; 'I' for Inactive)
REMARK    1  A    between atoms: C_1  and  C_2
REMARK    2  A    between atoms: C_3  and  C_4
REMARK    3  A    between atoms: C_4  and  O_6
REMARK    4  A    between atoms: O_6  and  C_7
REMARK    5  A    between atoms: C_12  and  C_13
REMARK                            x       y       z     vdW  Elec       q    Type
REMARK                         _______ _______ _______ _____ _____    ______ ____
ROOT
ATOM      1  C   UNL     1       4.602   1.363  19.162  0.00  0.00    +0.000 C 
ATOM      2  C   UNL     1       3.558   2.365  18.737  0.00  0.00    +0.000 C 
ATOM      3  C   UNL     1       3.712   3.681  18.451  0.00  0.00    +0.000 C 
ATOM      4  C   UNL     1       2.522   4.492  17.995  0.00  0.00    +0.000 C 
ATOM      5  N   UNL     1       1.275   3.855  18.375  0.00  0.00    +0.000 N 
ATOM      6  C   UNL     1       1.137   2.517  18.518  0.00  0.00    +0.000 C 
ATOM      7  O   UNL     1       0.038   1.978  18.576  0.00  0.00    +0.000 OA
ATOM      8  N   UNL     1       2.294   1.813  18.657  0.00  0.00    +0.000 N 
ATOM      9  H   UNL     1       0.406   4.358  18.262  0.00  0.00    +0.000 HD
ATOM     10  H   UNL     1       2.158   0.830  18.852  0.00  0.00    +0.000 HD
ENDROOT
BRANCH   4  11
ATOM     11  C   UNL     1       2.444   5.880  18.556  0.00  0.00    +0.000 A 
ATOM     12  C   UNL     1       2.463   7.106  17.840  0.00  0.00    +0.000 A 
ATOM     13  C   UNL     1       2.283   8.102  18.773  0.00  0.00    +0.000 A 
ATOM     14  O   UNL     1       2.176   7.568  20.016  0.00  0.00    +0.000 OA
ATOM     15  C   UNL     1       2.282   6.225  19.881  0.00  0.00    +0.000 A 
ENDBRANCH   4  11
BRANCH   3  16
ATOM     16  C   UNL     1       5.036   4.348  18.593  0.00  0.00    +0.000 C 
ATOM     17  O   UNL     1       5.753   4.219  19.575  0.00  0.00    +0.000 OA
BRANCH  16  18
ATOM     18  O   UNL     1       5.357   5.135  17.526  0.00  0.00    +0.000 OA
BRANCH  18  19
ATOM     19  C   UNL     1       6.001   4.433  16.451  0.00  0.00    +0.000 C 
ATOM     20  C   UNL     1       5.046   4.290  15.274  0.00  0.00    +0.000 C 
ATOM     21  C   UNL     1       5.949   4.040  14.080  0.00  0.00    +0.000 C 
ATOM     22  C   UNL     1       7.258   4.760  14.396  0.00  0.00    +0.000 C 
ATOM     23  C   UNL     1       7.158   5.231  15.848  0.00  0.00    +0.000 C 
ENDBRANCH  18  19
ENDBRANCH  16  18
ENDBRANCH   3  16
TORSDOF 4
ENDMDL
MODEL 5
REMARK VINA RESULT:      -6.9      2.515      5.799
REMARK  Name = 
REMARK  5 active torsions:
REMARK  status: ('A' for Active; 'I' for Inactive)
REMARK    1  A    between atoms: C_1  and  C_2
REMARK    2  A    between atoms: C_3  and  C_4
REMARK    3  A    between atoms: C_4  and  O_6
REMARK    4  A    between atoms: O_6  and  C_7
REMARK    5  A    between atoms: C_12  and  C_13
REMARK                            x       y       z     vdW  Elec       q    Type
REMARK                         _______ _______ _______ _____ _____    ______ ____
ROOT
ATOM      1  C   UNL     1       2.771   8.095  17.371  0.00  0.00    +0.000 C 
ATOM      2  C   UNL     1       2.512   7.497  18.730  0.00  0.00    +0.000 C 
ATOM      3  C   UNL     1       2.806   6.253  19.179  0.00  0.00    +0.000 C 
ATOM      4  C   UNL     1       2.494   5.880  20.609  0.00  0.00    +0.000 C 
ATOM      5  N   UNL     1       1.491   6.762  21.176  0.00  0.00    +0.000 N 
ATOM      6  C   UNL     1       1.324   8.045  20.786  0.00  0.00    +0.000 C 
ATOM      7  O   UNL     1       0.669   8.846  21.442  0.00  0.00    +0.000 OA
ATOM      8  N   UNL     1       1.877   8.376  19.586  0.00  0.00    +0.000 N 
ATOM      9  H   UNL     1       1.084   6.538  22.074  0.00  0.00    +0.000 HD
ATOM     10  H   UNL     1       1.661   9.315  19.278  0.00  0.00    +0.000 HD
ENDROOT
BRANCH   4  11
ATOM     11  C   UNL     1       1.957   4.493  20.805  0.00  0.00    +0.000 A 
ATOM     12  C   UNL     1       2.409   3.511  21.726  0.00  0.00    +0.000 A 
ATOM     13  C   UNL     1       1.558   2.436  21.593  0.00  0.00    +0.000 A 
ATOM     14  O   UNL     1       0.629   2.688  20.636  0.00  0.00    +0.000 OA
ATOM     15  C   UNL     1       0.880   3.929  20.156  0.00  0.00    +0.000 A 
ENDBRANCH   4  11
BRANCH   3  16
ATOM     16  C   UNL     1       3.421   5.237  18.280  0.00  0.00    +0.000 C 
ATOM     17  O   UNL     1       2.843   4.751  17.318  0.00  0.00    +0.000 OA
BRANCH  16  18
ATOM     18  O   UNL     1       4.686   4.887  18.652  0.00  0.00    +0.000 OA
BRANCH  18  19
ATOM     19  C   UNL     1       5.625   5.974  18.635  0.00  0.00    +0.000 C 
ATOM     20  C   UNL     1       6.953   5.527  19.231  0.00  0.00    +0.000 C 
ATOM     21  C   UNL     1       7.965   6.522  18.693  0.00  0.00    +0.000 C 
ATOM     22  C   UNL     1       7.424   6.967  17.335  0.00  0.00    +0.000 C 
ATOM     23  C   UNL     1       6.015   6.381  17.214  0.00  0.00    +0.000 C 
ENDBRANCH  18  19
ENDBRANCH  16  18
ENDBRANCH   3  16
TORSDOF 4
ENDMDL
MODEL 6
REMARK VINA RESULT:      -6.9      3.225      6.153
REMARK  Name = 
REMARK  5 active torsions:
REMARK  status: ('A' for Active; 'I' for Inactive)
REMARK    1  A    between atoms: C_1  and  C_2
REMARK    2  A    between atoms: C_3  and  C_4
REMARK    3  A    between atoms: C_4  and  O_6
REMARK    4  A    between atoms: O_6  and  C_7
REMARK    5  A    between atoms: C_12  and  C_13
REMARK                            x       y       z     vdW  Elec       q    Type
REMARK                         _______ _______ _______ _____ _____    ______ ____
ROOT
ATOM      1  C   UNL     1       7.725   8.258  17.492  0.00  0.00    +0.000 C 
ATOM      2  C   UNL     1       7.300   6.895  17.978  0.00  0.00    +0.000 C 
ATOM      3  C   UNL     1       6.312   6.097  17.506  0.00  0.00    +0.000 C 
ATOM      4  C   UNL     1       6.092   4.736  18.122  0.00  0.00    +0.000 C 
ATOM      5  N   UNL     1       6.671   4.659  19.450  0.00  0.00    +0.000 N 
ATOM      6  C   UNL     1       7.747   5.382  19.834  0.00  0.00    +0.000 C 
ATOM      7  O   UNL     1       8.380   5.119  20.849  0.00  0.00    +0.000 OA
ATOM      8  N   UNL     1       8.046   6.459  19.056  0.00  0.00    +0.000 N 
ATOM      9  H   UNL     1       6.472   3.857  20.033  0.00  0.00    +0.000 HD
ATOM     10  H   UNL     1       8.798   7.032  19.416  0.00  0.00    +0.000 HD
ENDROOT
BRANCH   4  11
ATOM     11  C   UNL     1       4.656   4.338  18.293  0.00  0.00    +0.000 A 
ATOM     12  C   UNL     1       3.907   3.431  17.498  0.00  0.00    +0.000 A 
ATOM     13  C   UNL     1       2.669   3.328  18.091  0.00  0.00    +0.000 A 
ATOM     14  O   UNL     1       2.604   4.129  19.185  0.00  0.00    +0.000 OA
ATOM     15  C   UNL     1       3.804   4.744  19.298  0.00  0.00    +0.000 A 
ENDBRANCH   4  11
BRANCH   3  16
ATOM     16  C   UNL     1       5.427   6.545  16.394  0.00  0.00    +0.000 C 
ATOM     17  O   UNL     1       4.274   6.918  16.561  0.00  0.00    +0.000 OA
BRANCH  16  18
ATOM     18  O   UNL     1       6.025   6.475  15.171  0.00  0.00    +0.000 OA
BRANCH  18  19
ATOM     19  C   UNL     1       6.298   5.136  14.726  0.00  0.00    +0.000 C 
ATOM     20  C   UNL     1       5.059   4.538  14.075  0.00  0.00    +0.000 C 
ATOM     21  C   UNL     1       5.590   3.409  13.212  0.00  0.00    +0.000 C 
ATOM     22  C   UNL     1       6.995   3.836  12.793  0.00  0.00    +0.000 C 
ATOM     23  C   UNL     1       7.323   5.101  13.591  0.00  0.00    +0.000 C 
ENDBRANCH  18  19
ENDBRANCH  16  18
ENDBRANCH   3  16
TORSDOF 4
ENDMDL
MODEL 7
REMARK VINA RESULT:      -6.7      2.289      5.976
REMARK  Name = 
REMARK  5 active torsions:
REMARK  status: ('A' for Active; 'I' for Inactive)
REMARK    1  A    between atoms: C_1  and  C_2
REMARK    2  A    between atoms: C_3  and  C_4
REMARK    3  A    between atoms: C_4  and  O_6
REMARK    4  A    between atoms: O_6  and  C_7
REMARK    5  A    between atoms: C_12  and  C_13
REMARK                            x       y       z     vdW  Elec       q    Type
REMARK                         _______ _______ _______ _____ _____    ______ ____
ROOT
ATOM      1  C   UNL     1       1.996   8.853  17.602  0.00  0.00    +0.000 C 
ATOM      2  C   UNL     1       2.048   8.048  18.876  0.00  0.00    +0.000 C 
ATOM      3  C   UNL     1       2.538   6.800  19.072  0.00  0.00    +0.000 C 
ATOM      4  C   UNL     1       2.530   6.201  20.458  0.00  0.00    +0.000 C 
ATOM      5  N   UNL     1       1.566   6.868  21.314  0.00  0.00    +0.000 N 
ATOM      6  C   UNL     1       1.208   8.163  21.160  0.00  0.00    +0.000 C 
ATOM      7  O   UNL     1       0.609   8.781  22.032  0.00  0.00    +0.000 OA
ATOM      8  N   UNL     1       1.499   8.719  19.952  0.00  0.00    +0.000 N 
ATOM      9  H   UNL     1       1.353   6.477  22.221  0.00  0.00    +0.000 HD
ATOM     10  H   UNL     1       1.140   9.657  19.833  0.00  0.00    +0.000 HD
ENDROOT
BRANCH   4  11
ATOM     11  C   UNL     1       2.173   4.745  20.522  0.00  0.00    +0.000 A 
ATOM     12  C   UNL     1       0.885   4.163  20.399  0.00  0.00    +0.000 A 
ATOM     13  C   UNL     1       1.071   2.799  20.441  0.00  0.00    +0.000 A 
ATOM     14  O   UNL     1       2.387   2.510  20.602  0.00  0.00    +0.000 OA
ATOM     15  C   UNL     1       3.049   3.689  20.659  0.00  0.00    +0.000 A 
ENDBRANCH   4  11
BRANCH   3  16
ATOM     16  C   UNL     1       3.074   5.998  17.936  0.00  0.00    +0.000 C 
ATOM     17  O   UNL     1       2.460   5.079  17.412  0.00  0.00    +0.000 OA
BRANCH  16  18
ATOM     18  O   UNL     1       4.326   6.379  17.555  0.00  0.00    +0.000 OA
BRANCH  18  19
ATOM     19  C   UNL     1       5.218   5.284  17.289  0.00  0.00    +0.000 C 
ATOM     20  C   UNL     1       5.848   5.444  15.913  0.00  0.00    +0.000 C 
ATOM     21  C   UNL     1       7.099   4.586  15.965  0.00  0.00    +0.000 C 
ATOM     22  C   UNL     1       7.547   4.598  17.425  0.00  0.00    +0.000 C 
ATOM     23  C   UNL     1       6.433   5.288  18.217  0.00  0.00    +0.000 C 
ENDBRANCH  18  19
ENDBRANCH  16  18
ENDBRANCH   3  16
TORSDOF 4
ENDMDL
MODEL 8
REMARK VINA RESULT:      -6.7      2.423      6.134
REMARK  Name = 
REMARK  5 active torsions:
REMARK  status: ('A' for Active; 'I' for Inactive)
REMARK    1  A    between atoms: C_1  and  C_2
REMARK    2  A    between atoms: C_3  and  C_4
REMARK    3  A    between atoms: C_4  and  O_6
REMARK    4  A    between atoms: O_6  and  C_7
REMARK    5  A    between atoms: C_12  and  C_13
REMARK                            x       y       z     vdW  Elec       q    Type
REMARK                         _______ _______ _______ _____ _____    ______ ____
ROOT
ATOM      1  C   UNL     1       2.507   8.299  17.442  0.00  0.00    +0.000 C 
ATOM      2  C   UNL     1       2.349   7.648  18.793  0.00  0.00    +0.000 C 
ATOM      3  C   UNL     1       2.690   6.393  19.175  0.00  0.00    +0.000 C 
ATOM      4  C   UNL     1       2.482   5.964  20.608  0.00  0.00    +0.000 C 
ATOM      5  N   UNL     1       1.508   6.809  21.274  0.00  0.00    +0.000 N 
ATOM      6  C   UNL     1       1.298   8.103  20.943  0.00  0.00    +0.000 C 
ATOM      7  O   UNL     1       0.678   8.869  21.671  0.00  0.00    +0.000 OA
ATOM      8  N   UNL     1       1.763   8.486  19.722  0.00  0.00    +0.000 N 
ATOM      9  H   UNL     1       1.166   6.547  22.188  0.00  0.00    +0.000 HD
ATOM     10  H   UNL     1       1.514   9.431  19.463  0.00  0.00    +0.000 HD
ENDROOT
BRANCH   4  11
ATOM     11  C   UNL     1       1.978   4.563  20.788  0.00  0.00    +0.000 A 
ATOM     12  C   UNL     1       2.567   3.523  21.553  0.00  0.00    +0.000 A 
ATOM     13  C   UNL     1       1.703   2.453  21.482  0.00  0.00    +0.000 A 
ATOM     14  O   UNL     1       0.634   2.764  20.706  0.00  0.00    +0.000 OA
ATOM     15  C   UNL     1       0.809   4.038  20.282  0.00  0.00    +0.000 A 
ENDBRANCH   4  11
BRANCH   3  16
ATOM     16  C   UNL     1       3.256   5.420  18.199  0.00  0.00    +0.000 C 
ATOM     17  O   UNL     1       2.568   4.664  17.527  0.00  0.00    +0.000 OA
BRANCH  16  18
ATOM     18  O   UNL     1       4.618   5.442  18.148  0.00  0.00    +0.000 OA
BRANCH  18  19
ATOM     19  C   UNL     1       5.172   4.829  16.972  0.00  0.00    +0.000 C 
ATOM     20  C   UNL     1       5.177   5.822  15.819  0.00  0.00    +0.000 C 
ATOM     21  C   UNL     1       6.217   5.281  14.855  0.00  0.00    +0.000 C 
ATOM     22  C   UNL     1       7.237   4.544  15.720  0.00  0.00    +0.000 C 
ATOM     23  C   UNL     1       6.656   4.498  17.136  0.00  0.00    +0.000 C 
ENDBRANCH  18  19
ENDBRANCH  16  18
ENDBRANCH   3  16
TORSDOF 4
ENDMDL
MODEL 9
REMARK VINA RESULT:      -6.7      2.366      4.550
REMARK  Name = 
REMARK  5 active torsions:
REMARK  status: ('A' for Active; 'I' for Inactive)
REMARK    1  A    between atoms: C_1  and  C_2
REMARK    2  A    between atoms: C_3  and  C_4
REMARK    3  A    between atoms: C_4  and  O_6
REMARK    4  A    between atoms: O_6  and  C_7
REMARK    5  A    between atoms: C_12  and  C_13
REMARK                            x       y       z     vdW  Elec       q    Type
REMARK                         _______ _______ _______ _____ _____    ______ ____
ROOT
ATOM      1  C   UNL     1       3.359   8.118  17.629  0.00  0.00    +0.000 C 
ATOM      2  C   UNL     1       4.024   6.792  17.360  0.00  0.00    +0.000 C 
ATOM      3  C   UNL     1       3.533   5.543  17.545  0.00  0.00    +0.000 C 
ATOM      4  C   UNL     1       4.366   4.345  17.158  0.00  0.00    +0.000 C 
ATOM      5  N   UNL     1       5.774   4.689  17.072  0.00  0.00    +0.000 N 
ATOM      6  C   UNL     1       6.218   5.924  16.750  0.00  0.00    +0.000 C 
ATOM      7  O   UNL     1       7.380   6.134  16.423  0.00  0.00    +0.000 OA
ATOM      8  N   UNL     1       5.309   6.931  16.870  0.00  0.00    +0.000 N 
ATOM      9  H   UNL     1       6.459   3.953  16.965  0.00  0.00    +0.000 HD
ATOM     10  H   UNL     1       5.692   7.854  16.710  0.00  0.00    +0.000 HD
ENDROOT
BRANCH   4  11
ATOM     11  C   UNL     1       4.300   3.187  18.109  0.00  0.00    +0.000 A 
ATOM     12  C   UNL     1       3.685   1.926  17.896  0.00  0.00    +0.000 A 
ATOM     13  C   UNL     1       3.956   1.169  19.015  0.00  0.00    +0.000 A 
ATOM     14  O   UNL     1       4.680   1.892  19.906  0.00  0.00    +0.000 OA
ATOM     15  C   UNL     1       4.878   3.114  19.358  0.00  0.00    +0.000 A 
ENDBRANCH   4  11
BRANCH   3  16
ATOM     16  C   UNL     1       2.183   5.329  18.140  0.00  0.00    +0.000 C 
ATOM     17  O   UNL     1       1.268   4.773  17.549  0.00  0.00    +0.000 OA
BRANCH  16  18
ATOM     18  O   UNL     1       2.066   5.836  19.400  0.00  0.00    +0.000 OA
BRANCH  18  19
ATOM     19  C   UNL     1       1.497   4.921  20.351  0.00  0.00    +0.000 C 
ATOM     20  C   UNL     1       1.120   3.618  19.661  0.00  0.00    +0.000 C 
ATOM     21  C   UNL     1       1.047   2.600  20.784  0.00  0.00    +0.000 C 
ATOM     22  C   UNL     1       2.044   3.077  21.838  0.00  0.00    +0.000 C 
ATOM     23  C   UNL     1       2.516   4.464  21.396  0.00  0.00    +0.000 C 
ENDBRANCH  18  19
ENDBRANCH  16  18
ENDBRANCH   3  16
TORSDOF 4
ENDMDL
