MODEL 1
REMARK VINA RESULT:      -8.6      0.000      0.000
REMARK  Name = 
REMARK  6 active torsions:
REMARK  status: ('A' for Active; 'I' for Inactive)
REMARK    1  A    between atoms: C_1  and  C_2
REMARK    2  A    between atoms: C_6  and  C_7
REMARK    3  A    between atoms: C_7  and  N_8
REMARK    4  A    between atoms: C_7  and  C_9
REMARK    5  A    between atoms: C_14  and  C_15
REMARK    6  A    between atoms: C_22  and  C_23
REMARK                            x       y       z     vdW  Elec       q    Type
REMARK                         _______ _______ _______ _____ _____    ______ ____
ROOT
ATOM      1  C   UNL     1       2.443   7.414  18.859  0.00  0.00    +0.000 A 
ATOM      2  C   UNL     1       2.490   8.298  17.776  0.00  0.00    +0.000 A 
ATOM      3  C   UNL     1       1.891   9.559  17.838  0.00  0.00    +0.000 A 
ATOM      4  C   UNL     1       1.187   9.926  18.996  0.00  0.00    +0.000 A 
ATOM      5  S   UNL     1       0.372  11.405  19.263  0.00  0.00    +0.000 S 
ATOM      6  C   UNL     1      -0.314  10.884  20.754  0.00  0.00    +0.000 A 
ATOM      7  C   UNL     1       0.215   9.646  21.131  0.00  0.00    +0.000 A 
ATOM      8  C   UNL     1      -0.102   8.863  22.370  0.00  0.00    +0.000 C 
ATOM      9  C   UNL     1       1.081   9.081  20.093  0.00  0.00    +0.000 A 
ATOM     10  C   UNL     1       1.764   7.827  20.026  0.00  0.00    +0.000 A 
ENDROOT
BRANCH   6  11
ATOM     11  C   UNL     1      -1.328  11.769  21.378  0.00  0.00    +0.000 A 
ATOM     12  C   UNL     1      -1.386  12.020  22.729  0.00  0.00    +0.000 A 
ATOM     13  C   UNL     1      -2.442  12.793  23.153  0.00  0.00    +0.000 A 
ATOM     14  N   UNL     1      -3.355  13.322  22.326  0.00  0.00    +0.000 NA
ATOM     15  C   UNL     1      -3.204  13.057  21.029  0.00  0.00    +0.000 A 
ATOM     16  N   UNL     1      -4.104  13.645  20.159  0.00  0.00    +0.000 N 
ATOM     17  N   UNL     1      -2.224  12.309  20.516  0.00  0.00    +0.000 NA
ATOM     18  H   UNL     1      -4.546  14.428  20.618  0.00  0.00    +0.000 HD
ATOM     19  H   UNL     1      -3.660  13.821  19.272  0.00  0.00    +0.000 HD
ENDBRANCH   6  11
BRANCH   1  20
ATOM     20  C   UNL     1       3.182   6.076  18.736  0.00  0.00    +0.000 C 
BRANCH  20  26
ATOM     21  C   UNL     1       1.521   2.547  21.944  0.00  0.00    +0.000 C 
ATOM     22  C   UNL     1       1.531   3.119  20.557  0.00  0.00    +0.000 A 
ATOM     23  C   UNL     1       0.831   2.498  19.519  0.00  0.00    +0.000 A 
ATOM     24  C   UNL     1       0.859   3.038  18.236  0.00  0.00    +0.000 A 
ATOM     25  C   UNL     1       1.609   4.186  17.974  0.00  0.00    +0.000 A 
ATOM     26  C   UNL     1       2.351   4.817  18.989  0.00  0.00    +0.000 A 
ATOM     27  C   UNL     1       2.264   4.285  20.289  0.00  0.00    +0.000 A 
ENDBRANCH  20  26
BRANCH  20  28
ATOM     28  N   UNL     1       4.394   6.134  19.567  0.00  0.00    +0.000 NA
ATOM     29  H   UNL     1       4.205   5.622  20.427  0.00  0.00    +0.000 HD
ATOM     30  H   UNL     1       4.546   7.100  19.850  0.00  0.00    +0.000 HD
ENDBRANCH  20  28
ENDBRANCH   1  20
TORSDOF 4
ENDMDL
MODEL 2
REMARK VINA RESULT:      -8.4      2.900      4.583
REMARK  Name = 
REMARK  6 active torsions:
REMARK  status: ('A' for Active; 'I' for Inactive)
REMARK    1  A    between atoms: C_1  and  C_2
REMARK    2  A    between atoms: C_6  and  C_7
REMARK    3  A    between atoms: C_7  and  N_8
REMARK    4  A    between atoms: C_7  and  C_9
REMARK    5  A    between atoms: C_14  and  C_15
REMARK    6  A    between atoms: C_22  and  C_23
REMARK                            x       y       z     vdW  Elec       q    Type
REMARK                         _______ _______ _______ _____ _____    ______ ____
ROOT
ATOM      1  C   UNL     1       3.156   4.831  19.211  0.00  0.00    +0.000 A 
ATOM      2  C   UNL     1       2.615   4.642  20.487  0.00  0.00    +0.000 A 
ATOM      3  C   UNL     1       1.833   5.624  21.100  0.00  0.00    +0.000 A 
ATOM      4  C   UNL     1       1.623   6.845  20.439  0.00  0.00    +0.000 A 
ATOM      5  S   UNL     1       0.719   8.173  21.021  0.00  0.00    +0.000 S 
ATOM      6  C   UNL     1       1.181   9.200  19.718  0.00  0.00    +0.000 A 
ATOM      7  C   UNL     1       1.886   8.477  18.751  0.00  0.00    +0.000 A 
ATOM      8  C   UNL     1       2.441   8.994  17.458  0.00  0.00    +0.000 C 
ATOM      9  C   UNL     1       2.158   7.103  19.183  0.00  0.00    +0.000 A 
ATOM     10  C   UNL     1       2.894   6.053  18.553  0.00  0.00    +0.000 A 
ENDROOT
BRANCH   6  11
ATOM     11  C   UNL     1       0.801  10.630  19.816  0.00  0.00    +0.000 A 
ATOM     12  C   UNL     1       1.090  11.417  20.907  0.00  0.00    +0.000 A 
ATOM     13  C   UNL     1       0.589  12.697  20.875  0.00  0.00    +0.000 A 
ATOM     14  N   UNL     1      -0.106  13.198  19.843  0.00  0.00    +0.000 NA
ATOM     15  C   UNL     1      -0.310  12.379  18.813  0.00  0.00    +0.000 A 
ATOM     16  N   UNL     1      -0.974  12.900  17.717  0.00  0.00    +0.000 N 
ATOM     17  N   UNL     1       0.120  11.117  18.750  0.00  0.00    +0.000 NA
ATOM     18  H   UNL     1      -0.927  13.908  17.751  0.00  0.00    +0.000 HD
ATOM     19  H   UNL     1      -0.654  12.451  16.875  0.00  0.00    +0.000 HD
ENDBRANCH   6  11
BRANCH   1  20
ATOM     20  C   UNL     1       3.948   3.680  18.580  0.00  0.00    +0.000 C 
BRANCH  20  26
ATOM     21  C   UNL     1       5.943   4.044  13.955  0.00  0.00    +0.000 C 
ATOM     22  C   UNL     1       6.075   4.270  15.432  0.00  0.00    +0.000 A 
ATOM     23  C   UNL     1       7.252   4.794  15.976  0.00  0.00    +0.000 A 
ATOM     24  C   UNL     1       7.361   4.989  17.349  0.00  0.00    +0.000 A 
ATOM     25  C   UNL     1       6.306   4.636  18.194  0.00  0.00    +0.000 A 
ATOM     26  C   UNL     1       5.121   4.077  17.683  0.00  0.00    +0.000 A 
ATOM     27  C   UNL     1       5.013   3.939  16.287  0.00  0.00    +0.000 A 
ENDBRANCH  20  26
BRANCH  20  28
ATOM     28  N   UNL     1       3.002   2.773  17.912  0.00  0.00    +0.000 NA
ATOM     29  H   UNL     1       2.518   3.307  17.192  0.00  0.00    +0.000 HD
ATOM     30  H   UNL     1       2.285   2.503  18.582  0.00  0.00    +0.000 HD
ENDBRANCH  20  28
ENDBRANCH   1  20
TORSDOF 4
ENDMDL
MODEL 3
REMARK VINA RESULT:      -8.3      1.977      2.873
REMARK  Name = 
REMARK  6 active torsions:
REMARK  status: ('A' for Active; 'I' for Inactive)
REMARK    1  A    between atoms: C_1  and  C_2
REMARK    2  A    between atoms: C_6  and  C_7
REMARK    3  A    between atoms: C_7  and  N_8
REMARK    4  A    between atoms: C_7  and  C_9
REMARK    5  A    between atoms: C_14  and  C_15
REMARK    6  A    between atoms: C_22  and  C_23
REMARK                            x       y       z     vdW  Elec       q    Type
REMARK                         _______ _______ _______ _____ _____    ______ ____
ROOT
ATOM      1  C   UNL     1       2.395   6.751  19.131  0.00  0.00    +0.000 A 
ATOM      2  C   UNL     1       2.518   7.448  17.924  0.00  0.00    +0.000 A 
ATOM      3  C   UNL     1       2.072   8.766  17.795  0.00  0.00    +0.000 A 
ATOM      4  C   UNL     1       1.445   9.388  18.887  0.00  0.00    +0.000 A 
ATOM      5  S   UNL     1       0.816  10.976  18.928  0.00  0.00    +0.000 S 
ATOM      6  C   UNL     1       0.111  10.775  20.487  0.00  0.00    +0.000 A 
ATOM      7  C   UNL     1       0.500   9.555  21.046  0.00  0.00    +0.000 A 
ATOM      8  C   UNL     1       0.125   9.013  22.393  0.00  0.00    +0.000 C 
ATOM      9  C   UNL     1       1.268   8.738  20.102  0.00  0.00    +0.000 A 
ATOM     10  C   UNL     1       1.798   7.416  20.225  0.00  0.00    +0.000 A 
ENDROOT
BRANCH   6  11
ATOM     11  C   UNL     1      -0.776  11.859  20.972  0.00  0.00    +0.000 A 
ATOM     12  C   UNL     1      -0.515  12.605  22.099  0.00  0.00    +0.000 A 
ATOM     13  C   UNL     1      -1.484  13.511  22.459  0.00  0.00    +0.000 A 
ATOM     14  N   UNL     1      -2.609  13.715  21.758  0.00  0.00    +0.000 NA
ATOM     15  C   UNL     1      -2.767  12.975  20.662  0.00  0.00    +0.000 A 
ATOM     16  N   UNL     1      -3.893  13.216  19.897  0.00  0.00    +0.000 N 
ATOM     17  N   UNL     1      -1.894  12.060  20.232  0.00  0.00    +0.000 NA
ATOM     18  H   UNL     1      -4.261  14.127  20.128  0.00  0.00    +0.000 HD
ATOM     19  H   UNL     1      -3.697  13.029  18.927  0.00  0.00    +0.000 HD
ENDBRANCH   6  11
BRANCH   1  20
ATOM     20  C   UNL     1       2.968   5.331  19.211  0.00  0.00    +0.000 C 
BRANCH  20  26
ATOM     21  C   UNL     1       7.994   5.806  19.096  0.00  0.00    +0.000 C 
ATOM     22  C   UNL     1       6.736   5.309  18.448  0.00  0.00    +0.000 A 
ATOM     23  C   UNL     1       6.772   4.679  17.200  0.00  0.00    +0.000 A 
ATOM     24  C   UNL     1       5.593   4.233  16.609  0.00  0.00    +0.000 A 
ATOM     25  C   UNL     1       4.368   4.436  17.246  0.00  0.00    +0.000 A 
ATOM     26  C   UNL     1       4.293   5.094  18.487  0.00  0.00    +0.000 A 
ATOM     27  C   UNL     1       5.502   5.489  19.090  0.00  0.00    +0.000 A 
ENDBRANCH  20  26
BRANCH  20  28
ATOM     28  N   UNL     1       1.920   4.382  18.807  0.00  0.00    +0.000 NA
ATOM     29  H   UNL     1       1.294   4.866  18.165  0.00  0.00    +0.000 HD
ATOM     30  H   UNL     1       1.355   4.157  19.623  0.00  0.00    +0.000 HD
ENDBRANCH  20  28
ENDBRANCH   1  20
TORSDOF 4
ENDMDL
MODEL 4
REMARK VINA RESULT:      -8.3      1.133      1.255
REMARK  Name = 
REMARK  6 active torsions:
REMARK  status: ('A' for Active; 'I' for Inactive)
REMARK    1  A    between atoms: C_1  and  C_2
REMARK    2  A    between atoms: C_6  and  C_7
REMARK    3  A    between atoms: C_7  and  N_8
REMARK    4  A    between atoms: C_7  and  C_9
REMARK    5  A    between atoms: C_14  and  C_15
REMARK    6  A    between atoms: C_22  and  C_23
REMARK                            x       y       z     vdW  Elec       q    Type
REMARK                         _______ _______ _______ _____ _____    ______ ____
ROOT
ATOM      1  C   UNL     1       2.361   7.395  18.916  0.00  0.00    +0.000 A 
ATOM      2  C   UNL     1       2.086   8.157  17.776  0.00  0.00    +0.000 A 
ATOM      3  C   UNL     1       1.500   9.422  17.869  0.00  0.00    +0.000 A 
ATOM      4  C   UNL     1       1.138   9.918  19.132  0.00  0.00    +0.000 A 
ATOM      5  S   UNL     1       0.397  11.424  19.458  0.00  0.00    +0.000 S 
ATOM      6  C   UNL     1       0.165  11.072  21.128  0.00  0.00    +0.000 A 
ATOM      7  C   UNL     1       0.804   9.877  21.471  0.00  0.00    +0.000 A 
ATOM      8  C   UNL     1       0.861   9.234  22.824  0.00  0.00    +0.000 C 
ATOM      9  C   UNL     1       1.359   9.196  20.298  0.00  0.00    +0.000 A 
ATOM     10  C   UNL     1       2.024   7.937  20.176  0.00  0.00    +0.000 A 
ENDROOT
BRANCH   6  11
ATOM     11  C   UNL     1      -0.655  12.027  21.912  0.00  0.00    +0.000 A 
ATOM     12  C   UNL     1      -0.318  13.350  22.085  0.00  0.00    +0.000 A 
ATOM     13  C   UNL     1      -1.141  14.077  22.913  0.00  0.00    +0.000 A 
ATOM     14  N   UNL     1      -2.237  13.575  23.501  0.00  0.00    +0.000 NA
ATOM     15  C   UNL     1      -2.508  12.294  23.252  0.00  0.00    +0.000 A 
ATOM     16  N   UNL     1      -3.668  11.779  23.803  0.00  0.00    +0.000 N 
ATOM     17  N   UNL     1      -1.769  11.499  22.475  0.00  0.00    +0.000 NA
ATOM     18  H   UNL     1      -4.282  12.540  24.054  0.00  0.00    +0.000 HD
ATOM     19  H   UNL     1      -4.043  11.060  23.206  0.00  0.00    +0.000 HD
ENDBRANCH   6  11
BRANCH   1  20
ATOM     20  C   UNL     1       3.065   6.045  18.734  0.00  0.00    +0.000 C 
BRANCH  20  26
ATOM     21  C   UNL     1       1.387   2.606  22.030  0.00  0.00    +0.000 C 
ATOM     22  C   UNL     1       1.398   3.145  20.630  0.00  0.00    +0.000 A 
ATOM     23  C   UNL     1       0.690   2.504  19.608  0.00  0.00    +0.000 A 
ATOM     24  C   UNL     1       0.720   3.013  18.313  0.00  0.00    +0.000 A 
ATOM     25  C   UNL     1       1.477   4.149  18.022  0.00  0.00    +0.000 A 
ATOM     26  C   UNL     1       2.225   4.799  19.019  0.00  0.00    +0.000 A 
ATOM     27  C   UNL     1       2.139   4.298  20.331  0.00  0.00    +0.000 A 
ENDBRANCH  20  26
BRANCH  20  28
ATOM     28  N   UNL     1       4.324   6.069  19.494  0.00  0.00    +0.000 NA
ATOM     29  H   UNL     1       5.090   6.111  18.823  0.00  0.00    +0.000 HD
ATOM     30  H   UNL     1       4.429   5.177  19.974  0.00  0.00    +0.000 HD
ENDBRANCH  20  28
ENDBRANCH   1  20
TORSDOF 4
ENDMDL
MODEL 5
REMARK VINA RESULT:      -8.3      2.092      3.174
REMARK  Name = 
REMARK  6 active torsions:
REMARK  status: ('A' for Active; 'I' for Inactive)
REMARK    1  A    between atoms: C_1  and  C_2
REMARK    2  A    between atoms: C_6  and  C_7
REMARK    3  A    between atoms: C_7  and  N_8
REMARK    4  A    between atoms: C_7  and  C_9
REMARK    5  A    between atoms: C_14  and  C_15
REMARK    6  A    between atoms: C_22  and  C_23
REMARK                            x       y       z     vdW  Elec       q    Type
REMARK                         _______ _______ _______ _____ _____    ______ ____
ROOT
ATOM      1  C   UNL     1       2.623   6.684  19.040  0.00  0.00    +0.000 A 
ATOM      2  C   UNL     1       2.776   7.418  17.859  0.00  0.00    +0.000 A 
ATOM      3  C   UNL     1       2.297   8.726  17.747  0.00  0.00    +0.000 A 
ATOM      4  C   UNL     1       1.607   9.298  18.827  0.00  0.00    +0.000 A 
ATOM      5  S   UNL     1       0.930  10.866  18.885  0.00  0.00    +0.000 S 
ATOM      6  C   UNL     1       0.166  10.600  20.406  0.00  0.00    +0.000 A 
ATOM      7  C   UNL     1       0.567   9.376  20.948  0.00  0.00    +0.000 A 
ATOM      8  C   UNL     1       0.152   8.786  22.262  0.00  0.00    +0.000 C 
ATOM      9  C   UNL     1       1.398   8.609  20.015  0.00  0.00    +0.000 A 
ATOM     10  C   UNL     1       1.960   7.299  20.124  0.00  0.00    +0.000 A 
ENDROOT
BRANCH   6  11
ATOM     11  C   UNL     1      -0.773  11.645  20.883  0.00  0.00    +0.000 A 
ATOM     12  C   UNL     1      -0.597  12.343  22.055  0.00  0.00    +0.000 A 
ATOM     13  C   UNL     1      -1.605  13.214  22.394  0.00  0.00    +0.000 A 
ATOM     14  N   UNL     1      -2.689  13.429  21.634  0.00  0.00    +0.000 NA
ATOM     15  C   UNL     1      -2.763  12.737  20.498  0.00  0.00    +0.000 A 
ATOM     16  N   UNL     1      -3.845  12.992  19.675  0.00  0.00    +0.000 N 
ATOM     17  N   UNL     1      -1.847  11.858  20.083  0.00  0.00    +0.000 NA
ATOM     18  H   UNL     1      -4.246  13.884  19.923  0.00  0.00    +0.000 HD
ATOM     19  H   UNL     1      -3.586  12.853  18.712  0.00  0.00    +0.000 HD
ENDBRANCH   6  11
BRANCH   1  20
ATOM     20  C   UNL     1       3.233   5.279  19.105  0.00  0.00    +0.000 C 
BRANCH  20  26
ATOM     21  C   UNL     1       6.040   3.844  15.160  0.00  0.00    +0.000 C 
ATOM     22  C   UNL     1       5.968   4.430  16.539  0.00  0.00    +0.000 A 
ATOM     23  C   UNL     1       7.131   4.775  17.235  0.00  0.00    +0.000 A 
ATOM     24  C   UNL     1       7.044   5.308  18.518  0.00  0.00    +0.000 A 
ATOM     25  C   UNL     1       5.799   5.475  19.127  0.00  0.00    +0.000 A 
ATOM     26  C   UNL     1       4.613   5.109  18.467  0.00  0.00    +0.000 A 
ATOM     27  C   UNL     1       4.720   4.621  17.151  0.00  0.00    +0.000 A 
ENDBRANCH  20  26
BRANCH  20  28
ATOM     28  N   UNL     1       2.246   4.316  18.592  0.00  0.00    +0.000 NA
ATOM     29  H   UNL     1       1.319   4.706  18.757  0.00  0.00    +0.000 HD
ATOM     30  H   UNL     1       2.294   3.471  19.158  0.00  0.00    +0.000 HD
ENDBRANCH  20  28
ENDBRANCH   1  20
TORSDOF 4
ENDMDL
MODEL 6
REMARK VINA RESULT:      -8.3      2.927      8.550
REMARK  Name = 
REMARK  6 active torsions:
REMARK  status: ('A' for Active; 'I' for Inactive)
REMARK    1  A    between atoms: C_1  and  C_2
REMARK    2  A    between atoms: C_6  and  C_7
REMARK    3  A    between atoms: C_7  and  N_8
REMARK    4  A    between atoms: C_7  and  C_9
REMARK    5  A    between atoms: C_14  and  C_15
REMARK    6  A    between atoms: C_22  and  C_23
REMARK                            x       y       z     vdW  Elec       q    Type
REMARK                         _______ _______ _______ _____ _____    ______ ____
ROOT
ATOM      1  C   UNL     1      -0.121  10.513  19.400  0.00  0.00    +0.000 A 
ATOM      2  C   UNL     1      -0.514  10.112  20.681  0.00  0.00    +0.000 A 
ATOM      3  C   UNL     1       0.070   9.010  21.311  0.00  0.00    +0.000 A 
ATOM      4  C   UNL     1       1.039   8.262  20.623  0.00  0.00    +0.000 A 
ATOM      5  S   UNL     1       1.855   6.877  21.205  0.00  0.00    +0.000 S 
ATOM      6  C   UNL     1       2.623   6.561  19.696  0.00  0.00    +0.000 A 
ATOM      7  C   UNL     1       2.389   7.607  18.798  0.00  0.00    +0.000 A 
ATOM      8  C   UNL     1       2.899   7.728  17.394  0.00  0.00    +0.000 C 
ATOM      9  C   UNL     1       1.450   8.594  19.338  0.00  0.00    +0.000 A 
ATOM     10  C   UNL     1       0.885   9.767  18.749  0.00  0.00    +0.000 A 
ENDROOT
BRANCH   6  11
ATOM     11  C   UNL     1       3.362   5.281  19.569  0.00  0.00    +0.000 A 
ATOM     12  C   UNL     1       2.824   4.059  19.901  0.00  0.00    +0.000 A 
ATOM     13  C   UNL     1       3.673   2.982  19.807  0.00  0.00    +0.000 A 
ATOM     14  N   UNL     1       4.942   3.070  19.381  0.00  0.00    +0.000 NA
ATOM     15  C   UNL     1       5.371   4.286  19.047  0.00  0.00    +0.000 A 
ATOM     16  N   UNL     1       6.658   4.384  18.549  0.00  0.00    +0.000 N 
ATOM     17  N   UNL     1       4.634   5.397  19.114  0.00  0.00    +0.000 NA
ATOM     18  H   UNL     1       6.960   3.474  18.232  0.00  0.00    +0.000 HD
ATOM     19  H   UNL     1       6.717   5.145  17.893  0.00  0.00    +0.000 HD
ENDBRANCH   6  11
BRANCH   1  20
ATOM     20  C   UNL     1      -0.764  11.772  18.805  0.00  0.00    +0.000 C 
BRANCH  20  26
ATOM     21  C   UNL     1      -3.322  10.334  14.695  0.00  0.00    +0.000 C 
ATOM     22  C   UNL     1      -3.340  10.857  16.101  0.00  0.00    +0.000 A 
ATOM     23  C   UNL     1      -4.544  11.193  16.728  0.00  0.00    +0.000 A 
ATOM     24  C   UNL     1      -4.540  11.686  18.029  0.00  0.00    +0.000 A 
ATOM     25  C   UNL     1      -3.333  11.874  18.705  0.00  0.00    +0.000 A 
ATOM     26  C   UNL     1      -2.103  11.577  18.092  0.00  0.00    +0.000 A 
ATOM     27  C   UNL     1      -2.133  11.030  16.797  0.00  0.00    +0.000 A 
ENDBRANCH  20  26
BRANCH  20  28
ATOM     28  N   UNL     1       0.234  12.452  17.964  0.00  0.00    +0.000 NA
ATOM     29  H   UNL     1       0.474  11.824  17.198  0.00  0.00    +0.000 HD
ATOM     30  H   UNL     1       1.090  12.564  18.505  0.00  0.00    +0.000 HD
ENDBRANCH  20  28
ENDBRANCH   1  20
TORSDOF 4
ENDMDL
MODEL 7
REMARK VINA RESULT:      -8.3      2.040      3.159
REMARK  Name = 
REMARK  6 active torsions:
REMARK  status: ('A' for Active; 'I' for Inactive)
REMARK    1  A    between atoms: C_1  and  C_2
REMARK    2  A    between atoms: C_6  and  C_7
REMARK    3  A    between atoms: C_7  and  N_8
REMARK    4  A    between atoms: C_7  and  C_9
REMARK    5  A    between atoms: C_14  and  C_15
REMARK    6  A    between atoms: C_22  and  C_23
REMARK                            x       y       z     vdW  Elec       q    Type
REMARK                         _______ _______ _______ _____ _____    ______ ____
ROOT
ATOM      1  C   UNL     1       1.393   8.713  19.209  0.00  0.00    +0.000 A 
ATOM      2  C   UNL     1       1.746   8.054  20.391  0.00  0.00    +0.000 A 
ATOM      3  C   UNL     1       1.158   8.385  21.614  0.00  0.00    +0.000 A 
ATOM      4  C   UNL     1       0.226   9.434  21.664  0.00  0.00    +0.000 A 
ATOM      5  S   UNL     1      -0.588  10.004  23.055  0.00  0.00    +0.000 S 
ATOM      6  C   UNL     1      -1.296  11.339  22.228  0.00  0.00    +0.000 A 
ATOM      7  C   UNL     1      -1.047  11.252  20.855  0.00  0.00    +0.000 A 
ATOM      8  C   UNL     1      -1.508  12.200  19.788  0.00  0.00    +0.000 C 
ATOM      9  C   UNL     1      -0.144  10.145  20.530  0.00  0.00    +0.000 A 
ATOM     10  C   UNL     1       0.423   9.737  19.283  0.00  0.00    +0.000 A 
ENDROOT
BRANCH   6  11
ATOM     11  C   UNL     1      -2.009  12.344  23.053  0.00  0.00    +0.000 A 
ATOM     12  C   UNL     1      -1.502  13.593  23.332  0.00  0.00    +0.000 A 
ATOM     13  C   UNL     1      -2.252  14.369  24.184  0.00  0.00    +0.000 A 
ATOM     14  N   UNL     1      -3.429  13.986  24.699  0.00  0.00    +0.000 NA
ATOM     15  C   UNL     1      -3.863  12.775  24.349  0.00  0.00    +0.000 A 
ATOM     16  N   UNL     1      -5.103  12.390  24.824  0.00  0.00    +0.000 N 
ATOM     17  N   UNL     1      -3.207  11.939  23.541  0.00  0.00    +0.000 NA
ATOM     18  H   UNL     1      -5.617  13.210  25.110  0.00  0.00    +0.000 HD
ATOM     19  H   UNL     1      -5.548  11.772  24.165  0.00  0.00    +0.000 HD
ENDBRANCH   6  11
BRANCH   1  20
ATOM     20  C   UNL     1       2.036   8.247  17.897  0.00  0.00    +0.000 C 
BRANCH  20  26
ATOM     21  C   UNL     1       1.711   3.221  18.268  0.00  0.00    +0.000 C 
ATOM     22  C   UNL     1       2.562   4.443  18.089  0.00  0.00    +0.000 A 
ATOM     23  C   UNL     1       3.954   4.341  17.992  0.00  0.00    +0.000 A 
ATOM     24  C   UNL     1       4.728   5.487  17.836  0.00  0.00    +0.000 A 
ATOM     25  C   UNL     1       4.123   6.745  17.802  0.00  0.00    +0.000 A 
ATOM     26  C   UNL     1       2.730   6.885  17.929  0.00  0.00    +0.000 A 
ATOM     27  C   UNL     1       1.962   5.710  18.033  0.00  0.00    +0.000 A 
ENDBRANCH  20  26
BRANCH  20  28
ATOM     28  N   UNL     1       2.910   9.319  17.399  0.00  0.00    +0.000 NA
ATOM     29  H   UNL     1       3.271   9.029  16.491  0.00  0.00    +0.000 HD
ATOM     30  H   UNL     1       3.723   9.383  18.009  0.00  0.00    +0.000 HD
ENDBRANCH  20  28
ENDBRANCH   1  20
TORSDOF 4
ENDMDL
MODEL 8
REMARK VINA RESULT:      -8.3      0.805      1.315
REMARK  Name = 
REMARK  6 active torsions:
REMARK  status: ('A' for Active; 'I' for Inactive)
REMARK    1  A    between atoms: C_1  and  C_2
REMARK    2  A    between atoms: C_6  and  C_7
REMARK    3  A    between atoms: C_7  and  N_8
REMARK    4  A    between atoms: C_7  and  C_9
REMARK    5  A    between atoms: C_14  and  C_15
REMARK    6  A    between atoms: C_22  and  C_23
REMARK                            x       y       z     vdW  Elec       q    Type
REMARK                         _______ _______ _______ _____ _____    ______ ____
ROOT
ATOM      1  C   UNL     1       2.528   7.319  18.800  0.00  0.00    +0.000 A 
ATOM      2  C   UNL     1       2.627   8.152  17.680  0.00  0.00    +0.000 A 
ATOM      3  C   UNL     1       2.066   9.432  17.673  0.00  0.00    +0.000 A 
ATOM      4  C   UNL     1       1.348   9.872  18.797  0.00  0.00    +0.000 A 
ATOM      5  S   UNL     1       0.574  11.385  18.980  0.00  0.00    +0.000 S 
ATOM      6  C   UNL     1      -0.160  10.952  20.476  0.00  0.00    +0.000 A 
ATOM      7  C   UNL     1       0.320   9.717  20.919  0.00  0.00    +0.000 A 
ATOM      8  C   UNL     1      -0.048   9.000  22.183  0.00  0.00    +0.000 C 
ATOM      9  C   UNL     1       1.191   9.080  19.927  0.00  0.00    +0.000 A 
ATOM     10  C   UNL     1       1.836   7.804  19.931  0.00  0.00    +0.000 A 
ENDROOT
BRANCH   6  11
ATOM     11  C   UNL     1      -1.160  11.894  21.036  0.00  0.00    +0.000 A 
ATOM     12  C   UNL     1      -2.382  12.137  20.452  0.00  0.00    +0.000 A 
ATOM     13  C   UNL     1      -3.154  13.104  21.052  0.00  0.00    +0.000 A 
ATOM     14  N   UNL     1      -2.791  13.763  22.162  0.00  0.00    +0.000 NA
ATOM     15  C   UNL     1      -1.607  13.442  22.681  0.00  0.00    +0.000 A 
ATOM     16  N   UNL     1      -1.245  14.070  23.859  0.00  0.00    +0.000 N 
ATOM     17  N   UNL     1      -0.777  12.529  22.171  0.00  0.00    +0.000 NA
ATOM     18  H   UNL     1      -2.071  14.445  24.301  0.00  0.00    +0.000 HD
ATOM     19  H   UNL     1      -0.664  13.460  24.410  0.00  0.00    +0.000 HD
ENDBRANCH   6  11
BRANCH   1  20
ATOM     20  C   UNL     1       3.226   5.955  18.753  0.00  0.00    +0.000 C 
BRANCH  20  26
ATOM     21  C   UNL     1       1.469   2.515  22.006  0.00  0.00    +0.000 C 
ATOM     22  C   UNL     1       1.482   3.079  20.616  0.00  0.00    +0.000 A 
ATOM     23  C   UNL     1       0.740   2.483  19.591  0.00  0.00    +0.000 A 
ATOM     24  C   UNL     1       0.772   3.014  18.306  0.00  0.00    +0.000 A 
ATOM     25  C   UNL     1       1.565   4.129  18.026  0.00  0.00    +0.000 A 
ATOM     26  C   UNL     1       2.347   4.734  19.026  0.00  0.00    +0.000 A 
ATOM     27  C   UNL     1       2.259   4.212  20.330  0.00  0.00    +0.000 A 
ENDBRANCH  20  26
BRANCH  20  28
ATOM     28  N   UNL     1       4.412   6.008  19.622  0.00  0.00    +0.000 NA
ATOM     29  H   UNL     1       5.236   5.966  19.024  0.00  0.00    +0.000 HD
ATOM     30  H   UNL     1       4.439   5.160  20.185  0.00  0.00    +0.000 HD
ENDBRANCH  20  28
ENDBRANCH   1  20
TORSDOF 4
ENDMDL
MODEL 9
REMARK VINA RESULT:      -8.2      1.593      2.393
REMARK  Name = 
REMARK  6 active torsions:
REMARK  status: ('A' for Active; 'I' for Inactive)
REMARK    1  A    between atoms: C_1  and  C_2
REMARK    2  A    between atoms: C_6  and  C_7
REMARK    3  A    between atoms: C_7  and  N_8
REMARK    4  A    between atoms: C_7  and  C_9
REMARK    5  A    between atoms: C_14  and  C_15
REMARK    6  A    between atoms: C_22  and  C_23
REMARK                            x       y       z     vdW  Elec       q    Type
REMARK                         _______ _______ _______ _____ _____    ______ ____
ROOT
ATOM      1  C   UNL     1       2.225   7.301  19.767  0.00  0.00    +0.000 A 
ATOM      2  C   UNL     1       2.308   7.840  18.479  0.00  0.00    +0.000 A 
ATOM      3  C   UNL     1       1.704   9.058  18.158  0.00  0.00    +0.000 A 
ATOM      4  C   UNL     1       0.958   9.732  19.139  0.00  0.00    +0.000 A 
ATOM      5  S   UNL     1       0.130  11.215  18.945  0.00  0.00    +0.000 S 
ATOM      6  C   UNL     1      -0.607  11.133  20.499  0.00  0.00    +0.000 A 
ATOM      7  C   UNL     1      -0.089  10.061  21.231  0.00  0.00    +0.000 A 
ATOM      8  C   UNL     1      -0.448   9.661  22.631  0.00  0.00    +0.000 C 
ATOM      9  C   UNL     1       0.815   9.234  20.427  0.00  0.00    +0.000 A 
ATOM     10  C   UNL     1       1.503   8.022  20.744  0.00  0.00    +0.000 A 
ENDROOT
BRANCH   6  11
ATOM     11  C   UNL     1      -1.645  12.147  20.809  0.00  0.00    +0.000 A 
ATOM     12  C   UNL     1      -1.563  13.013  21.875  0.00  0.00    +0.000 A 
ATOM     13  C   UNL     1      -2.652  13.829  22.072  0.00  0.00    +0.000 A 
ATOM     14  N   UNL     1      -3.727  13.841  21.271  0.00  0.00    +0.000 NA
ATOM     15  C   UNL     1      -3.709  12.994  20.242  0.00  0.00    +0.000 A 
ATOM     16  N   UNL     1      -4.785  13.037  19.374  0.00  0.00    +0.000 N 
ATOM     17  N   UNL     1      -2.710  12.152  19.970  0.00  0.00    +0.000 NA
ATOM     18  H   UNL     1      -5.267  13.916  19.488  0.00  0.00    +0.000 HD
ATOM     19  H   UNL     1      -4.487  12.790  18.444  0.00  0.00    +0.000 HD
ENDBRANCH   6  11
BRANCH   1  20
ATOM     20  C   UNL     1       2.970   5.993  20.057  0.00  0.00    +0.000 C 
BRANCH  20  26
ATOM     21  C   UNL     1       6.653   4.735  16.838  0.00  0.00    +0.000 C 
ATOM     22  C   UNL     1       5.232   4.571  17.292  0.00  0.00    +0.000 A 
ATOM     23  C   UNL     1       4.348   3.739  16.598  0.00  0.00    +0.000 A 
ATOM     24  C   UNL     1       3.031   3.607  17.028  0.00  0.00    +0.000 A 
ATOM     25  C   UNL     1       2.579   4.324  18.137  0.00  0.00    +0.000 A 
ATOM     26  C   UNL     1       3.433   5.193  18.838  0.00  0.00    +0.000 A 
ATOM     27  C   UNL     1       4.774   5.271  18.418  0.00  0.00    +0.000 A 
ENDBRANCH  20  26
BRANCH  20  28
ATOM     28  N   UNL     1       2.162   5.192  20.989  0.00  0.00    +0.000 NA
ATOM     29  H   UNL     1       1.206   5.179  20.638  0.00  0.00    +0.000 HD
ATOM     30  H   UNL     1       2.120   5.680  21.882  0.00  0.00    +0.000 HD
ENDBRANCH  20  28
ENDBRANCH   1  20
TORSDOF 4
ENDMDL
