MODEL 1
REMARK VINA RESULT:      -7.7      0.000      0.000
REMARK  Name = 
REMARK  6 active torsions:
REMARK  status: ('A' for Active; 'I' for Inactive)
REMARK    1  A    between atoms: C_1  and  N_2
REMARK    2  A    between atoms: N_2  and  C_3
REMARK    3  A    between atoms: C_3  and  C_4
REMARK    4  A    between atoms: C_6  and  S_7
REMARK    5  A    between atoms: S_7  and  C_10
REMARK    6  A    between atoms: N_16  and  C_17
REMARK                            x       y       z     vdW  Elec       q    Type
REMARK                         _______ _______ _______ _____ _____    ______ ____
ROOT
ATOM      1  C   UNL     1       5.694   5.326  16.408  0.00  0.00    +0.000 A 
ATOM      2  C   UNL     1       4.847   4.224  16.660  0.00  0.00    +0.000 A 
ATOM      3  C   UNL     1       3.702   4.651  17.329  0.00  0.00    +0.000 A 
ATOM      4  N   UNL     1       3.855   6.021  17.563  0.00  0.00    +0.000 N 
ATOM      5  C   UNL     1       5.057   6.408  16.977  0.00  0.00    +0.000 A 
ENDROOT
BRANCH   4   6
ATOM      6  C   UNL     1       2.960   6.945  18.189  0.00  0.00    +0.000 A 
ATOM      7  C   UNL     1       2.426   8.029  17.493  0.00  0.00    +0.000 A 
ATOM      8  C   UNL     1       1.686   9.012  18.149  0.00  0.00    +0.000 A 
ATOM      9  C   UNL     1       1.389   8.874  19.499  0.00  0.00    +0.000 A 
ATOM     10  C   UNL     1       1.820   7.741  20.184  0.00  0.00    +0.000 A 
ATOM     11  C   UNL     1       2.607   6.780  19.538  0.00  0.00    +0.000 A 
ENDBRANCH   4   6
BRANCH   3  12
ATOM     12  S   UNL     1       2.220   3.677  17.581  0.00  0.00    +0.000 S 
ATOM     13  O   UNL     1       1.137   4.628  17.397  0.00  0.00    +0.000 OA
ATOM     14  O   UNL     1       2.319   2.523  16.721  0.00  0.00    +0.000 OA
BRANCH  12  15
ATOM     15  C   UNL     1       2.171   3.197  19.281  0.00  0.00    +0.000 A 
ATOM     16  C   UNL     1       3.336   2.705  19.876  0.00  0.00    +0.000 A 
ATOM     17  C   UNL     1       3.330   2.370  21.227  0.00  0.00    +0.000 A 
ATOM     18  C   UNL     1       2.166   2.536  21.979  0.00  0.00    +0.000 A 
ATOM     19  C   UNL     1       1.002   3.023  21.378  0.00  0.00    +0.000 A 
ATOM     20  C   UNL     1       0.997   3.350  20.020  0.00  0.00    +0.000 A 
ENDBRANCH  12  15
ENDBRANCH   3  12
BRANCH   1  21
ATOM     21  C   UNL     1       7.006   5.318  15.684  0.00  0.00    +0.000 C 
BRANCH  21  23
ATOM     22  C   UNL     1       6.535   4.109  13.660  0.00  0.00    +0.000 C 
ATOM     23  N   UNL     1       6.748   5.425  14.248  0.00  0.00    +0.000 NA
ATOM     24  H   UNL     1       5.910   5.987  14.106  0.00  0.00    +0.000 HD
ENDBRANCH  21  23
ENDBRANCH   1  21
TORSDOF 5
ENDMDL
MODEL 2
REMARK VINA RESULT:      -7.7      0.596      1.543
REMARK  Name = 
REMARK  6 active torsions:
REMARK  status: ('A' for Active; 'I' for Inactive)
REMARK    1  A    between atoms: C_1  and  N_2
REMARK    2  A    between atoms: N_2  and  C_3
REMARK    3  A    between atoms: C_3  and  C_4
REMARK    4  A    between atoms: C_6  and  S_7
REMARK    5  A    between atoms: S_7  and  C_10
REMARK    6  A    between atoms: N_16  and  C_17
REMARK                            x       y       z     vdW  Elec       q    Type
REMARK                         _______ _______ _______ _____ _____    ______ ____
ROOT
ATOM      1  C   UNL     1       5.576   4.887  15.902  0.00  0.00    +0.000 A 
ATOM      2  C   UNL     1       4.700   3.834  16.243  0.00  0.00    +0.000 A 
ATOM      3  C   UNL     1       3.696   4.307  17.085  0.00  0.00    +0.000 A 
ATOM      4  N   UNL     1       3.977   5.655  17.333  0.00  0.00    +0.000 N 
ATOM      5  C   UNL     1       5.104   5.985  16.589  0.00  0.00    +0.000 A 
ENDROOT
BRANCH   4   6
ATOM      6  C   UNL     1       3.248   6.610  18.110  0.00  0.00    +0.000 A 
ATOM      7  C   UNL     1       2.961   6.389  19.456  0.00  0.00    +0.000 A 
ATOM      8  C   UNL     1       2.116   7.245  20.163  0.00  0.00    +0.000 A 
ATOM      9  C   UNL     1       1.621   8.391  19.554  0.00  0.00    +0.000 A 
ATOM     10  C   UNL     1       1.988   8.686  18.244  0.00  0.00    +0.000 A 
ATOM     11  C   UNL     1       2.794   7.801  17.519  0.00  0.00    +0.000 A 
ENDBRANCH   4   6
BRANCH   3  12
ATOM     12  S   UNL     1       2.203   3.422  17.525  0.00  0.00    +0.000 S 
ATOM     13  O   UNL     1       1.140   4.387  17.298  0.00  0.00    +0.000 OA
ATOM     14  O   UNL     1       2.215   2.179  16.793  0.00  0.00    +0.000 OA
BRANCH  12  15
ATOM     15  C   UNL     1       2.239   3.131  19.267  0.00  0.00    +0.000 A 
ATOM     16  C   UNL     1       1.057   3.276  20.000  0.00  0.00    +0.000 A 
ATOM     17  C   UNL     1       1.054   3.001  21.364  0.00  0.00    +0.000 A 
ATOM     18  C   UNL     1       2.227   2.573  21.989  0.00  0.00    +0.000 A 
ATOM     19  C   UNL     1       3.408   2.435  21.254  0.00  0.00    +0.000 A 
ATOM     20  C   UNL     1       3.421   2.722  19.886  0.00  0.00    +0.000 A 
ENDBRANCH  12  15
ENDBRANCH   3  12
BRANCH   1  21
ATOM     21  C   UNL     1       6.766   4.822  14.993  0.00  0.00    +0.000 C 
BRANCH  21  23
ATOM     22  C   UNL     1       6.812   4.107  12.698  0.00  0.00    +0.000 C 
ATOM     23  N   UNL     1       6.594   3.693  14.078  0.00  0.00    +0.000 NA
ATOM     24  H   UNL     1       7.272   2.971  14.316  0.00  0.00    +0.000 HD
ENDBRANCH  21  23
ENDBRANCH   1  21
TORSDOF 5
ENDMDL
MODEL 3
REMARK VINA RESULT:      -7.6      0.750      1.453
REMARK  Name = 
REMARK  6 active torsions:
REMARK  status: ('A' for Active; 'I' for Inactive)
REMARK    1  A    between atoms: C_1  and  N_2
REMARK    2  A    between atoms: N_2  and  C_3
REMARK    3  A    between atoms: C_3  and  C_4
REMARK    4  A    between atoms: C_6  and  S_7
REMARK    5  A    between atoms: S_7  and  C_10
REMARK    6  A    between atoms: N_16  and  C_17
REMARK                            x       y       z     vdW  Elec       q    Type
REMARK                         _______ _______ _______ _____ _____    ______ ____
ROOT
ATOM      1  C   UNL     1       5.638   5.469  16.419  0.00  0.00    +0.000 A 
ATOM      2  C   UNL     1       4.755   4.391  16.645  0.00  0.00    +0.000 A 
ATOM      3  C   UNL     1       3.645   4.830  17.364  0.00  0.00    +0.000 A 
ATOM      4  N   UNL     1       3.859   6.182  17.654  0.00  0.00    +0.000 N 
ATOM      5  C   UNL     1       5.058   6.548  17.052  0.00  0.00    +0.000 A 
ENDROOT
BRANCH   4   6
ATOM      6  C   UNL     1       3.018   7.111  18.344  0.00  0.00    +0.000 A 
ATOM      7  C   UNL     1       2.660   6.918  19.678  0.00  0.00    +0.000 A 
ATOM      8  C   UNL     1       1.715   7.737  20.296  0.00  0.00    +0.000 A 
ATOM      9  C   UNL     1       1.182   8.822  19.612  0.00  0.00    +0.000 A 
ATOM     10  C   UNL     1       1.613   9.095  18.316  0.00  0.00    +0.000 A 
ATOM     11  C   UNL     1       2.522   8.243  17.679  0.00  0.00    +0.000 A 
ENDBRANCH   4   6
BRANCH   3  12
ATOM     12  S   UNL     1       2.133   3.904  17.614  0.00  0.00    +0.000 S 
ATOM     13  O   UNL     1       1.085   4.906  17.524  0.00  0.00    +0.000 OA
ATOM     14  O   UNL     1       2.154   2.798  16.687  0.00  0.00    +0.000 OA
BRANCH  12  15
ATOM     15  C   UNL     1       2.121   3.328  19.285  0.00  0.00    +0.000 A 
ATOM     16  C   UNL     1       3.301   2.809  19.827  0.00  0.00    +0.000 A 
ATOM     17  C   UNL     1       3.326   2.398  21.156  0.00  0.00    +0.000 A 
ATOM     18  C   UNL     1       2.176   2.516  21.941  0.00  0.00    +0.000 A 
ATOM     19  C   UNL     1       0.998   3.029  21.393  0.00  0.00    +0.000 A 
ATOM     20  C   UNL     1       0.963   3.432  20.055  0.00  0.00    +0.000 A 
ENDBRANCH  12  15
ENDBRANCH   3  12
BRANCH   1  21
ATOM     21  C   UNL     1       6.929   5.444  15.659  0.00  0.00    +0.000 C 
BRANCH  21  23
ATOM     22  C   UNL     1       7.818   4.605  17.729  0.00  0.00    +0.000 C 
ATOM     23  N   UNL     1       7.817   4.460  16.279  0.00  0.00    +0.000 NA
ATOM     24  H   UNL     1       7.488   3.525  16.043  0.00  0.00    +0.000 HD
ENDBRANCH  21  23
ENDBRANCH   1  21
TORSDOF 5
ENDMDL
MODEL 4
REMARK VINA RESULT:      -7.6      0.523      1.139
REMARK  Name = 
REMARK  6 active torsions:
REMARK  status: ('A' for Active; 'I' for Inactive)
REMARK    1  A    between atoms: C_1  and  N_2
REMARK    2  A    between atoms: N_2  and  C_3
REMARK    3  A    between atoms: C_3  and  C_4
REMARK    4  A    between atoms: C_6  and  S_7
REMARK    5  A    between atoms: S_7  and  C_10
REMARK    6  A    between atoms: N_16  and  C_17
REMARK                            x       y       z     vdW  Elec       q    Type
REMARK                         _______ _______ _______ _____ _____    ______ ____
ROOT
ATOM      1  C   UNL     1       5.665   5.898  16.631  0.00  0.00    +0.000 A 
ATOM      2  C   UNL     1       4.878   4.740  16.812  0.00  0.00    +0.000 A 
ATOM      3  C   UNL     1       3.695   5.069  17.471  0.00  0.00    +0.000 A 
ATOM      4  N   UNL     1       3.764   6.434  17.770  0.00  0.00    +0.000 N 
ATOM      5  C   UNL     1       4.953   6.914  17.232  0.00  0.00    +0.000 A 
ENDROOT
BRANCH   4   6
ATOM      6  C   UNL     1       2.803   7.276  18.414  0.00  0.00    +0.000 A 
ATOM      7  C   UNL     1       2.208   8.346  17.748  0.00  0.00    +0.000 A 
ATOM      8  C   UNL     1       1.397   9.256  18.426  0.00  0.00    +0.000 A 
ATOM      9  C   UNL     1       1.095   9.052  19.767  0.00  0.00    +0.000 A 
ATOM     10  C   UNL     1       1.591   7.927  20.419  0.00  0.00    +0.000 A 
ATOM     11  C   UNL     1       2.446   7.042  19.752  0.00  0.00    +0.000 A 
ENDBRANCH   4   6
BRANCH   3  12
ATOM     12  S   UNL     1       2.267   4.002  17.643  0.00  0.00    +0.000 S 
ATOM     13  O   UNL     1       1.135   4.898  17.482  0.00  0.00    +0.000 OA
ATOM     14  O   UNL     1       2.449   2.900  16.730  0.00  0.00    +0.000 OA
BRANCH  12  15
ATOM     15  C   UNL     1       2.213   3.436  19.316  0.00  0.00    +0.000 A 
ATOM     16  C   UNL     1       1.003   3.510  20.014  0.00  0.00    +0.000 A 
ATOM     17  C   UNL     1       0.928   3.022  21.314  0.00  0.00    +0.000 A 
ATOM     18  C   UNL     1       2.056   2.453  21.909  0.00  0.00    +0.000 A 
ATOM     19  C   UNL     1       3.264   2.387  21.211  0.00  0.00    +0.000 A 
ATOM     20  C   UNL     1       3.350   2.886  19.908  0.00  0.00    +0.000 A 
ENDBRANCH  12  15
ENDBRANCH   3  12
BRANCH   1  21
ATOM     21  C   UNL     1       6.991   5.997  15.940  0.00  0.00    +0.000 C 
BRANCH  21  23
ATOM     22  C   UNL     1       7.076   4.738  13.893  0.00  0.00    +0.000 C 
ATOM     23  N   UNL     1       7.300   4.703  15.333  0.00  0.00    +0.000 NA
ATOM     24  H   UNL     1       8.279   4.483  15.507  0.00  0.00    +0.000 HD
ENDBRANCH  21  23
ENDBRANCH   1  21
TORSDOF 5
ENDMDL
MODEL 5
REMARK VINA RESULT:      -7.5      0.665      1.719
REMARK  Name = 
REMARK  6 active torsions:
REMARK  status: ('A' for Active; 'I' for Inactive)
REMARK    1  A    between atoms: C_1  and  N_2
REMARK    2  A    between atoms: N_2  and  C_3
REMARK    3  A    between atoms: C_3  and  C_4
REMARK    4  A    between atoms: C_6  and  S_7
REMARK    5  A    between atoms: S_7  and  C_10
REMARK    6  A    between atoms: N_16  and  C_17
REMARK                            x       y       z     vdW  Elec       q    Type
REMARK                         _______ _______ _______ _____ _____    ______ ____
ROOT
ATOM      1  C   UNL     1       5.555   5.356  16.181  0.00  0.00    +0.000 A 
ATOM      2  C   UNL     1       4.701   4.264  16.446  0.00  0.00    +0.000 A 
ATOM      3  C   UNL     1       3.635   4.679  17.242  0.00  0.00    +0.000 A 
ATOM      4  N   UNL     1       3.852   6.029  17.539  0.00  0.00    +0.000 N 
ATOM      5  C   UNL     1       5.006   6.419  16.867  0.00  0.00    +0.000 A 
ENDROOT
BRANCH   4   6
ATOM      6  C   UNL     1       3.047   6.936  18.297  0.00  0.00    +0.000 A 
ATOM      7  C   UNL     1       2.717   6.682  19.628  0.00  0.00    +0.000 A 
ATOM      8  C   UNL     1       1.803   7.486  20.310  0.00  0.00    +0.000 A 
ATOM      9  C   UNL     1       1.278   8.615  19.695  0.00  0.00    +0.000 A 
ATOM     10  C   UNL     1       1.683   8.947  18.405  0.00  0.00    +0.000 A 
ATOM     11  C   UNL     1       2.559   8.112  17.703  0.00  0.00    +0.000 A 
ENDBRANCH   4   6
BRANCH   3  12
ATOM     12  S   UNL     1       2.153   3.731  17.575  0.00  0.00    +0.000 S 
ATOM     13  O   UNL     1       1.074   4.685  17.391  0.00  0.00    +0.000 OA
ATOM     14  O   UNL     1       2.215   2.545  16.753  0.00  0.00    +0.000 OA
BRANCH  12  15
ATOM     15  C   UNL     1       2.153   3.311  19.291  0.00  0.00    +0.000 A 
ATOM     16  C   UNL     1       0.953   3.388  20.004  0.00  0.00    +0.000 A 
ATOM     17  C   UNL     1       0.922   3.012  21.344  0.00  0.00    +0.000 A 
ATOM     18  C   UNL     1       2.086   2.553  21.963  0.00  0.00    +0.000 A 
ATOM     19  C   UNL     1       3.285   2.483  21.249  0.00  0.00    +0.000 A 
ATOM     20  C   UNL     1       3.326   2.870  19.907  0.00  0.00    +0.000 A 
ENDBRANCH  12  15
ENDBRANCH   3  12
BRANCH   1  21
ATOM     21  C   UNL     1       6.795   5.358  15.339  0.00  0.00    +0.000 C 
BRANCH  21  23
ATOM     22  C   UNL     1       7.734   4.578  17.410  0.00  0.00    +0.000 C 
ATOM     23  N   UNL     1       7.781   4.472  15.958  0.00  0.00    +0.000 NA
ATOM     24  H   UNL     1       7.572   3.511  15.692  0.00  0.00    +0.000 HD
ENDBRANCH  21  23
ENDBRANCH   1  21
TORSDOF 5
ENDMDL
MODEL 6
REMARK VINA RESULT:      -7.4      0.412      1.081
REMARK  Name = 
REMARK  6 active torsions:
REMARK  status: ('A' for Active; 'I' for Inactive)
REMARK    1  A    between atoms: C_1  and  N_2
REMARK    2  A    between atoms: N_2  and  C_3
REMARK    3  A    between atoms: C_3  and  C_4
REMARK    4  A    between atoms: C_6  and  S_7
REMARK    5  A    between atoms: S_7  and  C_10
REMARK    6  A    between atoms: N_16  and  C_17
REMARK                            x       y       z     vdW  Elec       q    Type
REMARK                         _______ _______ _______ _____ _____    ______ ____
ROOT
ATOM      1  C   UNL     1       5.739   5.173  16.209  0.00  0.00    +0.000 A 
ATOM      2  C   UNL     1       4.860   4.092  16.437  0.00  0.00    +0.000 A 
ATOM      3  C   UNL     1       3.781   4.515  17.209  0.00  0.00    +0.000 A 
ATOM      4  N   UNL     1       4.012   5.856  17.530  0.00  0.00    +0.000 N 
ATOM      5  C   UNL     1       5.190   6.235  16.895  0.00  0.00    +0.000 A 
ENDROOT
BRANCH   4   6
ATOM      6  C   UNL     1       3.201   6.767  18.279  0.00  0.00    +0.000 A 
ATOM      7  C   UNL     1       2.847   6.510  19.603  0.00  0.00    +0.000 A 
ATOM      8  C   UNL     1       1.929   7.318  20.273  0.00  0.00    +0.000 A 
ATOM      9  C   UNL     1       1.424   8.455  19.656  0.00  0.00    +0.000 A 
ATOM     10  C   UNL     1       1.853   8.789  18.374  0.00  0.00    +0.000 A 
ATOM     11  C   UNL     1       2.734   7.950  17.683  0.00  0.00    +0.000 A 
ENDBRANCH   4   6
BRANCH   3  12
ATOM     12  S   UNL     1       2.275   3.587  17.490  0.00  0.00    +0.000 S 
ATOM     13  O   UNL     1       1.215   4.551  17.250  0.00  0.00    +0.000 OA
ATOM     14  O   UNL     1       2.357   2.392  16.685  0.00  0.00    +0.000 OA
BRANCH  12  15
ATOM     15  C   UNL     1       2.197   3.188  19.209  0.00  0.00    +0.000 A 
ATOM     16  C   UNL     1       3.376   2.834  19.873  0.00  0.00    +0.000 A 
ATOM     17  C   UNL     1       3.344   2.566  21.238  0.00  0.00    +0.000 A 
ATOM     18  C   UNL     1       2.138   2.661  21.936  0.00  0.00    +0.000 A 
ATOM     19  C   UNL     1       0.962   3.010  21.268  0.00  0.00    +0.000 A 
ATOM     20  C   UNL     1       0.984   3.268  19.895  0.00  0.00    +0.000 A 
ENDBRANCH  12  15
ENDBRANCH   3  12
BRANCH   1  21
ATOM     21  C   UNL     1       7.001   5.165  15.400  0.00  0.00    +0.000 C 
BRANCH  21  23
ATOM     22  C   UNL     1       7.694   4.955  13.108  0.00  0.00    +0.000 C 
ATOM     23  N   UNL     1       6.664   5.460  14.007  0.00  0.00    +0.000 NA
ATOM     24  H   UNL     1       5.780   5.008  13.780  0.00  0.00    +0.000 HD
ENDBRANCH  21  23
ENDBRANCH   1  21
TORSDOF 5
ENDMDL
MODEL 7
REMARK VINA RESULT:      -7.4      2.002      5.768
REMARK  Name = 
REMARK  6 active torsions:
REMARK  status: ('A' for Active; 'I' for Inactive)
REMARK    1  A    between atoms: C_1  and  N_2
REMARK    2  A    between atoms: N_2  and  C_3
REMARK    3  A    between atoms: C_3  and  C_4
REMARK    4  A    between atoms: C_6  and  S_7
REMARK    5  A    between atoms: S_7  and  C_10
REMARK    6  A    between atoms: N_16  and  C_17
REMARK                            x       y       z     vdW  Elec       q    Type
REMARK                         _______ _______ _______ _____ _____    ______ ____
ROOT
ATOM      1  C   UNL     1       2.929   7.692  18.003  0.00  0.00    +0.000 A 
ATOM      2  C   UNL     1       4.040   6.890  17.661  0.00  0.00    +0.000 A 
ATOM      3  C   UNL     1       3.934   5.646  18.279  0.00  0.00    +0.000 A 
ATOM      4  N   UNL     1       2.782   5.684  19.072  0.00  0.00    +0.000 N 
ATOM      5  C   UNL     1       2.182   6.922  18.869  0.00  0.00    +0.000 A 
ENDROOT
BRANCH   4   6
ATOM      6  C   UNL     1       2.204   4.662  19.890  0.00  0.00    +0.000 A 
ATOM      7  C   UNL     1       2.647   4.432  21.192  0.00  0.00    +0.000 A 
ATOM      8  C   UNL     1       2.193   3.335  21.924  0.00  0.00    +0.000 A 
ATOM      9  C   UNL     1       1.214   2.503  21.395  0.00  0.00    +0.000 A 
ATOM     10  C   UNL     1       0.680   2.784  20.140  0.00  0.00    +0.000 A 
ATOM     11  C   UNL     1       1.172   3.854  19.385  0.00  0.00    +0.000 A 
ENDBRANCH   4   6
BRANCH   3  12
ATOM     12  S   UNL     1       4.932   4.208  17.903  0.00  0.00    +0.000 S 
ATOM     13  O   UNL     1       6.001   4.251  18.886  0.00  0.00    +0.000 OA
ATOM     14  O   UNL     1       4.041   3.073  17.858  0.00  0.00    +0.000 OA
BRANCH  12  15
ATOM     15  C   UNL     1       5.696   4.475  16.333  0.00  0.00    +0.000 A 
ATOM     16  C   UNL     1       6.970   5.052  16.292  0.00  0.00    +0.000 A 
ATOM     17  C   UNL     1       7.609   5.223  15.068  0.00  0.00    +0.000 A 
ATOM     18  C   UNL     1       6.980   4.810  13.892  0.00  0.00    +0.000 A 
ATOM     19  C   UNL     1       5.705   4.239  13.936  0.00  0.00    +0.000 A 
ATOM     20  C   UNL     1       5.052   4.076  15.161  0.00  0.00    +0.000 A 
ENDBRANCH  12  15
ENDBRANCH   3  12
BRANCH   1  21
ATOM     21  C   UNL     1       2.630   9.082  17.530  0.00  0.00    +0.000 C 
BRANCH  21  23
ATOM     22  C   UNL     1       0.941  10.419  18.597  0.00  0.00    +0.000 C 
ATOM     23  N   UNL     1       1.194   9.324  17.670  0.00  0.00    +0.000 NA
ATOM     24  H   UNL     1       0.812   9.571  16.758  0.00  0.00    +0.000 HD
ENDBRANCH  21  23
ENDBRANCH   1  21
TORSDOF 5
ENDMDL
MODEL 8
REMARK VINA RESULT:      -7.4      0.965      1.331
REMARK  Name = 
REMARK  6 active torsions:
REMARK  status: ('A' for Active; 'I' for Inactive)
REMARK    1  A    between atoms: C_1  and  N_2
REMARK    2  A    between atoms: N_2  and  C_3
REMARK    3  A    between atoms: C_3  and  C_4
REMARK    4  A    between atoms: C_6  and  S_7
REMARK    5  A    between atoms: S_7  and  C_10
REMARK    6  A    between atoms: N_16  and  C_17
REMARK                            x       y       z     vdW  Elec       q    Type
REMARK                         _______ _______ _______ _____ _____    ______ ____
ROOT
ATOM      1  C   UNL     1       5.652   5.829  16.678  0.00  0.00    +0.000 A 
ATOM      2  C   UNL     1       4.865   4.666  16.822  0.00  0.00    +0.000 A 
ATOM      3  C   UNL     1       3.674   4.978  17.474  0.00  0.00    +0.000 A 
ATOM      4  N   UNL     1       3.737   6.335  17.806  0.00  0.00    +0.000 N 
ATOM      5  C   UNL     1       4.932   6.830  17.294  0.00  0.00    +0.000 A 
ENDROOT
BRANCH   4   6
ATOM      6  C   UNL     1       2.767   7.160  18.459  0.00  0.00    +0.000 A 
ATOM      7  C   UNL     1       2.184   8.250  17.814  0.00  0.00    +0.000 A 
ATOM      8  C   UNL     1       1.364   9.141  18.505  0.00  0.00    +0.000 A 
ATOM      9  C   UNL     1       1.039   8.900  19.834  0.00  0.00    +0.000 A 
ATOM     10  C   UNL     1       1.523   7.755  20.462  0.00  0.00    +0.000 A 
ATOM     11  C   UNL     1       2.388   6.889  19.784  0.00  0.00    +0.000 A 
ENDBRANCH   4   6
BRANCH   3  12
ATOM     12  S   UNL     1       2.246   3.905  17.604  0.00  0.00    +0.000 S 
ATOM     13  O   UNL     1       1.114   4.799  17.424  0.00  0.00    +0.000 OA
ATOM     14  O   UNL     1       2.452   2.811  16.686  0.00  0.00    +0.000 OA
BRANCH  12  15
ATOM     15  C   UNL     1       2.154   3.325  19.270  0.00  0.00    +0.000 A 
ATOM     16  C   UNL     1       3.309   2.814  19.871  0.00  0.00    +0.000 A 
ATOM     17  C   UNL     1       3.269   2.400  21.199  0.00  0.00    +0.000 A 
ATOM     18  C   UNL     1       2.081   2.505  21.924  0.00  0.00    +0.000 A 
ATOM     19  C   UNL     1       0.927   3.010  21.318  0.00  0.00    +0.000 A 
ATOM     20  C   UNL     1       0.957   3.416  19.981  0.00  0.00    +0.000 A 
ENDBRANCH  12  15
ENDBRANCH   3  12
BRANCH   1  21
ATOM     21  C   UNL     1       6.986   5.947  16.006  0.00  0.00    +0.000 C 
BRANCH  21  23
ATOM     22  C   UNL     1       7.874   6.770  18.083  0.00  0.00    +0.000 C 
ATOM     23  N   UNL     1       7.742   7.019  16.653  0.00  0.00    +0.000 NA
ATOM     24  H   UNL     1       8.672   7.061  16.240  0.00  0.00    +0.000 HD
ENDBRANCH  21  23
ENDBRANCH   1  21
TORSDOF 5
ENDMDL
MODEL 9
REMARK VINA RESULT:      -7.3      2.151      5.839
REMARK  Name = 
REMARK  6 active torsions:
REMARK  status: ('A' for Active; 'I' for Inactive)
REMARK    1  A    between atoms: C_1  and  N_2
REMARK    2  A    between atoms: N_2  and  C_3
REMARK    3  A    between atoms: C_3  and  C_4
REMARK    4  A    between atoms: C_6  and  S_7
REMARK    5  A    between atoms: S_7  and  C_10
REMARK    6  A    between atoms: N_16  and  C_17
REMARK                            x       y       z     vdW  Elec       q    Type
REMARK                         _______ _______ _______ _____ _____    ______ ____
ROOT
ATOM      1  C   UNL     1       2.780   7.681  18.059  0.00  0.00    +0.000 A 
ATOM      2  C   UNL     1       4.015   7.016  17.898  0.00  0.00    +0.000 A 
ATOM      3  C   UNL     1       3.979   5.786  18.552  0.00  0.00    +0.000 A 
ATOM      4  N   UNL     1       2.736   5.701  19.188  0.00  0.00    +0.000 N 
ATOM      5  C   UNL     1       2.024   6.848  18.856  0.00  0.00    +0.000 A 
ENDROOT
BRANCH   4   6
ATOM      6  C   UNL     1       2.183   4.638  19.970  0.00  0.00    +0.000 A 
ATOM      7  C   UNL     1       2.576   4.422  21.290  0.00  0.00    +0.000 A 
ATOM      8  C   UNL     1       2.155   3.292  21.991  0.00  0.00    +0.000 A 
ATOM      9  C   UNL     1       1.254   2.409  21.409  0.00  0.00    +0.000 A 
ATOM     10  C   UNL     1       0.764   2.670  20.133  0.00  0.00    +0.000 A 
ATOM     11  C   UNL     1       1.227   3.775  19.410  0.00  0.00    +0.000 A 
ENDBRANCH   4   6
BRANCH   3  12
ATOM     12  S   UNL     1       5.185   4.475  18.370  0.00  0.00    +0.000 S 
ATOM     13  O   UNL     1       6.271   4.868  19.251  0.00  0.00    +0.000 OA
ATOM     14  O   UNL     1       4.492   3.228  18.593  0.00  0.00    +0.000 OA
BRANCH  12  15
ATOM     15  C   UNL     1       5.829   4.555  16.727  0.00  0.00    +0.000 A 
ATOM     16  C   UNL     1       5.028   4.121  15.666  0.00  0.00    +0.000 A 
ATOM     17  C   UNL     1       5.498   4.224  14.361  0.00  0.00    +0.000 A 
ATOM     18  C   UNL     1       6.761   4.769  14.119  0.00  0.00    +0.000 A 
ATOM     19  C   UNL     1       7.561   5.196  15.182  0.00  0.00    +0.000 A 
ATOM     20  C   UNL     1       7.100   5.084  16.496  0.00  0.00    +0.000 A 
ENDBRANCH  12  15
ENDBRANCH   3  12
BRANCH   1  21
ATOM     21  C   UNL     1       2.381   9.009  17.490  0.00  0.00    +0.000 C 
BRANCH  21  23
ATOM     22  C   UNL     1       0.334  10.027  18.233  0.00  0.00    +0.000 C 
ATOM     23  N   UNL     1       1.738   9.794  18.544  0.00  0.00    +0.000 NA
ATOM     24  H   UNL     1       1.799   9.279  19.421  0.00  0.00    +0.000 HD
ENDBRANCH  21  23
ENDBRANCH   1  21
TORSDOF 5
ENDMDL
