MODEL 1
REMARK VINA RESULT:      -5.9      0.000      0.000
REMARK  Name = 
REMARK  8 active torsions:
REMARK  status: ('A' for Active; 'I' for Inactive)
REMARK    1  A    between atoms: C_2  and  O_3
REMARK    2  A    between atoms: C_2  and  C_4
REMARK    3  A    between atoms: C_4  and  C_5
REMARK    4  A    between atoms: C_5  and  C_6
REMARK    5  A    between atoms: C_6  and  C_7
REMARK    6  A    between atoms: C_7  and  C_8
REMARK    7  A    between atoms: C_8  and  S_9
REMARK    8  A    between atoms: S_9  and  C_10
REMARK                            x       y       z     vdW  Elec       q    Type
REMARK                         _______ _______ _______ _____ _____    ______ ____
ROOT
ATOM      1  C   UNL     1       3.407   2.354  17.817  0.00  0.00    +0.000 C 
ENDROOT
BRANCH   1   2
ATOM      2  C   UNL     1       2.208   2.188  18.758  0.00  0.00    +0.000 C 
BRANCH   2   3
ATOM      3  C   UNL     1       1.449   3.499  18.941  0.00  0.00    +0.000 C 
BRANCH   3   4
ATOM      4  C   UNL     1       0.913   3.618  20.369  0.00  0.00    +0.000 C 
BRANCH   4   6
ATOM      5  O   UNL     1       2.423   3.142  22.214  0.00  0.00    +0.000 OA
ATOM      6  C   UNL     1       2.013   3.913  21.359  0.00  0.00    +0.000 C 
BRANCH   6   7
ATOM      7  O   UNL     1       2.519   5.158  21.204  0.00  0.00    +0.000 OA
ATOM      8  H   UNL     1       1.871   5.806  20.873  0.00  0.00    +0.000 HD
ENDBRANCH   6   7
ENDBRANCH   4   6
ENDBRANCH   3   4
ENDBRANCH   2   3
ENDBRANCH   1   2
BRANCH   1   9
ATOM      9  C   UNL     1       4.307   3.532  18.191  0.00  0.00    +0.000 C 
BRANCH   9  10
ATOM     10  S   UNL     1       4.822   4.463  16.705  0.00  0.00    +0.000 S 
BRANCH  10  11
ATOM     11  C   UNL     1       6.094   5.485  17.406  0.00  0.00    +0.000 A 
ATOM     12  C   UNL     1       6.390   6.750  16.892  0.00  0.00    +0.000 A 
ATOM     13  C   UNL     1       7.391   7.527  17.478  0.00  0.00    +0.000 A 
ATOM     14  C   UNL     1       8.091   7.044  18.583  0.00  0.00    +0.000 A 
ATOM     15  C   UNL     1       7.786   5.790  19.111  0.00  0.00    +0.000 A 
ATOM     16  C   UNL     1       6.786   5.015  18.527  0.00  0.00    +0.000 A 
ENDBRANCH  10  11
ENDBRANCH   9  10
ENDBRANCH   1   9
TORSDOF 8
ENDMDL
MODEL 2
REMARK VINA RESULT:      -5.7      2.251      5.779
REMARK  Name = 
REMARK  8 active torsions:
REMARK  status: ('A' for Active; 'I' for Inactive)
REMARK    1  A    between atoms: C_2  and  O_3
REMARK    2  A    between atoms: C_2  and  C_4
REMARK    3  A    between atoms: C_4  and  C_5
REMARK    4  A    between atoms: C_5  and  C_6
REMARK    5  A    between atoms: C_6  and  C_7
REMARK    6  A    between atoms: C_7  and  C_8
REMARK    7  A    between atoms: C_8  and  S_9
REMARK    8  A    between atoms: S_9  and  C_10
REMARK                            x       y       z     vdW  Elec       q    Type
REMARK                         _______ _______ _______ _____ _____    ______ ____
ROOT
ATOM      1  C   UNL     1       5.104   4.691  15.964  0.00  0.00    +0.000 C 
ENDROOT
BRANCH   1   2
ATOM      2  C   UNL     1       5.750   5.987  16.468  0.00  0.00    +0.000 C 
BRANCH   2   3
ATOM      3  C   UNL     1       7.207   5.772  16.872  0.00  0.00    +0.000 C 
BRANCH   3   4
ATOM      4  C   UNL     1       7.524   6.514  18.170  0.00  0.00    +0.000 C 
BRANCH   4   6
ATOM      5  O   UNL     1       6.306   5.151  19.774  0.00  0.00    +0.000 OA
ATOM      6  C   UNL     1       7.361   5.626  19.380  0.00  0.00    +0.000 C 
BRANCH   6   7
ATOM      7  O   UNL     1       8.537   5.399  20.008  0.00  0.00    +0.000 OA
ATOM      8  H   UNL     1       9.146   4.827  19.505  0.00  0.00    +0.000 HD
ENDBRANCH   6   7
ENDBRANCH   4   6
ENDBRANCH   3   4
ENDBRANCH   2   3
ENDBRANCH   1   2
BRANCH   1   9
ATOM      9  C   UNL     1       4.628   3.776  17.094  0.00  0.00    +0.000 C 
BRANCH   9  10
ATOM     10  S   UNL     1       2.810   3.597  17.073  0.00  0.00    +0.000 S 
BRANCH  10  11
ATOM     11  C   UNL     1       2.502   3.369  18.808  0.00  0.00    +0.000 A 
ATOM     12  C   UNL     1       3.446   2.779  19.652  0.00  0.00    +0.000 A 
ATOM     13  C   UNL     1       3.171   2.626  21.011  0.00  0.00    +0.000 A 
ATOM     14  C   UNL     1       1.954   3.071  21.530  0.00  0.00    +0.000 A 
ATOM     15  C   UNL     1       1.018   3.677  20.694  0.00  0.00    +0.000 A 
ATOM     16  C   UNL     1       1.294   3.831  19.337  0.00  0.00    +0.000 A 
ENDBRANCH  10  11
ENDBRANCH   9  10
ENDBRANCH   1   9
TORSDOF 8
ENDMDL
MODEL 3
REMARK VINA RESULT:      -5.6      3.066      6.192
REMARK  Name = 
REMARK  8 active torsions:
REMARK  status: ('A' for Active; 'I' for Inactive)
REMARK    1  A    between atoms: C_2  and  O_3
REMARK    2  A    between atoms: C_2  and  C_4
REMARK    3  A    between atoms: C_4  and  C_5
REMARK    4  A    between atoms: C_5  and  C_6
REMARK    5  A    between atoms: C_6  and  C_7
REMARK    6  A    between atoms: C_7  and  C_8
REMARK    7  A    between atoms: C_8  and  S_9
REMARK    8  A    between atoms: S_9  and  C_10
REMARK                            x       y       z     vdW  Elec       q    Type
REMARK                         _______ _______ _______ _____ _____    ______ ____
ROOT
ATOM      1  C   UNL     1       4.729   5.536  18.843  0.00  0.00    +0.000 C 
ENDROOT
BRANCH   1   2
ATOM      2  C   UNL     1       6.047   5.065  19.470  0.00  0.00    +0.000 C 
BRANCH   2   3
ATOM      3  C   UNL     1       7.209   5.171  18.485  0.00  0.00    +0.000 C 
BRANCH   3   4
ATOM      4  C   UNL     1       7.912   6.522  18.623  0.00  0.00    +0.000 C 
BRANCH   4   6
ATOM      5  O   UNL     1       7.745   8.610  17.390  0.00  0.00    +0.000 OA
ATOM      6  C   UNL     1       7.707   7.389  17.405  0.00  0.00    +0.000 C 
BRANCH   6   7
ATOM      7  O   UNL     1       7.466   6.659  16.293  0.00  0.00    +0.000 OA
ATOM      8  H   UNL     1       7.237   5.729  16.477  0.00  0.00    +0.000 HD
ENDBRANCH   6   7
ENDBRANCH   4   6
ENDBRANCH   3   4
ENDBRANCH   2   3
ENDBRANCH   1   2
BRANCH   1   9
ATOM      9  C   UNL     1       4.477   4.945  17.455  0.00  0.00    +0.000 C 
BRANCH   9  10
ATOM     10  S   UNL     1       3.992   3.188  17.566  0.00  0.00    +0.000 S 
BRANCH  10  11
ATOM     11  C   UNL     1       2.941   3.247  18.996  0.00  0.00    +0.000 A 
ATOM     12  C   UNL     1       1.688   3.865  18.964  0.00  0.00    +0.000 A 
ATOM     13  C   UNL     1       0.887   3.882  20.107  0.00  0.00    +0.000 A 
ATOM     14  C   UNL     1       1.333   3.273  21.280  0.00  0.00    +0.000 A 
ATOM     15  C   UNL     1       2.575   2.640  21.311  0.00  0.00    +0.000 A 
ATOM     16  C   UNL     1       3.374   2.622  20.169  0.00  0.00    +0.000 A 
ENDBRANCH  10  11
ENDBRANCH   9  10
ENDBRANCH   1   9
TORSDOF 8
ENDMDL
MODEL 4
REMARK VINA RESULT:      -5.6      3.620      6.571
REMARK  Name = 
REMARK  8 active torsions:
REMARK  status: ('A' for Active; 'I' for Inactive)
REMARK    1  A    between atoms: C_2  and  O_3
REMARK    2  A    between atoms: C_2  and  C_4
REMARK    3  A    between atoms: C_4  and  C_5
REMARK    4  A    between atoms: C_5  and  C_6
REMARK    5  A    between atoms: C_6  and  C_7
REMARK    6  A    between atoms: C_7  and  C_8
REMARK    7  A    between atoms: C_8  and  S_9
REMARK    8  A    between atoms: S_9  and  C_10
REMARK                            x       y       z     vdW  Elec       q    Type
REMARK                         _______ _______ _______ _____ _____    ______ ____
ROOT
ATOM      1  C   UNL     1       5.685   6.449  17.386  0.00  0.00    +0.000 C 
ENDROOT
BRANCH   1   2
ATOM      2  C   UNL     1       6.547   5.308  17.936  0.00  0.00    +0.000 C 
BRANCH   2   3
ATOM      3  C   UNL     1       7.206   4.506  16.816  0.00  0.00    +0.000 C 
BRANCH   3   4
ATOM      4  C   UNL     1       6.166   4.058  15.789  0.00  0.00    +0.000 C 
BRANCH   4   6
ATOM      5  O   UNL     1       7.223   5.292  13.981  0.00  0.00    +0.000 OA
ATOM      6  C   UNL     1       6.634   4.296  14.374  0.00  0.00    +0.000 C 
BRANCH   6   7
ATOM      7  O   UNL     1       6.327   3.265  13.555  0.00  0.00    +0.000 OA
ATOM      8  H   UNL     1       5.495   3.391  13.062  0.00  0.00    +0.000 HD
ENDBRANCH   6   7
ENDBRANCH   4   6
ENDBRANCH   3   4
ENDBRANCH   2   3
ENDBRANCH   1   2
BRANCH   1   9
ATOM      9  C   UNL     1       4.201   6.301  17.727  0.00  0.00    +0.000 C 
BRANCH   9  10
ATOM     10  S   UNL     1       3.977   5.662  19.424  0.00  0.00    +0.000 S 
BRANCH  10  11
ATOM     11  C   UNL     1       2.851   4.326  19.105  0.00  0.00    +0.000 A 
ATOM     12  C   UNL     1       3.078   3.400  18.084  0.00  0.00    +0.000 A 
ATOM     13  C   UNL     1       2.174   2.358  17.871  0.00  0.00    +0.000 A 
ATOM     14  C   UNL     1       1.048   2.235  18.686  0.00  0.00    +0.000 A 
ATOM     15  C   UNL     1       0.828   3.146  19.717  0.00  0.00    +0.000 A 
ATOM     16  C   UNL     1       1.732   4.186  19.930  0.00  0.00    +0.000 A 
ENDBRANCH  10  11
ENDBRANCH   9  10
ENDBRANCH   1   9
TORSDOF 8
ENDMDL
MODEL 5
REMARK VINA RESULT:      -5.6      3.923      6.735
REMARK  Name = 
REMARK  8 active torsions:
REMARK  status: ('A' for Active; 'I' for Inactive)
REMARK    1  A    between atoms: C_2  and  O_3
REMARK    2  A    between atoms: C_2  and  C_4
REMARK    3  A    between atoms: C_4  and  C_5
REMARK    4  A    between atoms: C_5  and  C_6
REMARK    5  A    between atoms: C_6  and  C_7
REMARK    6  A    between atoms: C_7  and  C_8
REMARK    7  A    between atoms: C_8  and  S_9
REMARK    8  A    between atoms: S_9  and  C_10
REMARK                            x       y       z     vdW  Elec       q    Type
REMARK                         _______ _______ _______ _____ _____    ______ ____
ROOT
ATOM      1  C   UNL     1       5.710   6.331  17.633  0.00  0.00    +0.000 C 
ENDROOT
BRANCH   1   2
ATOM      2  C   UNL     1       5.015   6.164  16.277  0.00  0.00    +0.000 C 
BRANCH   2   3
ATOM      3  C   UNL     1       5.267   4.781  15.680  0.00  0.00    +0.000 C 
BRANCH   3   4
ATOM      4  C   UNL     1       6.758   4.572  15.413  0.00  0.00    +0.000 C 
BRANCH   4   6
ATOM      5  O   UNL     1       6.606   4.017  13.052  0.00  0.00    +0.000 OA
ATOM      6  C   UNL     1       7.090   4.695  13.946  0.00  0.00    +0.000 C 
BRANCH   6   7
ATOM      7  O   UNL     1       8.006   5.660  13.709  0.00  0.00    +0.000 OA
ATOM      8  H   UNL     1       8.899   5.316  13.522  0.00  0.00    +0.000 HD
ENDBRANCH   6   7
ENDBRANCH   4   6
ENDBRANCH   3   4
ENDBRANCH   2   3
ENDBRANCH   1   2
BRANCH   1   9
ATOM      9  C   UNL     1       5.065   5.503  18.747  0.00  0.00    +0.000 C 
BRANCH   9  10
ATOM     10  S   UNL     1       3.401   6.136  19.157  0.00  0.00    +0.000 S 
BRANCH  10  11
ATOM     11  C   UNL     1       2.468   4.627  19.076  0.00  0.00    +0.000 A 
ATOM     12  C   UNL     1       2.673   3.688  18.062  0.00  0.00    +0.000 A 
ATOM     13  C   UNL     1       1.926   2.509  18.039  0.00  0.00    +0.000 A 
ATOM     14  C   UNL     1       0.979   2.264  19.034  0.00  0.00    +0.000 A 
ATOM     15  C   UNL     1       0.785   3.190  20.058  0.00  0.00    +0.000 A 
ATOM     16  C   UNL     1       1.532   4.366  20.081  0.00  0.00    +0.000 A 
ENDBRANCH  10  11
ENDBRANCH   9  10
ENDBRANCH   1   9
TORSDOF 8
ENDMDL
MODEL 6
REMARK VINA RESULT:      -5.6      1.856      2.658
REMARK  Name = 
REMARK  8 active torsions:
REMARK  status: ('A' for Active; 'I' for Inactive)
REMARK    1  A    between atoms: C_2  and  O_3
REMARK    2  A    between atoms: C_2  and  C_4
REMARK    3  A    between atoms: C_4  and  C_5
REMARK    4  A    between atoms: C_5  and  C_6
REMARK    5  A    between atoms: C_6  and  C_7
REMARK    6  A    between atoms: C_7  and  C_8
REMARK    7  A    between atoms: C_8  and  S_9
REMARK    8  A    between atoms: S_9  and  C_10
REMARK                            x       y       z     vdW  Elec       q    Type
REMARK                         _______ _______ _______ _____ _____    ______ ____
ROOT
ATOM      1  C   UNL     1       3.230   5.517  19.764  0.00  0.00    +0.000 C 
ENDROOT
BRANCH   1   2
ATOM      2  C   UNL     1       1.930   5.388  20.565  0.00  0.00    +0.000 C 
BRANCH   2   3
ATOM      3  C   UNL     1       1.128   4.158  20.147  0.00  0.00    +0.000 C 
BRANCH   3   4
ATOM      4  C   UNL     1       1.914   2.878  20.431  0.00  0.00    +0.000 C 
BRANCH   4   6
ATOM      5  O   UNL     1       3.157   1.605  18.775  0.00  0.00    +0.000 OA
ATOM      6  C   UNL     1       2.093   2.040  19.188  0.00  0.00    +0.000 C 
BRANCH   6   7
ATOM      7  O   UNL     1       0.921   1.812  18.554  0.00  0.00    +0.000 OA
ATOM      8  H   UNL     1       0.225   1.453  19.134  0.00  0.00    +0.000 HD
ENDBRANCH   6   7
ENDBRANCH   4   6
ENDBRANCH   3   4
ENDBRANCH   2   3
ENDBRANCH   1   2
BRANCH   1   9
ATOM      9  C   UNL     1       2.997   5.716  18.265  0.00  0.00    +0.000 C 
BRANCH   9  10
ATOM     10  S   UNL     1       4.226   4.790  17.280  0.00  0.00    +0.000 S 
BRANCH  10  11
ATOM     11  C   UNL     1       5.706   5.657  17.739  0.00  0.00    +0.000 A 
ATOM     12  C   UNL     1       6.595   5.144  18.687  0.00  0.00    +0.000 A 
ATOM     13  C   UNL     1       7.754   5.851  19.014  0.00  0.00    +0.000 A 
ATOM     14  C   UNL     1       8.029   7.066  18.386  0.00  0.00    +0.000 A 
ATOM     15  C   UNL     1       7.154   7.571  17.426  0.00  0.00    +0.000 A 
ATOM     16  C   UNL     1       5.998   6.864  17.100  0.00  0.00    +0.000 A 
ENDBRANCH  10  11
ENDBRANCH   9  10
ENDBRANCH   1   9
TORSDOF 8
ENDMDL
MODEL 7
REMARK VINA RESULT:      -5.6      4.213      6.908
REMARK  Name = 
REMARK  8 active torsions:
REMARK  status: ('A' for Active; 'I' for Inactive)
REMARK    1  A    between atoms: C_2  and  O_3
REMARK    2  A    between atoms: C_2  and  C_4
REMARK    3  A    between atoms: C_4  and  C_5
REMARK    4  A    between atoms: C_5  and  C_6
REMARK    5  A    between atoms: C_6  and  C_7
REMARK    6  A    between atoms: C_7  and  C_8
REMARK    7  A    between atoms: C_8  and  S_9
REMARK    8  A    between atoms: S_9  and  C_10
REMARK                            x       y       z     vdW  Elec       q    Type
REMARK                         _______ _______ _______ _____ _____    ______ ____
ROOT
ATOM      1  C   UNL     1       6.111   5.858  16.892  0.00  0.00    +0.000 C 
ENDROOT
BRANCH   1   2
ATOM      2  C   UNL     1       5.406   5.741  15.536  0.00  0.00    +0.000 C 
BRANCH   2   3
ATOM      3  C   UNL     1       5.426   4.308  15.010  0.00  0.00    +0.000 C 
BRANCH   3   4
ATOM      4  C   UNL     1       6.465   4.154  13.899  0.00  0.00    +0.000 C 
BRANCH   4   6
ATOM      5  O   UNL     1       4.729   3.555  12.305  0.00  0.00    +0.000 OA
ATOM      6  C   UNL     1       5.889   3.471  12.682  0.00  0.00    +0.000 C 
BRANCH   6   7
ATOM      7  O   UNL     1       6.812   2.732  12.027  0.00  0.00    +0.000 OA
ATOM      8  H   UNL     1       6.596   2.577  11.089  0.00  0.00    +0.000 HD
ENDBRANCH   6   7
ENDBRANCH   4   6
ENDBRANCH   3   4
ENDBRANCH   2   3
ENDBRANCH   1   2
BRANCH   1   9
ATOM      9  C   UNL     1       5.194   5.545  18.076  0.00  0.00    +0.000 C 
BRANCH   9  10
ATOM     10  S   UNL     1       3.565   6.347  17.876  0.00  0.00    +0.000 S 
BRANCH  10  11
ATOM     11  C   UNL     1       2.530   5.148  18.680  0.00  0.00    +0.000 A 
ATOM     12  C   UNL     1       2.126   5.297  20.009  0.00  0.00    +0.000 A 
ATOM     13  C   UNL     1       1.303   4.338  20.602  0.00  0.00    +0.000 A 
ATOM     14  C   UNL     1       0.877   3.234  19.864  0.00  0.00    +0.000 A 
ATOM     15  C   UNL     1       1.262   3.091  18.532  0.00  0.00    +0.000 A 
ATOM     16  C   UNL     1       2.082   4.050  17.940  0.00  0.00    +0.000 A 
ENDBRANCH  10  11
ENDBRANCH   9  10
ENDBRANCH   1   9
TORSDOF 8
ENDMDL
MODEL 8
REMARK VINA RESULT:      -5.5      2.100      2.872
REMARK  Name = 
REMARK  8 active torsions:
REMARK  status: ('A' for Active; 'I' for Inactive)
REMARK    1  A    between atoms: C_2  and  O_3
REMARK    2  A    between atoms: C_2  and  C_4
REMARK    3  A    between atoms: C_4  and  C_5
REMARK    4  A    between atoms: C_5  and  C_6
REMARK    5  A    between atoms: C_6  and  C_7
REMARK    6  A    between atoms: C_7  and  C_8
REMARK    7  A    between atoms: C_8  and  S_9
REMARK    8  A    between atoms: S_9  and  C_10
REMARK                            x       y       z     vdW  Elec       q    Type
REMARK                         _______ _______ _______ _____ _____    ______ ____
ROOT
ATOM      1  C   UNL     1       2.009   5.256  17.986  0.00  0.00    +0.000 C 
ENDROOT
BRANCH   1   2
ATOM      2  C   UNL     1       1.590   3.810  18.274  0.00  0.00    +0.000 C 
BRANCH   2   3
ATOM      3  C   UNL     1       0.945   3.673  19.650  0.00  0.00    +0.000 C 
BRANCH   3   4
ATOM      4  C   UNL     1       1.435   2.407  20.354  0.00  0.00    +0.000 C 
BRANCH   4   6
ATOM      5  O   UNL     1       2.353   3.313  22.414  0.00  0.00    +0.000 OA
ATOM      6  C   UNL     1       2.514   2.708  21.365  0.00  0.00    +0.000 C 
BRANCH   6   7
ATOM      7  O   UNL     1       3.719   2.227  20.983  0.00  0.00    +0.000 OA
ATOM      8  H   UNL     1       3.725   1.266  20.822  0.00  0.00    +0.000 HD
ENDBRANCH   6   7
ENDBRANCH   4   6
ENDBRANCH   3   4
ENDBRANCH   2   3
ENDBRANCH   1   2
BRANCH   1   9
ATOM      9  C   UNL     1       2.738   5.917  19.157  0.00  0.00    +0.000 C 
BRANCH   9  10
ATOM     10  S   UNL     1       4.445   5.285  19.311  0.00  0.00    +0.000 S 
BRANCH  10  11
ATOM     11  C   UNL     1       4.918   5.255  17.599  0.00  0.00    +0.000 A 
ATOM     12  C   UNL     1       5.215   4.061  16.938  0.00  0.00    +0.000 A 
ATOM     13  C   UNL     1       5.574   4.078  15.589  0.00  0.00    +0.000 A 
ATOM     14  C   UNL     1       5.627   5.288  14.897  0.00  0.00    +0.000 A 
ATOM     15  C   UNL     1       5.313   6.480  15.549  0.00  0.00    +0.000 A 
ATOM     16  C   UNL     1       4.953   6.462  16.895  0.00  0.00    +0.000 A 
ENDBRANCH  10  11
ENDBRANCH   9  10
ENDBRANCH   1   9
TORSDOF 8
ENDMDL
MODEL 9
REMARK VINA RESULT:      -5.5      1.186      1.599
REMARK  Name = 
REMARK  8 active torsions:
REMARK  status: ('A' for Active; 'I' for Inactive)
REMARK    1  A    between atoms: C_2  and  O_3
REMARK    2  A    between atoms: C_2  and  C_4
REMARK    3  A    between atoms: C_4  and  C_5
REMARK    4  A    between atoms: C_5  and  C_6
REMARK    5  A    between atoms: C_6  and  C_7
REMARK    6  A    between atoms: C_7  and  C_8
REMARK    7  A    between atoms: C_8  and  S_9
REMARK    8  A    between atoms: S_9  and  C_10
REMARK                            x       y       z     vdW  Elec       q    Type
REMARK                         _______ _______ _______ _____ _____    ______ ____
ROOT
ATOM      1  C   UNL     1       3.588   5.085  18.045  0.00  0.00    +0.000 C 
ENDROOT
BRANCH   1   2
ATOM      2  C   UNL     1       3.562   4.990  19.574  0.00  0.00    +0.000 C 
BRANCH   2   3
ATOM      3  C   UNL     1       2.284   5.589  20.156  0.00  0.00    +0.000 C 
BRANCH   3   4
ATOM      4  C   UNL     1       1.225   4.506  20.364  0.00  0.00    +0.000 C 
BRANCH   4   6
ATOM      5  O   UNL     1       2.254   3.319  22.220  0.00  0.00    +0.000 OA
ATOM      6  C   UNL     1       1.783   3.307  21.092  0.00  0.00    +0.000 C 
BRANCH   6   7
ATOM      7  O   UNL     1       1.710   2.180  20.349  0.00  0.00    +0.000 OA
ATOM      8  H   UNL     1       1.357   2.324  19.452  0.00  0.00    +0.000 HD
ENDBRANCH   6   7
ENDBRANCH   4   6
ENDBRANCH   3   4
ENDBRANCH   2   3
ENDBRANCH   1   2
BRANCH   1   9
ATOM      9  C   UNL     1       4.170   3.839  17.374  0.00  0.00    +0.000 C 
BRANCH   9  10
ATOM     10  S   UNL     1       5.406   4.292  16.107  0.00  0.00    +0.000 S 
BRANCH  10  11
ATOM     11  C   UNL     1       6.449   5.366  17.063  0.00  0.00    +0.000 A 
ATOM     12  C   UNL     1       6.554   6.731  16.783  0.00  0.00    +0.000 A 
ATOM     13  C   UNL     1       7.376   7.544  17.564  0.00  0.00    +0.000 A 
ATOM     14  C   UNL     1       8.088   6.996  18.631  0.00  0.00    +0.000 A 
ATOM     15  C   UNL     1       7.972   5.638  18.925  0.00  0.00    +0.000 A 
ATOM     16  C   UNL     1       7.149   4.827  18.146  0.00  0.00    +0.000 A 
ENDBRANCH  10  11
ENDBRANCH   9  10
ENDBRANCH   1   9
TORSDOF 8
ENDMDL
