MODEL 1
REMARK VINA RESULT:      -7.7      0.000      0.000
REMARK  Name = 
REMARK  12 active torsions:
REMARK  status: ('A' for Active; 'I' for Inactive)
REMARK    1  A    between atoms: C_1  and  O_2
REMARK    2  A    between atoms: O_2  and  C_3
REMARK    3  A    between atoms: C_5  and  C_6
REMARK    4  A    between atoms: C_6  and  O_7
REMARK    5  A    between atoms: C_6  and  C_8
REMARK    6  A    between atoms: C_8  and  N_9
REMARK    7  A    between atoms: N_12  and  C_13
REMARK    8  A    between atoms: C_13  and  C_14
REMARK    9  A    between atoms: C_14  and  O_15
REMARK   10  A    between atoms: C_14  and  C_16
REMARK   11  A    between atoms: C_21  and  C_22
REMARK   12  A    between atoms: C_31  and  C_32
REMARK                            x       y       z     vdW  Elec       q    Type
REMARK                         _______ _______ _______ _____ _____    ______ ____
ROOT
ATOM      1  N   UNL     1       0.492   8.527  20.125  0.00  0.00    +0.000 NA
ATOM      2  C   UNL     1      -0.453   8.602  21.259  0.00  0.00    +0.000 C 
ATOM      3  C   UNL     1      -0.011   9.614  22.343  0.00  0.00    +0.000 C 
ATOM      4  N   UNL     1       0.113  10.997  21.832  0.00  0.00    +0.000 NA
ATOM      5  C   UNL     1       1.005  10.985  20.645  0.00  0.00    +0.000 C 
ATOM      6  C   UNL     1       0.671   9.897  19.584  0.00  0.00    +0.000 C 
ENDROOT
BRANCH   1   7
ATOM      7  C   UNL     1       1.806   7.953  20.507  0.00  0.00    +0.000 C 
BRANCH   7   8
ATOM      8  C   UNL     1       2.030   6.462  20.117  0.00  0.00    +0.000 C 
BRANCH   8  11
ATOM      9  C   UNL     1       5.445   5.474  18.749  0.00  0.00    +0.000 A 
ATOM     10  C   UNL     1       4.301   5.557  19.552  0.00  0.00    +0.000 A 
ATOM     11  C   UNL     1       3.138   6.228  19.124  0.00  0.00    +0.000 A 
ATOM     12  C   UNL     1       3.137   6.798  17.845  0.00  0.00    +0.000 A 
ATOM     13  C   UNL     1       4.251   6.696  17.028  0.00  0.00    +0.000 A 
ATOM     14  C   UNL     1       5.412   6.042  17.474  0.00  0.00    +0.000 A 
BRANCH   9  16
ATOM     15  C   UNL     1       7.642   5.504  19.690  0.00  0.00    +0.000 C 
ATOM     16  O   UNL     1       6.468   4.780  19.337  0.00  0.00    +0.000 OA
ENDBRANCH   9  16
BRANCH  14  17
ATOM     17  C   UNL     1       6.488   5.982  16.540  0.00  0.00    +0.000 C 
ATOM     18  N   UNL     1       7.352   5.880  15.774  0.00  0.00    +0.000 NA
ENDBRANCH  14  17
ENDBRANCH   8  11
BRANCH   8  19
ATOM     19  O   UNL     1       2.407   5.638  21.223  0.00  0.00    +0.000 OA
ATOM     20  H   UNL     1       2.215   4.719  20.981  0.00  0.00    +0.000 HD
ENDBRANCH   8  19
ENDBRANCH   7   8
ENDBRANCH   1   7
BRANCH   4  21
ATOM     21  C   UNL     1      -1.197  11.564  21.447  0.00  0.00    +0.000 C 
BRANCH  21  22
ATOM     22  C   UNL     1      -1.689  12.760  22.298  0.00  0.00    +0.000 C 
BRANCH  22  23
ATOM     23  C   UNL     1      -3.160  12.702  22.657  0.00  0.00    +0.000 A 
ATOM     24  C   UNL     1      -3.567  12.623  24.017  0.00  0.00    +0.000 A 
ATOM     25  C   UNL     1      -4.905  12.708  24.377  0.00  0.00    +0.000 A 
ATOM     26  C   UNL     1      -5.815  12.883  23.357  0.00  0.00    +0.000 A 
ATOM     27  C   UNL     1      -5.452  12.981  22.029  0.00  0.00    +0.000 A 
ATOM     28  C   UNL     1      -4.122  12.898  21.636  0.00  0.00    +0.000 A 
ATOM     29  C   UNL     1      -3.716  13.075  20.200  0.00  0.00    +0.000 C 
ATOM     30  C   UNL     1      -6.665  13.223  21.225  0.00  0.00    +0.000 C 
ATOM     31  O   UNL     1      -7.727  13.222  22.200  0.00  0.00    +0.000 OA
ATOM     32  C   UNL     1      -7.255  13.036  23.469  0.00  0.00    +0.000 C 
ATOM     33  O   UNL     1      -7.903  13.006  24.494  0.00  0.00    +0.000 OA
ENDBRANCH  22  23
BRANCH  22  34
ATOM     34  O   UNL     1      -1.042  12.863  23.567  0.00  0.00    +0.000 OA
ATOM     35  H   UNL     1      -0.108  12.629  23.438  0.00  0.00    +0.000 HD
ENDBRANCH  22  34
ENDBRANCH  21  22
ENDBRANCH   4  21
TORSDOF 10
ENDMDL
MODEL 2
REMARK VINA RESULT:      -7.5      2.206     11.752
REMARK  Name = 
REMARK  12 active torsions:
REMARK  status: ('A' for Active; 'I' for Inactive)
REMARK    1  A    between atoms: C_1  and  O_2
REMARK    2  A    between atoms: O_2  and  C_3
REMARK    3  A    between atoms: C_5  and  C_6
REMARK    4  A    between atoms: C_6  and  O_7
REMARK    5  A    between atoms: C_6  and  C_8
REMARK    6  A    between atoms: C_8  and  N_9
REMARK    7  A    between atoms: N_12  and  C_13
REMARK    8  A    between atoms: C_13  and  C_14
REMARK    9  A    between atoms: C_14  and  O_15
REMARK   10  A    between atoms: C_14  and  C_16
REMARK   11  A    between atoms: C_21  and  C_22
REMARK   12  A    between atoms: C_31  and  C_32
REMARK                            x       y       z     vdW  Elec       q    Type
REMARK                         _______ _______ _______ _____ _____    ______ ____
ROOT
ATOM      1  N   UNL     1       0.477  11.811  20.448  0.00  0.00    +0.000 NA
ATOM      2  C   UNL     1       0.844  10.544  21.115  0.00  0.00    +0.000 C 
ATOM      3  C   UNL     1       0.121   9.316  20.512  0.00  0.00    +0.000 C 
ATOM      4  N   UNL     1       0.417   9.114  19.076  0.00  0.00    +0.000 NA
ATOM      5  C   UNL     1       0.129  10.376  18.351  0.00  0.00    +0.000 C 
ATOM      6  C   UNL     1       0.735  11.656  18.994  0.00  0.00    +0.000 C 
ENDROOT
BRANCH   1   7
ATOM      7  C   UNL     1      -0.939  12.194  20.677  0.00  0.00    +0.000 C 
BRANCH   7   8
ATOM      8  C   UNL     1      -1.256  12.799  22.076  0.00  0.00    +0.000 C 
BRANCH   8  11
ATOM      9  C   UNL     1      -5.059  12.924  21.893  0.00  0.00    +0.000 A 
ATOM     10  C   UNL     1      -3.707  12.832  21.540  0.00  0.00    +0.000 A 
ATOM     11  C   UNL     1      -2.694  12.675  22.507  0.00  0.00    +0.000 A 
ATOM     12  C   UNL     1      -3.072  12.583  23.851  0.00  0.00    +0.000 A 
ATOM     13  C   UNL     1      -4.409  12.642  24.212  0.00  0.00    +0.000 A 
ATOM     14  C   UNL     1      -5.408  12.819  23.240  0.00  0.00    +0.000 A 
BRANCH   9  16
ATOM     15  C   UNL     1      -6.348  11.887  20.168  0.00  0.00    +0.000 C 
ATOM     16  O   UNL     1      -5.889  13.070  20.814  0.00  0.00    +0.000 OA
ENDBRANCH   9  16
BRANCH  14  17
ATOM     17  C   UNL     1      -6.749  12.845  23.726  0.00  0.00    +0.000 C 
ATOM     18  N   UNL     1      -7.856  12.853  24.070  0.00  0.00    +0.000 NA
ENDBRANCH  14  17
ENDBRANCH   8  11
BRANCH   8  19
ATOM     19  O   UNL     1      -0.543  12.165  23.141  0.00  0.00    +0.000 OA
ATOM     20  H   UNL     1      -1.135  11.507  23.537  0.00  0.00    +0.000 HD
ENDBRANCH   8  19
ENDBRANCH   7   8
ENDBRANCH   1   7
BRANCH   4  21
ATOM     21  C   UNL     1       1.830   8.738  18.850  0.00  0.00    +0.000 C 
BRANCH  21  22
ATOM     22  C   UNL     1       2.162   7.235  19.019  0.00  0.00    +0.000 C 
BRANCH  22  23
ATOM     23  C   UNL     1       3.248   6.733  18.090  0.00  0.00    +0.000 A 
ATOM     24  C   UNL     1       4.326   7.581  17.717  0.00  0.00    +0.000 A 
ATOM     25  C   UNL     1       5.402   7.101  16.982  0.00  0.00    +0.000 A 
ATOM     26  C   UNL     1       5.380   5.766  16.643  0.00  0.00    +0.000 A 
ATOM     27  C   UNL     1       4.358   4.911  17.004  0.00  0.00    +0.000 A 
ATOM     28  C   UNL     1       3.267   5.361  17.738  0.00  0.00    +0.000 A 
ATOM     29  C   UNL     1       2.187   4.420  18.193  0.00  0.00    +0.000 C 
ATOM     30  C   UNL     1       4.688   3.554  16.529  0.00  0.00    +0.000 C 
ATOM     31  O   UNL     1       5.951   3.725  15.855  0.00  0.00    +0.000 OA
ATOM     32  C   UNL     1       6.391   5.018  15.916  0.00  0.00    +0.000 C 
ATOM     33  O   UNL     1       7.422   5.462  15.458  0.00  0.00    +0.000 OA
ENDBRANCH  22  23
BRANCH  22  34
ATOM     34  O   UNL     1       2.655   6.901  20.317  0.00  0.00    +0.000 OA
ATOM     35  H   UNL     1       3.096   6.038  20.248  0.00  0.00    +0.000 HD
ENDBRANCH  22  34
ENDBRANCH  21  22
ENDBRANCH   4  21
TORSDOF 10
ENDMDL
MODEL 3
REMARK VINA RESULT:      -7.5      1.324      1.607
REMARK  Name = 
REMARK  12 active torsions:
REMARK  status: ('A' for Active; 'I' for Inactive)
REMARK    1  A    between atoms: C_1  and  O_2
REMARK    2  A    between atoms: O_2  and  C_3
REMARK    3  A    between atoms: C_5  and  C_6
REMARK    4  A    between atoms: C_6  and  O_7
REMARK    5  A    between atoms: C_6  and  C_8
REMARK    6  A    between atoms: C_8  and  N_9
REMARK    7  A    between atoms: N_12  and  C_13
REMARK    8  A    between atoms: C_13  and  C_14
REMARK    9  A    between atoms: C_14  and  O_15
REMARK   10  A    between atoms: C_14  and  C_16
REMARK   11  A    between atoms: C_21  and  C_22
REMARK   12  A    between atoms: C_31  and  C_32
REMARK                            x       y       z     vdW  Elec       q    Type
REMARK                         _______ _______ _______ _____ _____    ______ ____
ROOT
ATOM      1  N   UNL     1       1.011   8.228  21.597  0.00  0.00    +0.000 NA
ATOM      2  C   UNL     1       1.474   9.427  22.327  0.00  0.00    +0.000 C 
ATOM      3  C   UNL     1       1.234  10.738  21.542  0.00  0.00    +0.000 C 
ATOM      4  N   UNL     1      -0.194  10.980  21.238  0.00  0.00    +0.000 NA
ATOM      5  C   UNL     1      -0.744   9.782  20.556  0.00  0.00    +0.000 C 
ATOM      6  C   UNL     1      -0.418   8.426  21.247  0.00  0.00    +0.000 C 
ENDROOT
BRANCH   1   7
ATOM      7  C   UNL     1       1.803   7.956  20.372  0.00  0.00    +0.000 C 
BRANCH   7   8
ATOM      8  C   UNL     1       1.925   6.458  19.967  0.00  0.00    +0.000 C 
BRANCH   8  11
ATOM      9  C   UNL     1       4.080   4.563  17.461  0.00  0.00    +0.000 A 
ATOM     10  C   UNL     1       3.133   4.868  18.446  0.00  0.00    +0.000 A 
ATOM     11  C   UNL     1       2.784   6.198  18.757  0.00  0.00    +0.000 A 
ATOM     12  C   UNL     1       3.393   7.227  18.030  0.00  0.00    +0.000 A 
ATOM     13  C   UNL     1       4.309   6.938  17.031  0.00  0.00    +0.000 A 
ATOM     14  C   UNL     1       4.663   5.609  16.744  0.00  0.00    +0.000 A 
BRANCH   9  16
ATOM     15  C   UNL     1       3.358   2.334  17.934  0.00  0.00    +0.000 C 
ATOM     16  O   UNL     1       4.279   3.218  17.302  0.00  0.00    +0.000 OA
ENDBRANCH   9  16
BRANCH  14  17
ATOM     17  C   UNL     1       5.599   5.431  15.683  0.00  0.00    +0.000 C 
ATOM     18  N   UNL     1       6.361   5.341  14.814  0.00  0.00    +0.000 NA
ENDBRANCH  14  17
ENDBRANCH   8  11
BRANCH   8  19
ATOM     19  O   UNL     1       2.534   5.646  20.976  0.00  0.00    +0.000 OA
ATOM     20  H   UNL     1       2.621   4.750  20.615  0.00  0.00    +0.000 HD
ENDBRANCH   8  19
ENDBRANCH   7   8
ENDBRANCH   1   7
BRANCH   4  21
ATOM     21  C   UNL     1      -0.983  11.245  22.461  0.00  0.00    +0.000 C 
BRANCH  21  22
ATOM     22  C   UNL     1      -1.547  12.680  22.600  0.00  0.00    +0.000 C 
BRANCH  22  23
ATOM     23  C   UNL     1      -3.032  12.736  22.895  0.00  0.00    +0.000 A 
ATOM     24  C   UNL     1      -3.534  12.301  24.152  0.00  0.00    +0.000 A 
ATOM     25  C   UNL     1      -4.869  12.472  24.495  0.00  0.00    +0.000 A 
ATOM     26  C   UNL     1      -5.677  13.090  23.567  0.00  0.00    +0.000 A 
ATOM     27  C   UNL     1      -5.218  13.540  22.345  0.00  0.00    +0.000 A 
ATOM     28  C   UNL     1      -3.889  13.383  21.971  0.00  0.00    +0.000 A 
ATOM     29  C   UNL     1      -3.370  13.934  20.673  0.00  0.00    +0.000 C 
ATOM     30  C   UNL     1      -6.331  14.201  21.638  0.00  0.00    +0.000 C 
ATOM     31  O   UNL     1      -7.445  14.057  22.542  0.00  0.00    +0.000 OA
ATOM     32  C   UNL     1      -7.087  13.417  23.695  0.00  0.00    +0.000 C 
ATOM     33  O   UNL     1      -7.798  13.168  24.645  0.00  0.00    +0.000 OA
ENDBRANCH  22  23
BRANCH  22  34
ATOM     34  O   UNL     1      -0.967  13.420  23.677  0.00  0.00    +0.000 OA
ATOM     35  H   UNL     1      -1.391  13.121  24.497  0.00  0.00    +0.000 HD
ENDBRANCH  22  34
ENDBRANCH  21  22
ENDBRANCH   4  21
TORSDOF 10
ENDMDL
MODEL 4
REMARK VINA RESULT:      -7.5      2.834      4.111
REMARK  Name = 
REMARK  12 active torsions:
REMARK  status: ('A' for Active; 'I' for Inactive)
REMARK    1  A    between atoms: C_1  and  O_2
REMARK    2  A    between atoms: O_2  and  C_3
REMARK    3  A    between atoms: C_5  and  C_6
REMARK    4  A    between atoms: C_6  and  O_7
REMARK    5  A    between atoms: C_6  and  C_8
REMARK    6  A    between atoms: C_8  and  N_9
REMARK    7  A    between atoms: N_12  and  C_13
REMARK    8  A    between atoms: C_13  and  C_14
REMARK    9  A    between atoms: C_14  and  O_15
REMARK   10  A    between atoms: C_14  and  C_16
REMARK   11  A    between atoms: C_21  and  C_22
REMARK   12  A    between atoms: C_31  and  C_32
REMARK                            x       y       z     vdW  Elec       q    Type
REMARK                         _______ _______ _______ _____ _____    ______ ____
ROOT
ATOM      1  N   UNL     1       2.176   5.237  19.370  0.00  0.00    +0.000 NA
ATOM      2  C   UNL     1       1.602   6.029  20.478  0.00  0.00    +0.000 C 
ATOM      3  C   UNL     1       2.238   7.434  20.603  0.00  0.00    +0.000 C 
ATOM      4  N   UNL     1       2.066   8.261  19.388  0.00  0.00    +0.000 NA
ATOM      5  C   UNL     1       2.567   7.495  18.219  0.00  0.00    +0.000 C 
ATOM      6  C   UNL     1       2.048   6.031  18.123  0.00  0.00    +0.000 C 
ENDROOT
BRANCH   1   7
ATOM      7  C   UNL     1       3.596   4.869  19.598  0.00  0.00    +0.000 C 
BRANCH   7   8
ATOM      8  C   UNL     1       4.110   3.637  18.797  0.00  0.00    +0.000 C 
BRANCH   8  11
ATOM      9  C   UNL     1       6.915   5.368  16.888  0.00  0.00    +0.000 A 
ATOM     10  C   UNL     1       6.114   4.868  17.921  0.00  0.00    +0.000 A 
ATOM     11  C   UNL     1       5.060   3.965  17.675  0.00  0.00    +0.000 A 
ATOM     12  C   UNL     1       4.841   3.549  16.357  0.00  0.00    +0.000 A 
ATOM     13  C   UNL     1       5.646   4.013  15.328  0.00  0.00    +0.000 A 
ATOM     14  C   UNL     1       6.681   4.928  15.584  0.00  0.00    +0.000 A 
BRANCH   9  16
ATOM     15  C   UNL     1       7.541   7.601  17.467  0.00  0.00    +0.000 C 
ATOM     16  O   UNL     1       7.887   6.227  17.327  0.00  0.00    +0.000 OA
ENDBRANCH   9  16
BRANCH  14  17
ATOM     17  C   UNL     1       7.456   5.320  14.453  0.00  0.00    +0.000 C 
ATOM     18  N   UNL     1       8.046   5.620  13.502  0.00  0.00    +0.000 NA
ENDBRANCH  14  17
ENDBRANCH   8  11
BRANCH   8  19
ATOM     19  O   UNL     1       4.857   2.715  19.595  0.00  0.00    +0.000 OA
ATOM     20  H   UNL     1       4.786   1.843  19.176  0.00  0.00    +0.000 HD
ENDBRANCH   8  19
ENDBRANCH   7   8
ENDBRANCH   1   7
BRANCH   4  21
ATOM     21  C   UNL     1       0.650   8.621  19.159  0.00  0.00    +0.000 C 
BRANCH  21  22
ATOM     22  C   UNL     1       0.404  10.002  18.504  0.00  0.00    +0.000 C 
BRANCH  22  23
ATOM     23  C   UNL     1      -0.908  10.649  18.898  0.00  0.00    +0.000 A 
ATOM     24  C   UNL     1      -0.993  11.450  20.070  0.00  0.00    +0.000 A 
ATOM     25  C   UNL     1      -2.144  12.164  20.375  0.00  0.00    +0.000 A 
ATOM     26  C   UNL     1      -3.192  12.069  19.486  0.00  0.00    +0.000 A 
ATOM     27  C   UNL     1      -3.136  11.314  18.331  0.00  0.00    +0.000 A 
ATOM     28  C   UNL     1      -2.000  10.587  17.998  0.00  0.00    +0.000 A 
ATOM     29  C   UNL     1      -1.909   9.822  16.707  0.00  0.00    +0.000 C 
ATOM     30  C   UNL     1      -4.401  11.489  17.593  0.00  0.00    +0.000 C 
ATOM     31  O   UNL     1      -5.171  12.369  18.436  0.00  0.00    +0.000 OA
ATOM     32  C   UNL     1      -4.479  12.738  19.554  0.00  0.00    +0.000 C 
ATOM     33  O   UNL     1      -4.856  13.481  20.437  0.00  0.00    +0.000 OA
ENDBRANCH  22  23
BRANCH  22  34
ATOM     34  O   UNL     1       1.378  10.984  18.859  0.00  0.00    +0.000 OA
ATOM     35  H   UNL     1       1.958  11.111  18.090  0.00  0.00    +0.000 HD
ENDBRANCH  22  34
ENDBRANCH  21  22
ENDBRANCH   4  21
TORSDOF 10
ENDMDL
MODEL 5
REMARK VINA RESULT:      -7.4      3.887     11.712
REMARK  Name = 
REMARK  12 active torsions:
REMARK  status: ('A' for Active; 'I' for Inactive)
REMARK    1  A    between atoms: C_1  and  O_2
REMARK    2  A    between atoms: O_2  and  C_3
REMARK    3  A    between atoms: C_5  and  C_6
REMARK    4  A    between atoms: C_6  and  O_7
REMARK    5  A    between atoms: C_6  and  C_8
REMARK    6  A    between atoms: C_8  and  N_9
REMARK    7  A    between atoms: N_12  and  C_13
REMARK    8  A    between atoms: C_13  and  C_14
REMARK    9  A    between atoms: C_14  and  O_15
REMARK   10  A    between atoms: C_14  and  C_16
REMARK   11  A    between atoms: C_21  and  C_22
REMARK   12  A    between atoms: C_31  and  C_32
REMARK                            x       y       z     vdW  Elec       q    Type
REMARK                         _______ _______ _______ _____ _____    ______ ____
ROOT
ATOM      1  N   UNL     1       2.193   8.794  18.807  0.00  0.00    +0.000 NA
ATOM      2  C   UNL     1       2.278   8.197  20.156  0.00  0.00    +0.000 C 
ATOM      3  C   UNL     1       1.642   6.789  20.232  0.00  0.00    +0.000 C 
ATOM      4  N   UNL     1       2.280   5.813  19.320  0.00  0.00    +0.000 NA
ATOM      5  C   UNL     1       2.286   6.379  17.948  0.00  0.00    +0.000 C 
ATOM      6  C   UNL     1       2.803   7.843  17.844  0.00  0.00    +0.000 C 
ENDROOT
BRANCH   1   7
ATOM      7  C   UNL     1       0.800   9.107  18.402  0.00  0.00    +0.000 C 
BRANCH   7   8
ATOM      8  C   UNL     1       0.256  10.488  18.870  0.00  0.00    +0.000 C 
BRANCH   8  11
ATOM      9  C   UNL     1      -3.069  10.448  17.011  0.00  0.00    +0.000 A 
ATOM     10  C   UNL     1      -1.778  10.124  17.446  0.00  0.00    +0.000 A 
ATOM     11  C   UNL     1      -1.205  10.721  18.587  0.00  0.00    +0.000 A 
ATOM     12  C   UNL     1      -1.975  11.642  19.307  0.00  0.00    +0.000 A 
ATOM     13  C   UNL     1      -3.265  11.949  18.906  0.00  0.00    +0.000 A 
ATOM     14  C   UNL     1      -3.818  11.361  17.755  0.00  0.00    +0.000 A 
BRANCH   9  16
ATOM     15  C   UNL     1      -3.028  10.269  14.628  0.00  0.00    +0.000 C 
ATOM     16  O   UNL     1      -3.448   9.761  15.889  0.00  0.00    +0.000 OA
ENDBRANCH   9  16
BRANCH  14  17
ATOM     17  C   UNL     1      -5.160  11.736  17.450  0.00  0.00    +0.000 C 
ATOM     18  N   UNL     1      -6.253  11.998  17.168  0.00  0.00    +0.000 NA
ENDBRANCH  14  17
ENDBRANCH   8  11
BRANCH   8  19
ATOM     19  O   UNL     1       0.347  10.683  20.284  0.00  0.00    +0.000 OA
ATOM     20  H   UNL     1      -0.379  11.271  20.544  0.00  0.00    +0.000 HD
ENDBRANCH   8  19
ENDBRANCH   7   8
ENDBRANCH   1   7
BRANCH   4  21
ATOM     21  C   UNL     1       3.670   5.506  19.723  0.00  0.00    +0.000 C 
BRANCH  21  22
ATOM     22  C   UNL     1       4.322   4.292  19.020  0.00  0.00    +0.000 C 
BRANCH  22  23
ATOM     23  C   UNL     1       5.080   4.641  17.755  0.00  0.00    +0.000 A 
ATOM     24  C   UNL     1       6.269   5.417  17.818  0.00  0.00    +0.000 A 
ATOM     25  C   UNL     1       7.053   5.632  16.692  0.00  0.00    +0.000 A 
ATOM     26  C   UNL     1       6.630   5.050  15.517  0.00  0.00    +0.000 A 
ATOM     27  C   UNL     1       5.489   4.276  15.425  0.00  0.00    +0.000 A 
ATOM     28  C   UNL     1       4.683   4.044  16.533  0.00  0.00    +0.000 A 
ATOM     29  C   UNL     1       3.481   3.146  16.453  0.00  0.00    +0.000 C 
ATOM     30  C   UNL     1       5.375   3.769  14.045  0.00  0.00    +0.000 C 
ATOM     31  O   UNL     1       6.516   4.340  13.374  0.00  0.00    +0.000 OA
ATOM     32  C   UNL     1       7.282   5.091  14.220  0.00  0.00    +0.000 C 
ATOM     33  O   UNL     1       8.308   5.680  13.951  0.00  0.00    +0.000 OA
ENDBRANCH  22  23
BRANCH  22  34
ATOM     34  O   UNL     1       5.302   3.627  19.819  0.00  0.00    +0.000 OA
ATOM     35  H   UNL     1       5.049   2.690  19.871  0.00  0.00    +0.000 HD
ENDBRANCH  22  34
ENDBRANCH  21  22
ENDBRANCH   4  21
TORSDOF 10
ENDMDL
MODEL 6
REMARK VINA RESULT:      -7.3      2.010      2.561
REMARK  Name = 
REMARK  12 active torsions:
REMARK  status: ('A' for Active; 'I' for Inactive)
REMARK    1  A    between atoms: C_1  and  O_2
REMARK    2  A    between atoms: O_2  and  C_3
REMARK    3  A    between atoms: C_5  and  C_6
REMARK    4  A    between atoms: C_6  and  O_7
REMARK    5  A    between atoms: C_6  and  C_8
REMARK    6  A    between atoms: C_8  and  N_9
REMARK    7  A    between atoms: N_12  and  C_13
REMARK    8  A    between atoms: C_13  and  C_14
REMARK    9  A    between atoms: C_14  and  O_15
REMARK   10  A    between atoms: C_14  and  C_16
REMARK   11  A    between atoms: C_21  and  C_22
REMARK   12  A    between atoms: C_31  and  C_32
REMARK                            x       y       z     vdW  Elec       q    Type
REMARK                         _______ _______ _______ _____ _____    ______ ____
ROOT
ATOM      1  N   UNL     1       0.627   9.373  19.140  0.00  0.00    +0.000 NA
ATOM      2  C   UNL     1       0.093   9.247  20.512  0.00  0.00    +0.000 C 
ATOM      3  C   UNL     1       0.861  10.113  21.538  0.00  0.00    +0.000 C 
ATOM      4  N   UNL     1       0.822  11.559  21.224  0.00  0.00    +0.000 NA
ATOM      5  C   UNL     1       1.289  11.753  19.828  0.00  0.00    +0.000 C 
ATOM      6  C   UNL     1       0.630  10.813  18.778  0.00  0.00    +0.000 C 
ENDROOT
BRANCH   1   7
ATOM      7  C   UNL     1       1.992   8.808  18.998  0.00  0.00    +0.000 C 
BRANCH   7   8
ATOM      8  C   UNL     1       2.105   7.265  19.168  0.00  0.00    +0.000 C 
BRANCH   8  11
ATOM      9  C   UNL     1       3.848   4.455  17.276  0.00  0.00    +0.000 A 
ATOM     10  C   UNL     1       2.932   5.174  18.053  0.00  0.00    +0.000 A 
ATOM     11  C   UNL     1       2.980   6.579  18.151  0.00  0.00    +0.000 A 
ATOM     12  C   UNL     1       3.963   7.258  17.422  0.00  0.00    +0.000 A 
ATOM     13  C   UNL     1       4.857   6.562  16.625  0.00  0.00    +0.000 A 
ATOM     14  C   UNL     1       4.810   5.159  16.551  0.00  0.00    +0.000 A 
BRANCH   9  16
ATOM     15  C   UNL     1       2.410   2.637  17.862  0.00  0.00    +0.000 C 
ATOM     16  O   UNL     1       3.635   3.103  17.305  0.00  0.00    +0.000 OA
ENDBRANCH   9  16
BRANCH  14  17
ATOM     17  C   UNL     1       5.766   4.551  15.684  0.00  0.00    +0.000 C 
ATOM     18  N   UNL     1       6.546   4.105  14.953  0.00  0.00    +0.000 NA
ENDBRANCH  14  17
ENDBRANCH   8  11
BRANCH   8  19
ATOM     19  O   UNL     1       2.688   6.873  20.413  0.00  0.00    +0.000 OA
ATOM     20  H   UNL     1       2.273   7.406  21.109  0.00  0.00    +0.000 HD
ENDBRANCH   8  19
ENDBRANCH   7   8
ENDBRANCH   1   7
BRANCH   4  21
ATOM     21  C   UNL     1      -0.541  12.118  21.360  0.00  0.00    +0.000 C 
BRANCH  21  22
ATOM     22  C   UNL     1      -1.025  12.363  22.809  0.00  0.00    +0.000 C 
BRANCH  22  23
ATOM     23  C   UNL     1      -2.314  13.154  22.906  0.00  0.00    +0.000 A 
ATOM     24  C   UNL     1      -3.516  12.645  22.343  0.00  0.00    +0.000 A 
ATOM     25  C   UNL     1      -4.733  13.284  22.540  0.00  0.00    +0.000 A 
ATOM     26  C   UNL     1      -4.721  14.424  23.312  0.00  0.00    +0.000 A 
ATOM     27  C   UNL     1      -3.575  14.935  23.888  0.00  0.00    +0.000 A 
ATOM     28  C   UNL     1      -2.342  14.321  23.709  0.00  0.00    +0.000 A 
ATOM     29  C   UNL     1      -1.105  14.833  24.391  0.00  0.00    +0.000 C 
ATOM     30  C   UNL     1      -3.938  16.119  24.690  0.00  0.00    +0.000 C 
ATOM     31  O   UNL     1      -5.361  16.243  24.493  0.00  0.00    +0.000 OA
ATOM     32  C   UNL     1      -5.854  15.250  23.694  0.00  0.00    +0.000 C 
ATOM     33  O   UNL     1      -7.009  15.081  23.365  0.00  0.00    +0.000 OA
ENDBRANCH  22  23
BRANCH  22  34
ATOM     34  O   UNL     1      -1.319  11.162  23.525  0.00  0.00    +0.000 OA
ATOM     35  H   UNL     1      -1.757  11.416  24.354  0.00  0.00    +0.000 HD
ENDBRANCH  22  34
ENDBRANCH  21  22
ENDBRANCH   4  21
TORSDOF 10
ENDMDL
MODEL 7
REMARK VINA RESULT:      -7.3      2.099     11.132
REMARK  Name = 
REMARK  12 active torsions:
REMARK  status: ('A' for Active; 'I' for Inactive)
REMARK    1  A    between atoms: C_1  and  O_2
REMARK    2  A    between atoms: O_2  and  C_3
REMARK    3  A    between atoms: C_5  and  C_6
REMARK    4  A    between atoms: C_6  and  O_7
REMARK    5  A    between atoms: C_6  and  C_8
REMARK    6  A    between atoms: C_8  and  N_9
REMARK    7  A    between atoms: N_12  and  C_13
REMARK    8  A    between atoms: C_13  and  C_14
REMARK    9  A    between atoms: C_14  and  O_15
REMARK   10  A    between atoms: C_14  and  C_16
REMARK   11  A    between atoms: C_21  and  C_22
REMARK   12  A    between atoms: C_31  and  C_32
REMARK                            x       y       z     vdW  Elec       q    Type
REMARK                         _______ _______ _______ _____ _____    ______ ____
ROOT
ATOM      1  N   UNL     1       0.514  10.916  22.140  0.00  0.00    +0.000 NA
ATOM      2  C   UNL     1       0.599   9.550  22.698  0.00  0.00    +0.000 C 
ATOM      3  C   UNL     1      -0.094   8.493  21.804  0.00  0.00    +0.000 C 
ATOM      4  N   UNL     1       0.487   8.409  20.446  0.00  0.00    +0.000 NA
ATOM      5  C   UNL     1       0.492   9.767  19.848  0.00  0.00    +0.000 C 
ATOM      6  C   UNL     1       1.067  10.886  20.763  0.00  0.00    +0.000 C 
ENDROOT
BRANCH   1   7
ATOM      7  C   UNL     1      -0.872  11.447  22.122  0.00  0.00    +0.000 C 
BRANCH   7   8
ATOM      8  C   UNL     1      -1.114  12.669  21.188  0.00  0.00    +0.000 C 
BRANCH   8  11
ATOM      9  C   UNL     1      -4.827  12.944  20.384  0.00  0.00    +0.000 A 
ATOM     10  C   UNL     1      -3.571  13.131  20.973  0.00  0.00    +0.000 A 
ATOM     11  C   UNL     1      -2.393  12.615  20.395  0.00  0.00    +0.000 A 
ATOM     12  C   UNL     1      -2.502  11.919  19.185  0.00  0.00    +0.000 A 
ATOM     13  C   UNL     1      -3.735  11.753  18.576  0.00  0.00    +0.000 A 
ATOM     14  C   UNL     1      -4.904  12.256  19.172  0.00  0.00    +0.000 A 
BRANCH   9  16
ATOM     15  C   UNL     1      -6.283  12.870  22.279  0.00  0.00    +0.000 C 
ATOM     16  O   UNL     1      -5.846  13.523  21.091  0.00  0.00    +0.000 OA
ENDBRANCH   9  16
BRANCH  14  17
ATOM     17  C   UNL     1      -6.112  12.042  18.445  0.00  0.00    +0.000 C 
ATOM     18  N   UNL     1      -7.079  11.817  17.846  0.00  0.00    +0.000 NA
ENDBRANCH  14  17
ENDBRANCH   8  11
BRANCH   8  19
ATOM     19  O   UNL     1      -1.222  13.908  21.894  0.00  0.00    +0.000 OA
ATOM     20  H   UNL     1      -0.682  13.835  22.696  0.00  0.00    +0.000 HD
ENDBRANCH   8  19
ENDBRANCH   7   8
ENDBRANCH   1   7
BRANCH   4  21
ATOM     21  C   UNL     1       1.871   7.885  20.467  0.00  0.00    +0.000 C 
BRANCH  21  22
ATOM     22  C   UNL     1       2.047   6.431  19.968  0.00  0.00    +0.000 C 
BRANCH  22  23
ATOM     23  C   UNL     1       3.343   6.184  19.223  0.00  0.00    +0.000 A 
ATOM     24  C   UNL     1       4.285   5.237  19.710  0.00  0.00    +0.000 A 
ATOM     25  C   UNL     1       5.412   4.894  18.974  0.00  0.00    +0.000 A 
ATOM     26  C   UNL     1       5.566   5.505  17.749  0.00  0.00    +0.000 A 
ATOM     27  C   UNL     1       4.661   6.415  17.239  0.00  0.00    +0.000 A 
ATOM     28  C   UNL     1       3.525   6.780  17.952  0.00  0.00    +0.000 A 
ATOM     29  C   UNL     1       2.503   7.716  17.370  0.00  0.00    +0.000 C 
ATOM     30  C   UNL     1       5.106   6.818  15.892  0.00  0.00    +0.000 C 
ATOM     31  O   UNL     1       6.336   6.089  15.705  0.00  0.00    +0.000 OA
ATOM     32  C   UNL     1       6.627   5.296  16.779  0.00  0.00    +0.000 C 
ATOM     33  O   UNL     1       7.580   4.557  16.907  0.00  0.00    +0.000 OA
ENDBRANCH  22  23
BRANCH  22  34
ATOM     34  O   UNL     1       2.082   5.466  21.022  0.00  0.00    +0.000 OA
ATOM     35  H   UNL     1       1.336   4.859  20.886  0.00  0.00    +0.000 HD
ENDBRANCH  22  34
ENDBRANCH  21  22
ENDBRANCH   4  21
TORSDOF 10
ENDMDL
MODEL 8
REMARK VINA RESULT:      -7.3      2.896      4.659
REMARK  Name = 
REMARK  12 active torsions:
REMARK  status: ('A' for Active; 'I' for Inactive)
REMARK    1  A    between atoms: C_1  and  O_2
REMARK    2  A    between atoms: O_2  and  C_3
REMARK    3  A    between atoms: C_5  and  C_6
REMARK    4  A    between atoms: C_6  and  O_7
REMARK    5  A    between atoms: C_6  and  C_8
REMARK    6  A    between atoms: C_8  and  N_9
REMARK    7  A    between atoms: N_12  and  C_13
REMARK    8  A    between atoms: C_13  and  C_14
REMARK    9  A    between atoms: C_14  and  O_15
REMARK   10  A    between atoms: C_14  and  C_16
REMARK   11  A    between atoms: C_21  and  C_22
REMARK   12  A    between atoms: C_31  and  C_32
REMARK                            x       y       z     vdW  Elec       q    Type
REMARK                         _______ _______ _______ _____ _____    ______ ____
ROOT
ATOM      1  N   UNL     1       2.440   5.240  18.846  0.00  0.00    +0.000 NA
ATOM      2  C   UNL     1       1.633   6.035  19.796  0.00  0.00    +0.000 C 
ATOM      3  C   UNL     1       2.229   7.438  20.062  0.00  0.00    +0.000 C 
ATOM      4  N   UNL     1       2.339   8.264  18.839  0.00  0.00    +0.000 NA
ATOM      5  C   UNL     1       3.088   7.496  17.814  0.00  0.00    +0.000 C 
ATOM      6  C   UNL     1       2.600   6.034  17.602  0.00  0.00    +0.000 C 
ENDROOT
BRANCH   1   7
ATOM      7  C   UNL     1       3.770   4.868  19.390  0.00  0.00    +0.000 C 
BRANCH   7   8
ATOM      8  C   UNL     1       4.460   3.651  18.707  0.00  0.00    +0.000 C 
BRANCH   8  11
ATOM      9  C   UNL     1       6.880   5.646  16.545  0.00  0.00    +0.000 A 
ATOM     10  C   UNL     1       6.170   5.149  17.644  0.00  0.00    +0.000 A 
ATOM     11  C   UNL     1       5.358   4.001  17.549  0.00  0.00    +0.000 A 
ATOM     12  C   UNL     1       5.292   3.339  16.317  0.00  0.00    +0.000 A 
ATOM     13  C   UNL     1       6.014   3.803  15.229  0.00  0.00    +0.000 A 
ATOM     14  C   UNL     1       6.805   4.959  15.332  0.00  0.00    +0.000 A 
BRANCH   9  16
ATOM     15  C   UNL     1       7.939   7.004  18.203  0.00  0.00    +0.000 C 
ATOM     16  O   UNL     1       7.615   6.764  16.838  0.00  0.00    +0.000 OA
ENDBRANCH   9  16
BRANCH  14  17
ATOM     17  C   UNL     1       7.518   5.331  14.154  0.00  0.00    +0.000 C 
ATOM     18  N   UNL     1       8.140   5.646  13.228  0.00  0.00    +0.000 NA
ENDBRANCH  14  17
ENDBRANCH   8  11
BRANCH   8  19
ATOM     19  O   UNL     1       5.330   2.928  19.583  0.00  0.00    +0.000 OA
ATOM     20  H   UNL     1       5.167   1.983  19.440  0.00  0.00    +0.000 HD
ENDBRANCH   8  19
ENDBRANCH   7   8
ENDBRANCH   1   7
BRANCH   4  21
ATOM     21  C   UNL     1       1.012   8.629  18.296  0.00  0.00    +0.000 C 
BRANCH  21  22
ATOM     22  C   UNL     1       0.800  10.131  17.990  0.00  0.00    +0.000 C 
BRANCH  22  23
ATOM     23  C   UNL     1       0.401  10.958  19.195  0.00  0.00    +0.000 A 
ATOM     24  C   UNL     1       1.391  11.606  19.984  0.00  0.00    +0.000 A 
ATOM     25  C   UNL     1       1.043  12.479  21.007  0.00  0.00    +0.000 A 
ATOM     26  C   UNL     1      -0.301  12.695  21.212  0.00  0.00    +0.000 A 
ATOM     27  C   UNL     1      -1.288  12.096  20.453  0.00  0.00    +0.000 A 
ATOM     28  C   UNL     1      -0.972  11.216  19.424  0.00  0.00    +0.000 A 
ATOM     29  C   UNL     1      -2.039  10.618  18.551  0.00  0.00    +0.000 C 
ATOM     30  C   UNL     1      -2.599  12.596  20.905  0.00  0.00    +0.000 C 
ATOM     31  O   UNL     1      -2.270  13.491  21.987  0.00  0.00    +0.000 OA
ATOM     32  C   UNL     1      -0.921  13.580  22.183  0.00  0.00    +0.000 C 
ATOM     33  O   UNL     1      -0.344  14.262  23.003  0.00  0.00    +0.000 OA
ENDBRANCH  22  23
BRANCH  22  34
ATOM     34  O   UNL     1       1.975  10.788  17.511  0.00  0.00    +0.000 OA
ATOM     35  H   UNL     1       2.087  10.541  16.579  0.00  0.00    +0.000 HD
ENDBRANCH  22  34
ENDBRANCH  21  22
ENDBRANCH   4  21
TORSDOF 10
ENDMDL
MODEL 9
REMARK VINA RESULT:      -7.2      2.218      2.821
REMARK  Name = 
REMARK  12 active torsions:
REMARK  status: ('A' for Active; 'I' for Inactive)
REMARK    1  A    between atoms: C_1  and  O_2
REMARK    2  A    between atoms: O_2  and  C_3
REMARK    3  A    between atoms: C_5  and  C_6
REMARK    4  A    between atoms: C_6  and  O_7
REMARK    5  A    between atoms: C_6  and  C_8
REMARK    6  A    between atoms: C_8  and  N_9
REMARK    7  A    between atoms: N_12  and  C_13
REMARK    8  A    between atoms: C_13  and  C_14
REMARK    9  A    between atoms: C_14  and  O_15
REMARK   10  A    between atoms: C_14  and  C_16
REMARK   11  A    between atoms: C_21  and  C_22
REMARK   12  A    between atoms: C_31  and  C_32
REMARK                            x       y       z     vdW  Elec       q    Type
REMARK                         _______ _______ _______ _____ _____    ______ ____
ROOT
ATOM      1  N   UNL     1       0.440   9.180  19.261  0.00  0.00    +0.000 NA
ATOM      2  C   UNL     1       0.225   9.438  20.700  0.00  0.00    +0.000 C 
ATOM      3  C   UNL     1       1.082  10.610  21.235  0.00  0.00    +0.000 C 
ATOM      4  N   UNL     1       0.803  11.893  20.551  0.00  0.00    +0.000 NA
ATOM      5  C   UNL     1       0.940  11.689  19.088  0.00  0.00    +0.000 C 
ATOM      6  C   UNL     1       0.193  10.446  18.525  0.00  0.00    +0.000 C 
ENDROOT
BRANCH   1   7
ATOM      7  C   UNL     1       1.803   8.674  18.962  0.00  0.00    +0.000 C 
BRANCH   7   8
ATOM      8  C   UNL     1       2.037   7.161  19.244  0.00  0.00    +0.000 C 
BRANCH   8  11
ATOM      9  C   UNL     1       3.594   4.301  17.266  0.00  0.00    +0.000 A 
ATOM     10  C   UNL     1       2.719   5.059  18.053  0.00  0.00    +0.000 A 
ATOM     11  C   UNL     1       2.880   6.450  18.218  0.00  0.00    +0.000 A 
ATOM     12  C   UNL     1       3.936   7.076  17.546  0.00  0.00    +0.000 A 
ATOM     13  C   UNL     1       4.792   6.342  16.739  0.00  0.00    +0.000 A 
ATOM     14  C   UNL     1       4.632   4.954  16.599  0.00  0.00    +0.000 A 
BRANCH   9  16
ATOM     15  C   UNL     1       2.662   2.404  18.383  0.00  0.00    +0.000 C 
ATOM     16  O   UNL     1       3.269   2.972  17.226  0.00  0.00    +0.000 OA
ENDBRANCH   9  16
BRANCH  14  17
ATOM     17  C   UNL     1       5.558   4.307  15.728  0.00  0.00    +0.000 C 
ATOM     18  N   UNL     1       6.320   3.830  14.996  0.00  0.00    +0.000 NA
ENDBRANCH  14  17
ENDBRANCH   8  11
BRANCH   8  19
ATOM     19  O   UNL     1       2.737   6.913  20.466  0.00  0.00    +0.000 OA
ATOM     20  H   UNL     1       3.555   7.435  20.444  0.00  0.00    +0.000 HD
ENDBRANCH   8  19
ENDBRANCH   7   8
ENDBRANCH   1   7
BRANCH   4  21
ATOM     21  C   UNL     1      -0.558  12.392  20.845  0.00  0.00    +0.000 C 
BRANCH  21  22
ATOM     22  C   UNL     1      -1.433  12.727  19.613  0.00  0.00    +0.000 C 
BRANCH  22  23
ATOM     23  C   UNL     1      -2.905  12.422  19.797  0.00  0.00    +0.000 A 
ATOM     24  C   UNL     1      -3.587  12.843  20.971  0.00  0.00    +0.000 A 
ATOM     25  C   UNL     1      -4.963  12.697  21.099  0.00  0.00    +0.000 A 
ATOM     26  C   UNL     1      -5.632  12.136  20.034  0.00  0.00    +0.000 A 
ATOM     27  C   UNL     1      -5.003  11.733  18.873  0.00  0.00    +0.000 A 
ATOM     28  C   UNL     1      -3.628  11.864  18.715  0.00  0.00    +0.000 A 
ATOM     29  C   UNL     1      -2.949  11.491  17.427  0.00  0.00    +0.000 C 
ATOM     30  C   UNL     1      -6.024  11.239  17.931  0.00  0.00    +0.000 C 
ATOM     31  O   UNL     1      -7.259  11.371  18.664  0.00  0.00    +0.000 OA
ATOM     32  C   UNL     1      -7.061  11.909  19.904  0.00  0.00    +0.000 C 
ATOM     33  O   UNL     1      -7.906  12.155  20.738  0.00  0.00    +0.000 OA
ENDBRANCH  22  23
BRANCH  22  34
ATOM     34  O   UNL     1      -1.423  14.113  19.265  0.00  0.00    +0.000 OA
ATOM     35  H   UNL     1      -2.299  14.329  18.906  0.00  0.00    +0.000 HD
ENDBRANCH  22  34
ENDBRANCH  21  22
ENDBRANCH   4  21
TORSDOF 10
ENDMDL
