MODEL 1
REMARK VINA RESULT:      -6.9      0.000      0.000
REMARK  Name = 
REMARK  11 active torsions:
REMARK  status: ('A' for Active; 'I' for Inactive)
REMARK    1  A    between atoms: C_1  and  O_2
REMARK    2  A    between atoms: O_2  and  C_3
REMARK    3  A    between atoms: C_6  and  S_7
REMARK    4  A    between atoms: S_7  and  N_10
REMARK    5  A    between atoms: N_10  and  C_11
REMARK    6  A    between atoms: C_11  and  C_12
REMARK    7  A    between atoms: C_12  and  C_13
REMARK    8  A    between atoms: C_13  and  C_14
REMARK    9  A    between atoms: C_13  and  C_15
REMARK   10  A    between atoms: C_17  and  O_18
REMARK   11  A    between atoms: O_18  and  C_19
REMARK                            x       y       z     vdW  Elec       q    Type
REMARK                         _______ _______ _______ _____ _____    ______ ____
ROOT
ATOM      1  C   UNL     1       2.764   4.712  18.340  0.00  0.00    +0.000 A 
ATOM      2  C   UNL     1       3.338   5.980  18.540  0.00  0.00    +0.000 A 
ATOM      3  C   UNL     1       4.642   6.248  18.121  0.00  0.00    +0.000 A 
ATOM      4  C   UNL     1       5.394   5.231  17.538  0.00  0.00    +0.000 A 
ATOM      5  C   UNL     1       4.872   3.940  17.433  0.00  0.00    +0.000 A 
ATOM      6  C   UNL     1       3.559   3.664  17.843  0.00  0.00    +0.000 A 
ENDROOT
BRANCH   4   7
ATOM      7  S   UNL     1       6.939   5.612  16.761  0.00  0.00    +0.000 S 
ATOM      8  O   UNL     1       7.359   6.911  17.240  0.00  0.00    +0.000 OA
ATOM      9  O   UNL     1       7.805   4.459  16.862  0.00  0.00    +0.000 OA
BRANCH   7  10
ATOM     10  N   UNL     1       6.536   5.820  15.136  0.00  0.00    +0.000 NA
ATOM     11  H   UNL     1       6.730   6.777  14.843  0.00  0.00    +0.000 HD
BRANCH  10  12
ATOM     12  C   UNL     1       6.901   4.733  14.222  0.00  0.00    +0.000 C 
BRANCH  12  13
ATOM     13  C   UNL     1       5.661   3.932  13.828  0.00  0.00    +0.000 C 
BRANCH  13  14
ATOM     14  C   UNL     1       5.828   3.242  12.458  0.00  0.00    +0.000 C 
ATOM     15  C   UNL     1       4.572   3.367  11.592  0.00  0.00    +0.000 C 
ATOM     16  C   UNL     1       7.029   3.819  11.706  0.00  0.00    +0.000 C 
ENDBRANCH  13  14
ENDBRANCH  12  13
ENDBRANCH  10  12
ENDBRANCH   7  10
ENDBRANCH   4   7
BRANCH   1  18
ATOM     17  C   UNL     1       1.193   4.143  20.011  0.00  0.00    +0.000 C 
ATOM     18  O   UNL     1       1.449   4.493  18.649  0.00  0.00    +0.000 OA
ENDBRANCH   1  18
BRANCH   6  19
ATOM     19  O   UNL     1       3.223   2.350  17.650  0.00  0.00    +0.000 OA
ATOM     20  C   UNL     1       3.678   1.377  18.578  0.00  0.00    +0.000 C 
ENDBRANCH   6  19
TORSDOF 7
ENDMDL
MODEL 2
REMARK VINA RESULT:      -6.6      2.285      6.606
REMARK  Name = 
REMARK  11 active torsions:
REMARK  status: ('A' for Active; 'I' for Inactive)
REMARK    1  A    between atoms: C_1  and  O_2
REMARK    2  A    between atoms: O_2  and  C_3
REMARK    3  A    between atoms: C_6  and  S_7
REMARK    4  A    between atoms: S_7  and  N_10
REMARK    5  A    between atoms: N_10  and  C_11
REMARK    6  A    between atoms: C_11  and  C_12
REMARK    7  A    between atoms: C_12  and  C_13
REMARK    8  A    between atoms: C_13  and  C_14
REMARK    9  A    between atoms: C_13  and  C_15
REMARK   10  A    between atoms: C_17  and  O_18
REMARK   11  A    between atoms: O_18  and  C_19
REMARK                            x       y       z     vdW  Elec       q    Type
REMARK                         _______ _______ _______ _____ _____    ______ ____
ROOT
ATOM      1  C   UNL     1       7.041   5.093  15.032  0.00  0.00    +0.000 A 
ATOM      2  C   UNL     1       6.351   3.873  14.931  0.00  0.00    +0.000 A 
ATOM      3  C   UNL     1       5.578   3.399  15.990  0.00  0.00    +0.000 A 
ATOM      4  C   UNL     1       5.527   4.126  17.177  0.00  0.00    +0.000 A 
ATOM      5  C   UNL     1       6.294   5.283  17.327  0.00  0.00    +0.000 A 
ATOM      6  C   UNL     1       7.068   5.772  16.263  0.00  0.00    +0.000 A 
ENDROOT
BRANCH   4   7
ATOM      7  S   UNL     1       4.351   3.692  18.427  0.00  0.00    +0.000 S 
ATOM      8  O   UNL     1       3.316   2.902  17.797  0.00  0.00    +0.000 OA
ATOM      9  O   UNL     1       5.066   3.204  19.585  0.00  0.00    +0.000 OA
BRANCH   7  10
ATOM     10  N   UNL     1       3.634   5.161  18.839  0.00  0.00    +0.000 NA
ATOM     11  H   UNL     1       4.060   5.924  18.312  0.00  0.00    +0.000 HD
BRANCH  10  12
ATOM     12  C   UNL     1       2.176   5.164  18.994  0.00  0.00    +0.000 C 
BRANCH  12  13
ATOM     13  C   UNL     1       1.798   5.099  20.473  0.00  0.00    +0.000 C 
BRANCH  13  14
ATOM     14  C   UNL     1       1.212   3.726  20.861  0.00  0.00    +0.000 C 
ATOM     15  C   UNL     1       0.681   2.961  19.646  0.00  0.00    +0.000 C 
ATOM     16  C   UNL     1       2.257   2.876  21.586  0.00  0.00    +0.000 C 
ENDBRANCH  13  14
ENDBRANCH  12  13
ENDBRANCH  10  12
ENDBRANCH   7  10
ENDBRANCH   4   7
BRANCH   1  18
ATOM     17  C   UNL     1       7.504   4.897  12.723  0.00  0.00    +0.000 C 
ATOM     18  O   UNL     1       7.703   5.606  13.949  0.00  0.00    +0.000 OA
ENDBRANCH   1  18
BRANCH   6  19
ATOM     19  O   UNL     1       7.736   6.920  16.595  0.00  0.00    +0.000 OA
ATOM     20  C   UNL     1       7.754   7.341  17.951  0.00  0.00    +0.000 C 
ENDBRANCH   6  19
TORSDOF 7
ENDMDL
MODEL 3
REMARK VINA RESULT:      -6.6      1.077      1.362
REMARK  Name = 
REMARK  11 active torsions:
REMARK  status: ('A' for Active; 'I' for Inactive)
REMARK    1  A    between atoms: C_1  and  O_2
REMARK    2  A    between atoms: O_2  and  C_3
REMARK    3  A    between atoms: C_6  and  S_7
REMARK    4  A    between atoms: S_7  and  N_10
REMARK    5  A    between atoms: N_10  and  C_11
REMARK    6  A    between atoms: C_11  and  C_12
REMARK    7  A    between atoms: C_12  and  C_13
REMARK    8  A    between atoms: C_13  and  C_14
REMARK    9  A    between atoms: C_13  and  C_15
REMARK   10  A    between atoms: C_17  and  O_18
REMARK   11  A    between atoms: O_18  and  C_19
REMARK                            x       y       z     vdW  Elec       q    Type
REMARK                         _______ _______ _______ _____ _____    ______ ____
ROOT
ATOM      1  C   UNL     1       3.011   4.885  18.602  0.00  0.00    +0.000 A 
ATOM      2  C   UNL     1       3.923   5.955  18.619  0.00  0.00    +0.000 A 
ATOM      3  C   UNL     1       5.118   5.887  17.903  0.00  0.00    +0.000 A 
ATOM      4  C   UNL     1       5.427   4.724  17.200  0.00  0.00    +0.000 A 
ATOM      5  C   UNL     1       4.580   3.616  17.266  0.00  0.00    +0.000 A 
ATOM      6  C   UNL     1       3.372   3.680  17.976  0.00  0.00    +0.000 A 
ENDROOT
BRANCH   4   7
ATOM      7  S   UNL     1       6.795   4.711  16.076  0.00  0.00    +0.000 S 
ATOM      8  O   UNL     1       6.803   5.981  15.384  0.00  0.00    +0.000 OA
ATOM      9  O   UNL     1       7.965   4.232  16.777  0.00  0.00    +0.000 OA
BRANCH   7  10
ATOM     10  N   UNL     1       6.366   3.554  14.927  0.00  0.00    +0.000 NA
ATOM     11  H   UNL     1       5.909   2.760  15.377  0.00  0.00    +0.000 HD
BRANCH  10  12
ATOM     12  C   UNL     1       5.799   4.051  13.670  0.00  0.00    +0.000 C 
BRANCH  12  13
ATOM     13  C   UNL     1       6.659   3.606  12.487  0.00  0.00    +0.000 C 
BRANCH  13  14
ATOM     14  C   UNL     1       5.823   2.909  11.394  0.00  0.00    +0.000 C 
ATOM     15  C   UNL     1       6.101   1.405  11.326  0.00  0.00    +0.000 C 
ATOM     16  C   UNL     1       4.329   3.146  11.622  0.00  0.00    +0.000 C 
ENDBRANCH  13  14
ENDBRANCH  12  13
ENDBRANCH  10  12
ENDBRANCH   7  10
ENDBRANCH   4   7
BRANCH   1  18
ATOM     17  C   UNL     1       1.771   4.677  20.604  0.00  0.00    +0.000 C 
ATOM     18  O   UNL     1       1.791   5.007  19.213  0.00  0.00    +0.000 OA
ENDBRANCH   1  18
BRANCH   6  19
ATOM     19  O   UNL     1       2.673   2.503  17.913  0.00  0.00    +0.000 OA
ATOM     20  C   UNL     1       3.143   1.381  18.644  0.00  0.00    +0.000 C 
ENDBRANCH   6  19
TORSDOF 7
ENDMDL
MODEL 4
REMARK VINA RESULT:      -6.5      1.312      2.335
REMARK  Name = 
REMARK  11 active torsions:
REMARK  status: ('A' for Active; 'I' for Inactive)
REMARK    1  A    between atoms: C_1  and  O_2
REMARK    2  A    between atoms: O_2  and  C_3
REMARK    3  A    between atoms: C_6  and  S_7
REMARK    4  A    between atoms: S_7  and  N_10
REMARK    5  A    between atoms: N_10  and  C_11
REMARK    6  A    between atoms: C_11  and  C_12
REMARK    7  A    between atoms: C_12  and  C_13
REMARK    8  A    between atoms: C_13  and  C_14
REMARK    9  A    between atoms: C_13  and  C_15
REMARK   10  A    between atoms: C_17  and  O_18
REMARK   11  A    between atoms: O_18  and  C_19
REMARK                            x       y       z     vdW  Elec       q    Type
REMARK                         _______ _______ _______ _____ _____    ______ ____
ROOT
ATOM      1  C   UNL     1       3.297   4.808  19.169  0.00  0.00    +0.000 A 
ATOM      2  C   UNL     1       4.313   3.844  19.061  0.00  0.00    +0.000 A 
ATOM      3  C   UNL     1       5.375   4.021  18.175  0.00  0.00    +0.000 A 
ATOM      4  C   UNL     1       5.401   5.149  17.357  0.00  0.00    +0.000 A 
ATOM      5  C   UNL     1       4.342   6.058  17.378  0.00  0.00    +0.000 A 
ATOM      6  C   UNL     1       3.274   5.892  18.274  0.00  0.00    +0.000 A 
ENDROOT
BRANCH   4   7
ATOM      7  S   UNL     1       6.859   5.530  16.427  0.00  0.00    +0.000 S 
ATOM      8  O   UNL     1       7.200   6.909  16.697  0.00  0.00    +0.000 OA
ATOM      9  O   UNL     1       7.821   4.468  16.618  0.00  0.00    +0.000 OA
BRANCH   7  10
ATOM     10  N   UNL     1       6.341   5.482  14.822  0.00  0.00    +0.000 NA
ATOM     11  H   UNL     1       6.978   6.013  14.228  0.00  0.00    +0.000 HD
BRANCH  10  12
ATOM     12  C   UNL     1       5.854   4.192  14.325  0.00  0.00    +0.000 C 
BRANCH  12  13
ATOM     13  C   UNL     1       6.459   3.887  12.955  0.00  0.00    +0.000 C 
BRANCH  13  14
ATOM     14  C   UNL     1       5.697   2.764  12.222  0.00  0.00    +0.000 C 
ATOM     15  C   UNL     1       4.475   3.295  11.466  0.00  0.00    +0.000 C 
ATOM     16  C   UNL     1       6.621   2.028  11.250  0.00  0.00    +0.000 C 
ENDBRANCH  13  14
ENDBRANCH  12  13
ENDBRANCH  10  12
ENDBRANCH   7  10
ENDBRANCH   4   7
BRANCH   1  18
ATOM     17  C   UNL     1       1.898   3.341  20.385  0.00  0.00    +0.000 C 
ATOM     18  O   UNL     1       2.321   4.681  20.122  0.00  0.00    +0.000 OA
ENDBRANCH   1  18
BRANCH   6  19
ATOM     19  O   UNL     1       2.342   6.889  18.156  0.00  0.00    +0.000 OA
ATOM     20  C   UNL     1       2.771   8.201  17.827  0.00  0.00    +0.000 C 
ENDBRANCH   6  19
TORSDOF 7
ENDMDL
MODEL 5
REMARK VINA RESULT:      -6.4      2.349      6.647
REMARK  Name = 
REMARK  11 active torsions:
REMARK  status: ('A' for Active; 'I' for Inactive)
REMARK    1  A    between atoms: C_1  and  O_2
REMARK    2  A    between atoms: O_2  and  C_3
REMARK    3  A    between atoms: C_6  and  S_7
REMARK    4  A    between atoms: S_7  and  N_10
REMARK    5  A    between atoms: N_10  and  C_11
REMARK    6  A    between atoms: C_11  and  C_12
REMARK    7  A    between atoms: C_12  and  C_13
REMARK    8  A    between atoms: C_13  and  C_14
REMARK    9  A    between atoms: C_13  and  C_15
REMARK   10  A    between atoms: C_17  and  O_18
REMARK   11  A    between atoms: O_18  and  C_19
REMARK                            x       y       z     vdW  Elec       q    Type
REMARK                         _______ _______ _______ _____ _____    ______ ____
ROOT
ATOM      1  C   UNL     1       7.132   5.137  14.928  0.00  0.00    +0.000 A 
ATOM      2  C   UNL     1       6.314   4.026  14.661  0.00  0.00    +0.000 A 
ATOM      3  C   UNL     1       5.267   3.687  15.518  0.00  0.00    +0.000 A 
ATOM      4  C   UNL     1       5.061   4.436  16.674  0.00  0.00    +0.000 A 
ATOM      5  C   UNL     1       5.934   5.475  17.005  0.00  0.00    +0.000 A 
ATOM      6  C   UNL     1       6.984   5.828  16.143  0.00  0.00    +0.000 A 
ENDROOT
BRANCH   4   7
ATOM      7  S   UNL     1       3.590   4.197  17.630  0.00  0.00    +0.000 S 
ATOM      8  O   UNL     1       3.072   5.505  17.967  0.00  0.00    +0.000 OA
ATOM      9  O   UNL     1       2.765   3.211  16.969  0.00  0.00    +0.000 OA
BRANCH   7  10
ATOM     10  N   UNL     1       4.148   3.527  19.073  0.00  0.00    +0.000 NA
ATOM     11  H   UNL     1       4.448   4.263  19.713  0.00  0.00    +0.000 HD
BRANCH  10  12
ATOM     12  C   UNL     1       3.374   2.411  19.625  0.00  0.00    +0.000 C 
BRANCH  12  13
ATOM     13  C   UNL     1       2.755   2.805  20.966  0.00  0.00    +0.000 C 
BRANCH  13  14
ATOM     14  C   UNL     1       1.321   3.351  20.804  0.00  0.00    +0.000 C 
ATOM     15  C   UNL     1       1.294   4.878  20.697  0.00  0.00    +0.000 C 
ATOM     16  C   UNL     1       0.644   2.739  19.577  0.00  0.00    +0.000 C 
ENDBRANCH  13  14
ENDBRANCH  12  13
ENDBRANCH  10  12
ENDBRANCH   7  10
ENDBRANCH   4   7
BRANCH   1  18
ATOM     17  C   UNL     1       7.810   5.180  12.664  0.00  0.00    +0.000 C 
ATOM     18  O   UNL     1       8.082   5.530  14.023  0.00  0.00    +0.000 OA
ENDBRANCH   1  18
BRANCH   6  19
ATOM     19  O   UNL     1       7.721   6.876  16.630  0.00  0.00    +0.000 OA
ATOM     20  C   UNL     1       7.751   7.108  18.030  0.00  0.00    +0.000 C 
ENDBRANCH   6  19
TORSDOF 7
ENDMDL
MODEL 6
REMARK VINA RESULT:      -6.4      2.450      6.429
REMARK  Name = 
REMARK  11 active torsions:
REMARK  status: ('A' for Active; 'I' for Inactive)
REMARK    1  A    between atoms: C_1  and  O_2
REMARK    2  A    between atoms: O_2  and  C_3
REMARK    3  A    between atoms: C_6  and  S_7
REMARK    4  A    between atoms: S_7  and  N_10
REMARK    5  A    between atoms: N_10  and  C_11
REMARK    6  A    between atoms: C_11  and  C_12
REMARK    7  A    between atoms: C_12  and  C_13
REMARK    8  A    between atoms: C_13  and  C_14
REMARK    9  A    between atoms: C_13  and  C_15
REMARK   10  A    between atoms: C_17  and  O_18
REMARK   11  A    between atoms: O_18  and  C_19
REMARK                            x       y       z     vdW  Elec       q    Type
REMARK                         _______ _______ _______ _____ _____    ______ ____
ROOT
ATOM      1  C   UNL     1       6.592   5.312  15.841  0.00  0.00    +0.000 A 
ATOM      2  C   UNL     1       5.579   4.344  15.953  0.00  0.00    +0.000 A 
ATOM      3  C   UNL     1       4.475   4.558  16.779  0.00  0.00    +0.000 A 
ATOM      4  C   UNL     1       4.402   5.727  17.532  0.00  0.00    +0.000 A 
ATOM      5  C   UNL     1       5.454   6.646  17.510  0.00  0.00    +0.000 A 
ATOM      6  C   UNL     1       6.564   6.442  16.676  0.00  0.00    +0.000 A 
ENDROOT
BRANCH   4   7
ATOM      7  S   UNL     1       2.899   6.143  18.371  0.00  0.00    +0.000 S 
ATOM      8  O   UNL     1       2.802   7.586  18.402  0.00  0.00    +0.000 OA
ATOM      9  O   UNL     1       1.830   5.331  17.835  0.00  0.00    +0.000 OA
BRANCH   7  10
ATOM     10  N   UNL     1       3.175   5.657  19.962  0.00  0.00    +0.000 NA
ATOM     11  H   UNL     1       3.772   6.332  20.440  0.00  0.00    +0.000 HD
BRANCH  10  12
ATOM     12  C   UNL     1       2.026   5.116  20.695  0.00  0.00    +0.000 C 
BRANCH  12  13
ATOM     13  C   UNL     1       2.387   3.775  21.334  0.00  0.00    +0.000 C 
BRANCH  13  14
ATOM     14  C   UNL     1       2.002   2.583  20.434  0.00  0.00    +0.000 C 
ATOM     15  C   UNL     1       0.699   2.833  19.672  0.00  0.00    +0.000 C 
ATOM     16  C   UNL     1       3.124   2.269  19.443  0.00  0.00    +0.000 C 
ENDBRANCH  13  14
ENDBRANCH  12  13
ENDBRANCH  10  12
ENDBRANCH   7  10
ENDBRANCH   4   7
BRANCH   1  18
ATOM     17  C   UNL     1       7.205   4.792  13.618  0.00  0.00    +0.000 C 
ATOM     18  O   UNL     1       7.612   5.144  14.943  0.00  0.00    +0.000 OA
ENDBRANCH   1  18
BRANCH   6  19
ATOM     19  O   UNL     1       7.481   7.454  16.782  0.00  0.00    +0.000 OA
ATOM     20  C   UNL     1       7.972   7.809  18.066  0.00  0.00    +0.000 C 
ENDBRANCH   6  19
TORSDOF 7
ENDMDL
MODEL 7
REMARK VINA RESULT:      -6.4      1.194      2.510
REMARK  Name = 
REMARK  11 active torsions:
REMARK  status: ('A' for Active; 'I' for Inactive)
REMARK    1  A    between atoms: C_1  and  O_2
REMARK    2  A    between atoms: O_2  and  C_3
REMARK    3  A    between atoms: C_6  and  S_7
REMARK    4  A    between atoms: S_7  and  N_10
REMARK    5  A    between atoms: N_10  and  C_11
REMARK    6  A    between atoms: C_11  and  C_12
REMARK    7  A    between atoms: C_12  and  C_13
REMARK    8  A    between atoms: C_13  and  C_14
REMARK    9  A    between atoms: C_13  and  C_15
REMARK   10  A    between atoms: C_17  and  O_18
REMARK   11  A    between atoms: O_18  and  C_19
REMARK                            x       y       z     vdW  Elec       q    Type
REMARK                         _______ _______ _______ _____ _____    ______ ____
ROOT
ATOM      1  C   UNL     1       2.704   4.750  18.365  0.00  0.00    +0.000 A 
ATOM      2  C   UNL     1       3.527   3.731  17.856  0.00  0.00    +0.000 A 
ATOM      3  C   UNL     1       4.824   4.009  17.423  0.00  0.00    +0.000 A 
ATOM      4  C   UNL     1       5.288   5.322  17.459  0.00  0.00    +0.000 A 
ATOM      5  C   UNL     1       4.442   6.357  17.861  0.00  0.00    +0.000 A 
ATOM      6  C   UNL     1       3.140   6.085  18.306  0.00  0.00    +0.000 A 
ENDROOT
BRANCH   4   7
ATOM      7  S   UNL     1       7.003   5.658  17.173  0.00  0.00    +0.000 S 
ATOM      8  O   UNL     1       7.095   6.966  16.563  0.00  0.00    +0.000 OA
ATOM      9  O   UNL     1       7.744   5.337  18.373  0.00  0.00    +0.000 OA
BRANCH   7  10
ATOM     10  N   UNL     1       7.441   4.552  15.978  0.00  0.00    +0.000 NA
ATOM     11  H   UNL     1       7.286   3.598  16.305  0.00  0.00    +0.000 HD
BRANCH  10  12
ATOM     12  C   UNL     1       7.054   4.879  14.603  0.00  0.00    +0.000 C 
BRANCH  12  13
ATOM     13  C   UNL     1       6.216   3.750  14.004  0.00  0.00    +0.000 C 
BRANCH  13  14
ATOM     14  C   UNL     1       6.134   3.843  12.466  0.00  0.00    +0.000 C 
ATOM     15  C   UNL     1       7.346   4.560  11.866  0.00  0.00    +0.000 C 
ATOM     16  C   UNL     1       6.003   2.451  11.846  0.00  0.00    +0.000 C 
ENDBRANCH  13  14
ENDBRANCH  12  13
ENDBRANCH  10  12
ENDBRANCH   7  10
ENDBRANCH   4   7
BRANCH   1  18
ATOM     17  C   UNL     1       1.473   4.144  20.290  0.00  0.00    +0.000 C 
ATOM     18  O   UNL     1       1.477   4.448  18.893  0.00  0.00    +0.000 OA
ENDBRANCH   1  18
BRANCH   6  19
ATOM     19  O   UNL     1       2.470   7.223  18.671  0.00  0.00    +0.000 OA
ATOM     20  C   UNL     1       2.461   8.332  17.786  0.00  0.00    +0.000 C 
ENDBRANCH   6  19
TORSDOF 7
ENDMDL
MODEL 8
REMARK VINA RESULT:      -6.4      2.628      6.057
REMARK  Name = 
REMARK  11 active torsions:
REMARK  status: ('A' for Active; 'I' for Inactive)
REMARK    1  A    between atoms: C_1  and  O_2
REMARK    2  A    between atoms: O_2  and  C_3
REMARK    3  A    between atoms: C_6  and  S_7
REMARK    4  A    between atoms: S_7  and  N_10
REMARK    5  A    between atoms: N_10  and  C_11
REMARK    6  A    between atoms: C_11  and  C_12
REMARK    7  A    between atoms: C_12  and  C_13
REMARK    8  A    between atoms: C_13  and  C_14
REMARK    9  A    between atoms: C_13  and  C_15
REMARK   10  A    between atoms: C_17  and  O_18
REMARK   11  A    between atoms: O_18  and  C_19
REMARK                            x       y       z     vdW  Elec       q    Type
REMARK                         _______ _______ _______ _____ _____    ______ ____
ROOT
ATOM      1  C   UNL     1       6.455   5.725  17.213  0.00  0.00    +0.000 A 
ATOM      2  C   UNL     1       6.352   5.612  18.610  0.00  0.00    +0.000 A 
ATOM      3  C   UNL     1       5.504   4.669  19.190  0.00  0.00    +0.000 A 
ATOM      4  C   UNL     1       4.719   3.861  18.371  0.00  0.00    +0.000 A 
ATOM      5  C   UNL     1       4.733   4.039  16.986  0.00  0.00    +0.000 A 
ATOM      6  C   UNL     1       5.590   4.979  16.394  0.00  0.00    +0.000 A 
ENDROOT
BRANCH   4   7
ATOM      7  S   UNL     1       3.844   2.487  19.065  0.00  0.00    +0.000 S 
ATOM      8  O   UNL     1       3.750   1.469  18.042  0.00  0.00    +0.000 OA
ATOM      9  O   UNL     1       4.402   2.193  20.366  0.00  0.00    +0.000 OA
BRANCH   7  10
ATOM     10  N   UNL     1       2.279   3.073  19.290  0.00  0.00    +0.000 NA
ATOM     11  H   UNL     1       1.919   2.782  20.199  0.00  0.00    +0.000 HD
BRANCH  10  12
ATOM     12  C   UNL     1       2.021   4.450  18.857  0.00  0.00    +0.000 C 
BRANCH  12  13
ATOM     13  C   UNL     1       1.949   5.382  20.067  0.00  0.00    +0.000 C 
BRANCH  13  14
ATOM     14  C   UNL     1       2.532   6.776  19.759  0.00  0.00    +0.000 C 
ATOM     15  C   UNL     1       2.681   7.020  18.254  0.00  0.00    +0.000 C 
ATOM     16  C   UNL     1       1.663   7.874  20.373  0.00  0.00    +0.000 C 
ENDBRANCH  13  14
ENDBRANCH  12  13
ENDBRANCH  10  12
ENDBRANCH   7  10
ENDBRANCH   4   7
BRANCH   1  18
ATOM     17  C   UNL     1       7.679   7.736  17.426  0.00  0.00    +0.000 C 
ATOM     18  O   UNL     1       7.374   6.572  16.654  0.00  0.00    +0.000 OA
ENDBRANCH   1  18
BRANCH   6  19
ATOM     19  O   UNL     1       5.472   4.998  15.029  0.00  0.00    +0.000 OA
ATOM     20  C   UNL     1       6.354   4.207  14.248  0.00  0.00    +0.000 C 
ENDBRANCH   6  19
TORSDOF 7
ENDMDL
MODEL 9
REMARK VINA RESULT:      -6.3      1.050      1.281
REMARK  Name = 
REMARK  11 active torsions:
REMARK  status: ('A' for Active; 'I' for Inactive)
REMARK    1  A    between atoms: C_1  and  O_2
REMARK    2  A    between atoms: O_2  and  C_3
REMARK    3  A    between atoms: C_6  and  S_7
REMARK    4  A    between atoms: S_7  and  N_10
REMARK    5  A    between atoms: N_10  and  C_11
REMARK    6  A    between atoms: C_11  and  C_12
REMARK    7  A    between atoms: C_12  and  C_13
REMARK    8  A    between atoms: C_13  and  C_14
REMARK    9  A    between atoms: C_13  and  C_15
REMARK   10  A    between atoms: C_17  and  O_18
REMARK   11  A    between atoms: O_18  and  C_19
REMARK                            x       y       z     vdW  Elec       q    Type
REMARK                         _______ _______ _______ _____ _____    ______ ____
ROOT
ATOM      1  C   UNL     1       3.243   4.643  18.983  0.00  0.00    +0.000 A 
ATOM      2  C   UNL     1       3.284   5.792  18.174  0.00  0.00    +0.000 A 
ATOM      3  C   UNL     1       4.453   6.153  17.505  0.00  0.00    +0.000 A 
ATOM      4  C   UNL     1       5.604   5.388  17.679  0.00  0.00    +0.000 A 
ATOM      5  C   UNL     1       5.604   4.308  18.564  0.00  0.00    +0.000 A 
ATOM      6  C   UNL     1       4.430   3.932  19.234  0.00  0.00    +0.000 A 
ENDROOT
BRANCH   4   7
ATOM      7  S   UNL     1       7.012   5.665  16.642  0.00  0.00    +0.000 S 
ATOM      8  O   UNL     1       7.406   7.047  16.802  0.00  0.00    +0.000 OA
ATOM      9  O   UNL     1       7.955   4.588  16.845  0.00  0.00    +0.000 OA
BRANCH   7  10
ATOM     10  N   UNL     1       6.397   5.531  15.077  0.00  0.00    +0.000 NA
ATOM     11  H   UNL     1       6.489   6.418  14.583  0.00  0.00    +0.000 HD
BRANCH  10  12
ATOM     12  C   UNL     1       6.716   4.301  14.346  0.00  0.00    +0.000 C 
BRANCH  12  13
ATOM     13  C   UNL     1       5.481   3.785  13.609  0.00  0.00    +0.000 C 
BRANCH  13  14
ATOM     14  C   UNL     1       5.739   3.610  12.099  0.00  0.00    +0.000 C 
ATOM     15  C   UNL     1       7.154   4.037  11.702  0.00  0.00    +0.000 C 
ATOM     16  C   UNL     1       5.503   2.159  11.674  0.00  0.00    +0.000 C 
ENDBRANCH  13  14
ENDBRANCH  12  13
ENDBRANCH  10  12
ENDBRANCH   7  10
ENDBRANCH   4   7
BRANCH   1  18
ATOM     17  C   UNL     1       1.718   4.872  20.774  0.00  0.00    +0.000 C 
ATOM     18  O   UNL     1       2.063   4.233  19.542  0.00  0.00    +0.000 OA
ENDBRANCH   1  18
BRANCH   6  19
ATOM     19  O   UNL     1       4.623   2.846  20.046  0.00  0.00    +0.000 OA
ATOM     20  C   UNL     1       4.153   1.575  19.623  0.00  0.00    +0.000 C 
ENDBRANCH   6  19
TORSDOF 7
ENDMDL
