MODEL 1
REMARK VINA RESULT:      -9.4      0.000      0.000
REMARK  Name = 
REMARK  5 active torsions:
REMARK  status: ('A' for Active; 'I' for Inactive)
REMARK    1  A    between atoms: C_2  and  C_3
REMARK    2  A    between atoms: C_7  and  O_8
REMARK    3  A    between atoms: O_8  and  C_9
REMARK    4  A    between atoms: C_13  and  C_14
REMARK    5  A    between atoms: C_14  and  N_15
REMARK                            x       y       z     vdW  Elec       q    Type
REMARK                         _______ _______ _______ _____ _____    ______ ____
ROOT
ATOM      1  C   UNL     1       1.112   8.211  21.001  0.00  0.00    +0.000 C 
ENDROOT
BRANCH   1   2
ATOM      2  N   UNL     1       1.529   8.309  19.585  0.00  0.00    +0.000 N 
ATOM      3  C   UNL     1       2.462   7.304  19.220  0.00  0.00    +0.000 A 
ATOM      4  C   UNL     1       3.186   7.362  18.005  0.00  0.00    +0.000 A 
ATOM      5  C   UNL     1       4.219   6.399  17.795  0.00  0.00    +0.000 A 
ATOM      6  C   UNL     1       4.423   5.501  18.840  0.00  0.00    +0.000 A 
ATOM      7  C   UNL     1       3.496   5.304  19.835  0.00  0.00    +0.000 A 
ATOM      8  N   UNL     1       2.563   6.243  20.041  0.00  0.00    +0.000 NA
ATOM      9  N   UNL     1       5.632   4.901  18.644  0.00  0.00    +0.000 N 
ATOM     10  C   UNL     1       5.971   4.975  17.324  0.00  0.00    +0.000 A 
ATOM     11  C   UNL     1       6.940   4.233  16.642  0.00  0.00    +0.000 A 
ATOM     12  C   UNL     1       6.993   4.369  15.263  0.00  0.00    +0.000 A 
ATOM     13  C   UNL     1       6.145   5.272  14.617  0.00  0.00    +0.000 A 
ATOM     14  C   UNL     1       5.237   6.082  15.336  0.00  0.00    +0.000 A 
ATOM     15  C   UNL     1       5.110   5.915  16.738  0.00  0.00    +0.000 A 
ATOM     16  H   UNL     1       0.728   8.221  18.967  0.00  0.00    +0.000 HD
ATOM     17  H   UNL     1       6.119   4.347  19.333  0.00  0.00    +0.000 HD
ENDBRANCH   1   2
BRANCH   1  22
ATOM     18  C   UNL     1      -1.008  11.405  20.948  0.00  0.00    +0.000 A 
ATOM     19  C   UNL     1      -1.425  11.496  22.277  0.00  0.00    +0.000 A 
ATOM     20  C   UNL     1      -1.008  10.541  23.203  0.00  0.00    +0.000 A 
ATOM     21  C   UNL     1      -0.171   9.491  22.803  0.00  0.00    +0.000 A 
ATOM     22  C   UNL     1       0.288   9.399  21.479  0.00  0.00    +0.000 A 
ATOM     23  C   UNL     1      -0.120  10.389  20.566  0.00  0.00    +0.000 A 
BRANCH  18  24
ATOM     24  O   UNL     1      -1.496  12.377  20.097  0.00  0.00    +0.000 OA
BRANCH  24  29
ATOM     25  C   UNL     1      -3.274  11.235  17.047  0.00  0.00    +0.000 A 
ATOM     26  C   UNL     1      -4.592  11.500  17.447  0.00  0.00    +0.000 A 
ATOM     27  C   UNL     1      -4.855  11.998  18.723  0.00  0.00    +0.000 A 
ATOM     28  C   UNL     1      -3.800  12.263  19.601  0.00  0.00    +0.000 A 
ATOM     29  C   UNL     1      -2.481  12.045  19.195  0.00  0.00    +0.000 A 
ATOM     30  C   UNL     1      -2.222  11.469  17.947  0.00  0.00    +0.000 A 
BRANCH  25  32
ATOM     31  N   UNL     1      -2.775  10.361  14.664  0.00  0.00    +0.000 NA
ATOM     32  C   UNL     1      -3.008  10.735  15.740  0.00  0.00    +0.000 C 
ENDBRANCH  25  32
ENDBRANCH  24  29
ENDBRANCH  18  24
ENDBRANCH   1  22
TORSDOF 5
ENDMDL
MODEL 2
REMARK VINA RESULT:      -9.0      1.103      1.555
REMARK  Name = 
REMARK  5 active torsions:
REMARK  status: ('A' for Active; 'I' for Inactive)
REMARK    1  A    between atoms: C_2  and  C_3
REMARK    2  A    between atoms: C_7  and  O_8
REMARK    3  A    between atoms: O_8  and  C_9
REMARK    4  A    between atoms: C_13  and  C_14
REMARK    5  A    between atoms: C_14  and  N_15
REMARK                            x       y       z     vdW  Elec       q    Type
REMARK                         _______ _______ _______ _____ _____    ______ ____
ROOT
ATOM      1  C   UNL     1       1.129   8.346  21.022  0.00  0.00    +0.000 C 
ENDROOT
BRANCH   1   2
ATOM      2  N   UNL     1       1.572   8.450  19.614  0.00  0.00    +0.000 N 
ATOM      3  C   UNL     1       2.449   7.399  19.239  0.00  0.00    +0.000 A 
ATOM      4  C   UNL     1       3.192   7.440  18.035  0.00  0.00    +0.000 A 
ATOM      5  C   UNL     1       4.170   6.421  17.819  0.00  0.00    +0.000 A 
ATOM      6  C   UNL     1       4.305   5.490  18.846  0.00  0.00    +0.000 A 
ATOM      7  C   UNL     1       3.353   5.328  19.823  0.00  0.00    +0.000 A 
ATOM      8  N   UNL     1       2.475   6.316  20.037  0.00  0.00    +0.000 NA
ATOM      9  N   UNL     1       5.479   4.824  18.652  0.00  0.00    +0.000 N 
ATOM     10  C   UNL     1       5.841   4.906  17.340  0.00  0.00    +0.000 A 
ATOM     11  C   UNL     1       6.774   4.122  16.654  0.00  0.00    +0.000 A 
ATOM     12  C   UNL     1       6.855   4.283  15.279  0.00  0.00    +0.000 A 
ATOM     13  C   UNL     1       6.072   5.249  14.642  0.00  0.00    +0.000 A 
ATOM     14  C   UNL     1       5.203   6.096  15.367  0.00  0.00    +0.000 A 
ATOM     15  C   UNL     1       5.046   5.908  16.763  0.00  0.00    +0.000 A 
ATOM     16  H   UNL     1       0.777   8.422  18.983  0.00  0.00    +0.000 HD
ATOM     17  H   UNL     1       5.922   4.227  19.335  0.00  0.00    +0.000 HD
ENDBRANCH   1   2
BRANCH   1  22
ATOM     18  C   UNL     1      -1.052  11.498  20.937  0.00  0.00    +0.000 A 
ATOM     19  C   UNL     1      -1.436  11.620  22.274  0.00  0.00    +0.000 A 
ATOM     20  C   UNL     1      -0.977  10.699  23.215  0.00  0.00    +0.000 A 
ATOM     21  C   UNL     1      -0.130   9.653  22.821  0.00  0.00    +0.000 A 
ATOM     22  C   UNL     1       0.296   9.532  21.489  0.00  0.00    +0.000 A 
ATOM     23  C   UNL     1      -0.155  10.488  20.560  0.00  0.00    +0.000 A 
BRANCH  18  24
ATOM     24  O   UNL     1      -1.580  12.437  20.073  0.00  0.00    +0.000 OA
BRANCH  24  29
ATOM     25  C   UNL     1      -4.518  11.439  18.039  0.00  0.00    +0.000 A 
ATOM     26  C   UNL     1      -3.855  11.069  16.859  0.00  0.00    +0.000 A 
ATOM     27  C   UNL     1      -2.472  11.206  16.756  0.00  0.00    +0.000 A 
ATOM     28  C   UNL     1      -1.734  11.689  17.841  0.00  0.00    +0.000 A 
ATOM     29  C   UNL     1      -2.380  12.017  19.035  0.00  0.00    +0.000 A 
ATOM     30  C   UNL     1      -3.776  11.956  19.112  0.00  0.00    +0.000 A 
BRANCH  25  32
ATOM     31  N   UNL     1      -7.078  11.131  18.252  0.00  0.00    +0.000 NA
ATOM     32  C   UNL     1      -5.931  11.287  18.146  0.00  0.00    +0.000 C 
ENDBRANCH  25  32
ENDBRANCH  24  29
ENDBRANCH  18  24
ENDBRANCH   1  22
TORSDOF 5
ENDMDL
MODEL 3
REMARK VINA RESULT:      -8.8      3.655     10.142
REMARK  Name = 
REMARK  5 active torsions:
REMARK  status: ('A' for Active; 'I' for Inactive)
REMARK    1  A    between atoms: C_2  and  C_3
REMARK    2  A    between atoms: C_7  and  O_8
REMARK    3  A    between atoms: O_8  and  C_9
REMARK    4  A    between atoms: C_13  and  C_14
REMARK    5  A    between atoms: C_14  and  N_15
REMARK                            x       y       z     vdW  Elec       q    Type
REMARK                         _______ _______ _______ _____ _____    ______ ____
ROOT
ATOM      1  C   UNL     1       1.869   7.417  20.339  0.00  0.00    +0.000 C 
ENDROOT
BRANCH   1   2
ATOM      2  N   UNL     1       0.712   7.691  21.220  0.00  0.00    +0.000 N 
ATOM      3  C   UNL     1       0.360   9.066  21.247  0.00  0.00    +0.000 A 
ATOM      4  C   UNL     1      -0.537   9.589  22.208  0.00  0.00    +0.000 A 
ATOM      5  C   UNL     1      -0.706  11.007  22.263  0.00  0.00    +0.000 A 
ATOM      6  C   UNL     1       0.063  11.739  21.362  0.00  0.00    +0.000 A 
ATOM      7  C   UNL     1       0.662  11.163  20.267  0.00  0.00    +0.000 A 
ATOM      8  N   UNL     1       0.849   9.837  20.258  0.00  0.00    +0.000 NA
ATOM      9  N   UNL     1       0.056  13.040  21.768  0.00  0.00    +0.000 N 
ATOM     10  C   UNL     1      -1.040  13.270  22.547  0.00  0.00    +0.000 A 
ATOM     11  C   UNL     1      -1.600  14.502  22.900  0.00  0.00    +0.000 A 
ATOM     12  C   UNL     1      -2.815  14.481  23.569  0.00  0.00    +0.000 A 
ATOM     13  C   UNL     1      -3.397  13.262  23.923  0.00  0.00    +0.000 A 
ATOM     14  C   UNL     1      -2.767  12.028  23.638  0.00  0.00    +0.000 A 
ATOM     15  C   UNL     1      -1.561  12.015  22.894  0.00  0.00    +0.000 A 
ATOM     16  H   UNL     1      -0.105   7.174  20.912  0.00  0.00    +0.000 HD
ATOM     17  H   UNL     1       0.672  13.758  21.416  0.00  0.00    +0.000 HD
ENDBRANCH   1   2
BRANCH   1  22
ATOM     18  C   UNL     1       3.792   4.162  19.699  0.00  0.00    +0.000 A 
ATOM     19  C   UNL     1       2.854   3.196  20.067  0.00  0.00    +0.000 A 
ATOM     20  C   UNL     1       1.588   3.587  20.503  0.00  0.00    +0.000 A 
ATOM     21  C   UNL     1       1.256   4.947  20.571  0.00  0.00    +0.000 A 
ATOM     22  C   UNL     1       2.173   5.934  20.174  0.00  0.00    +0.000 A 
ATOM     23  C   UNL     1       3.434   5.519  19.710  0.00  0.00    +0.000 A 
BRANCH  18  24
ATOM     24  O   UNL     1       5.027   3.683  19.311  0.00  0.00    +0.000 OA
BRANCH  24  29
ATOM     25  C   UNL     1       6.209   4.542  15.900  0.00  0.00    +0.000 A 
ATOM     26  C   UNL     1       7.137   5.541  16.233  0.00  0.00    +0.000 A 
ATOM     27  C   UNL     1       7.306   5.932  17.561  0.00  0.00    +0.000 A 
ATOM     28  C   UNL     1       6.570   5.308  18.572  0.00  0.00    +0.000 A 
ATOM     29  C   UNL     1       5.677   4.281  18.256  0.00  0.00    +0.000 A 
ATOM     30  C   UNL     1       5.447   3.946  16.917  0.00  0.00    +0.000 A 
BRANCH  25  32
ATOM     31  N   UNL     1       5.949   3.816  13.431  0.00  0.00    +0.000 NA
ATOM     32  C   UNL     1       6.045   4.138  14.544  0.00  0.00    +0.000 C 
ENDBRANCH  25  32
ENDBRANCH  24  29
ENDBRANCH  18  24
ENDBRANCH   1  22
TORSDOF 5
ENDMDL
MODEL 4
REMARK VINA RESULT:      -8.8      3.523     10.145
REMARK  Name = 
REMARK  5 active torsions:
REMARK  status: ('A' for Active; 'I' for Inactive)
REMARK    1  A    between atoms: C_2  and  C_3
REMARK    2  A    between atoms: C_7  and  O_8
REMARK    3  A    between atoms: O_8  and  C_9
REMARK    4  A    between atoms: C_13  and  C_14
REMARK    5  A    between atoms: C_14  and  N_15
REMARK                            x       y       z     vdW  Elec       q    Type
REMARK                         _______ _______ _______ _____ _____    ______ ____
ROOT
ATOM      1  C   UNL     1       1.990   7.013  20.406  0.00  0.00    +0.000 C 
ENDROOT
BRANCH   1   2
ATOM      2  N   UNL     1       0.852   7.362  21.285  0.00  0.00    +0.000 N 
ATOM      3  C   UNL     1       0.523   8.742  21.230  0.00  0.00    +0.000 A 
ATOM      4  C   UNL     1      -0.351   9.340  22.170  0.00  0.00    +0.000 A 
ATOM      5  C   UNL     1      -0.495  10.761  22.138  0.00  0.00    +0.000 A 
ATOM      6  C   UNL     1       0.272  11.421  21.181  0.00  0.00    +0.000 A 
ATOM      7  C   UNL     1       0.844  10.768  20.116  0.00  0.00    +0.000 A 
ATOM      8  N   UNL     1       1.009   9.441  20.188  0.00  0.00    +0.000 NA
ATOM      9  N   UNL     1       0.292  12.745  21.505  0.00  0.00    +0.000 N 
ATOM     10  C   UNL     1      -0.788  13.044  22.283  0.00  0.00    +0.000 A 
ATOM     11  C   UNL     1      -1.322  14.304  22.566  0.00  0.00    +0.000 A 
ATOM     12  C   UNL     1      -2.527  14.347  23.252  0.00  0.00    +0.000 A 
ATOM     13  C   UNL     1      -3.123  13.163  23.690  0.00  0.00    +0.000 A 
ATOM     14  C   UNL     1      -2.518  11.903  23.475  0.00  0.00    +0.000 A 
ATOM     15  C   UNL     1      -1.323  11.821  22.716  0.00  0.00    +0.000 A 
ATOM     16  H   UNL     1       0.021   6.841  21.022  0.00  0.00    +0.000 HD
ATOM     17  H   UNL     1       0.915  13.429  21.099  0.00  0.00    +0.000 HD
ENDBRANCH   1   2
BRANCH   1  22
ATOM     18  C   UNL     1       2.593   4.033  18.071  0.00  0.00    +0.000 A 
ATOM     19  C   UNL     1       1.875   3.019  18.706  0.00  0.00    +0.000 A 
ATOM     20  C   UNL     1       1.174   3.294  19.880  0.00  0.00    +0.000 A 
ATOM     21  C   UNL     1       1.188   4.587  20.422  0.00  0.00    +0.000 A 
ATOM     22  C   UNL     1       1.876   5.630  19.781  0.00  0.00    +0.000 A 
ATOM     23  C   UNL     1       2.554   5.339  18.582  0.00  0.00    +0.000 A 
BRANCH  18  24
ATOM     24  O   UNL     1       3.281   3.660  16.934  0.00  0.00    +0.000 OA
BRANCH  24  29
ATOM     25  C   UNL     1       6.751   4.763  17.647  0.00  0.00    +0.000 A 
ATOM     26  C   UNL     1       7.226   4.866  16.331  0.00  0.00    +0.000 A 
ATOM     27  C   UNL     1       6.406   4.522  15.257  0.00  0.00    +0.000 A 
ATOM     28  C   UNL     1       5.094   4.099  15.488  0.00  0.00    +0.000 A 
ATOM     29  C   UNL     1       4.597   4.037  16.792  0.00  0.00    +0.000 A 
ATOM     30  C   UNL     1       5.444   4.303  17.873  0.00  0.00    +0.000 A 
BRANCH  25  32
ATOM     31  N   UNL     1       8.271   5.456  19.623  0.00  0.00    +0.000 NA
ATOM     32  C   UNL     1       7.588   5.125  18.742  0.00  0.00    +0.000 C 
ENDBRANCH  25  32
ENDBRANCH  24  29
ENDBRANCH  18  24
ENDBRANCH   1  22
TORSDOF 5
ENDMDL
MODEL 5
REMARK VINA RESULT:      -8.6      2.978      9.945
REMARK  Name = 
REMARK  5 active torsions:
REMARK  status: ('A' for Active; 'I' for Inactive)
REMARK    1  A    between atoms: C_2  and  C_3
REMARK    2  A    between atoms: C_7  and  O_8
REMARK    3  A    between atoms: O_8  and  C_9
REMARK    4  A    between atoms: C_13  and  C_14
REMARK    5  A    between atoms: C_14  and  N_15
REMARK                            x       y       z     vdW  Elec       q    Type
REMARK                         _______ _______ _______ _____ _____    ______ ____
ROOT
ATOM      1  C   UNL     1       2.176   9.051  18.065  0.00  0.00    +0.000 C 
ENDROOT
BRANCH   1   2
ATOM      2  N   UNL     1       0.809   9.559  17.814  0.00  0.00    +0.000 N 
ATOM      3  C   UNL     1       0.364  10.451  18.825  0.00  0.00    +0.000 A 
ATOM      4  C   UNL     1      -0.990  10.851  18.925  0.00  0.00    +0.000 A 
ATOM      5  C   UNL     1      -1.377  11.618  20.067  0.00  0.00    +0.000 A 
ATOM      6  C   UNL     1      -0.365  11.877  20.988  0.00  0.00    +0.000 A 
ATOM      7  C   UNL     1       0.966  11.734  20.679  0.00  0.00    +0.000 A 
ATOM      8  N   UNL     1       1.306  10.974  19.630  0.00  0.00    +0.000 NA
ATOM      9  N   UNL     1      -0.952  12.293  22.145  0.00  0.00    +0.000 N 
ATOM     10  C   UNL     1      -2.194  12.789  21.877  0.00  0.00    +0.000 A 
ATOM     11  C   UNL     1      -2.993  13.595  22.693  0.00  0.00    +0.000 A 
ATOM     12  C   UNL     1      -4.154  14.113  22.138  0.00  0.00    +0.000 A 
ATOM     13  C   UNL     1      -4.519  13.768  20.835  0.00  0.00    +0.000 A 
ATOM     14  C   UNL     1      -3.744  12.876  20.058  0.00  0.00    +0.000 A 
ATOM     15  C   UNL     1      -2.517  12.386  20.572  0.00  0.00    +0.000 A 
ATOM     16  H   UNL     1       0.765  10.055  16.929  0.00  0.00    +0.000 HD
ATOM     17  H   UNL     1      -0.480  12.374  23.034  0.00  0.00    +0.000 HD
ENDBRANCH   1   2
BRANCH   1  22
ATOM     18  C   UNL     1       2.922   5.352  18.743  0.00  0.00    +0.000 A 
ATOM     19  C   UNL     1       2.486   5.207  20.061  0.00  0.00    +0.000 A 
ATOM     20  C   UNL     1       1.929   6.295  20.732  0.00  0.00    +0.000 A 
ATOM     21  C   UNL     1       1.805   7.533  20.086  0.00  0.00    +0.000 A 
ATOM     22  C   UNL     1       2.205   7.692  18.750  0.00  0.00    +0.000 A 
ATOM     23  C   UNL     1       2.738   6.575  18.080  0.00  0.00    +0.000 A 
BRANCH  18  24
ATOM     24  O   UNL     1       3.487   4.230  18.171  0.00  0.00    +0.000 OA
BRANCH  24  29
ATOM     25  C   UNL     1       6.151   4.239  15.587  0.00  0.00    +0.000 A 
ATOM     26  C   UNL     1       7.253   4.527  16.406  0.00  0.00    +0.000 A 
ATOM     27  C   UNL     1       7.076   4.758  17.770  0.00  0.00    +0.000 A 
ATOM     28  C   UNL     1       5.799   4.674  18.333  0.00  0.00    +0.000 A 
ATOM     29  C   UNL     1       4.703   4.343  17.534  0.00  0.00    +0.000 A 
ATOM     30  C   UNL     1       4.867   4.192  16.153  0.00  0.00    +0.000 A 
BRANCH  25  32
ATOM     31  N   UNL     1       6.456   3.817  13.053  0.00  0.00    +0.000 NA
ATOM     32  C   UNL     1       6.336   3.994  14.196  0.00  0.00    +0.000 C 
ENDBRANCH  25  32
ENDBRANCH  24  29
ENDBRANCH  18  24
ENDBRANCH   1  22
TORSDOF 5
ENDMDL
MODEL 6
REMARK VINA RESULT:      -8.6      3.190     10.144
REMARK  Name = 
REMARK  5 active torsions:
REMARK  status: ('A' for Active; 'I' for Inactive)
REMARK    1  A    between atoms: C_2  and  C_3
REMARK    2  A    between atoms: C_7  and  O_8
REMARK    3  A    between atoms: O_8  and  C_9
REMARK    4  A    between atoms: C_13  and  C_14
REMARK    5  A    between atoms: C_14  and  N_15
REMARK                            x       y       z     vdW  Elec       q    Type
REMARK                         _______ _______ _______ _____ _____    ______ ____
ROOT
ATOM      1  C   UNL     1       2.062   7.721  20.252  0.00  0.00    +0.000 C 
ENDROOT
BRANCH   1   2
ATOM      2  N   UNL     1       1.207   8.068  21.409  0.00  0.00    +0.000 N 
ATOM      3  C   UNL     1       0.385   9.198  21.161  0.00  0.00    +0.000 A 
ATOM      4  C   UNL     1      -0.313   9.857  22.202  0.00  0.00    +0.000 A 
ATOM      5  C   UNL     1      -0.983  11.079  21.887  0.00  0.00    +0.000 A 
ATOM      6  C   UNL     1      -0.857  11.511  20.569  0.00  0.00    +0.000 A 
ATOM      7  C   UNL     1      -0.440  10.679  19.558  0.00  0.00    +0.000 A 
ATOM      8  N   UNL     1       0.225   9.561  19.876  0.00  0.00    +0.000 NA
ATOM      9  N   UNL     1      -1.236  12.820  20.521  0.00  0.00    +0.000 N 
ATOM     10  C   UNL     1      -2.051  13.099  21.579  0.00  0.00    +0.000 A 
ATOM     11  C   UNL     1      -2.904  14.195  21.741  0.00  0.00    +0.000 A 
ATOM     12  C   UNL     1      -3.761  14.180  22.832  0.00  0.00    +0.000 A 
ATOM     13  C   UNL     1      -3.701  13.132  23.753  0.00  0.00    +0.000 A 
ATOM     14  C   UNL     1      -2.765  12.080  23.620  0.00  0.00    +0.000 A 
ATOM     15  C   UNL     1      -1.926  12.030  22.479  0.00  0.00    +0.000 A 
ATOM     16  H   UNL     1       0.596   7.294  21.651  0.00  0.00    +0.000 HD
ATOM     17  H   UNL     1      -1.074  13.439  19.740  0.00  0.00    +0.000 HD
ENDBRANCH   1   2
BRANCH   1  22
ATOM     18  C   UNL     1       2.692   4.439  18.374  0.00  0.00    +0.000 A 
ATOM     19  C   UNL     1       2.059   3.508  19.199  0.00  0.00    +0.000 A 
ATOM     20  C   UNL     1       1.406   3.935  20.355  0.00  0.00    +0.000 A 
ATOM     21  C   UNL     1       1.384   5.296  20.689  0.00  0.00    +0.000 A 
ATOM     22  C   UNL     1       1.985   6.253  19.855  0.00  0.00    +0.000 A 
ATOM     23  C   UNL     1       2.614   5.805  18.679  0.00  0.00    +0.000 A 
BRANCH  18  24
ATOM     24  O   UNL     1       3.338   3.920  17.270  0.00  0.00    +0.000 OA
BRANCH  24  29
ATOM     25  C   UNL     1       6.558   4.797  15.647  0.00  0.00    +0.000 A 
ATOM     26  C   UNL     1       7.386   4.784  16.779  0.00  0.00    +0.000 A 
ATOM     27  C   UNL     1       6.850   4.536  18.042  0.00  0.00    +0.000 A 
ATOM     28  C   UNL     1       5.485   4.271  18.183  0.00  0.00    +0.000 A 
ATOM     29  C   UNL     1       4.660   4.237  17.056  0.00  0.00    +0.000 A 
ATOM     30  C   UNL     1       5.182   4.565  15.800  0.00  0.00    +0.000 A 
BRANCH  25  32
ATOM     31  N   UNL     1       7.591   5.254  13.320  0.00  0.00    +0.000 NA
ATOM     32  C   UNL     1       7.110   5.040  14.356  0.00  0.00    +0.000 C 
ENDBRANCH  25  32
ENDBRANCH  24  29
ENDBRANCH  18  24
ENDBRANCH   1  22
TORSDOF 5
ENDMDL
MODEL 7
REMARK VINA RESULT:      -8.5      3.253      9.478
REMARK  Name = 
REMARK  5 active torsions:
REMARK  status: ('A' for Active; 'I' for Inactive)
REMARK    1  A    between atoms: C_2  and  C_3
REMARK    2  A    between atoms: C_7  and  O_8
REMARK    3  A    between atoms: O_8  and  C_9
REMARK    4  A    between atoms: C_13  and  C_14
REMARK    5  A    between atoms: C_14  and  N_15
REMARK                            x       y       z     vdW  Elec       q    Type
REMARK                         _______ _______ _______ _____ _____    ______ ____
ROOT
ATOM      1  C   UNL     1       1.744   6.213  20.690  0.00  0.00    +0.000 C 
ENDROOT
BRANCH   1   2
ATOM      2  N   UNL     1       2.148   7.409  19.919  0.00  0.00    +0.000 N 
ATOM      3  C   UNL     1       1.414   8.568  20.285  0.00  0.00    +0.000 A 
ATOM      4  C   UNL     1       1.450   9.751  19.510  0.00  0.00    +0.000 A 
ATOM      5  C   UNL     1       0.556  10.808  19.862  0.00  0.00    +0.000 A 
ATOM      6  C   UNL     1      -0.288  10.548  20.939  0.00  0.00    +0.000 A 
ATOM      7  C   UNL     1      -0.055   9.524  21.826  0.00  0.00    +0.000 A 
ATOM      8  N   UNL     1       0.752   8.522  21.456  0.00  0.00    +0.000 NA
ATOM      9  N   UNL     1      -1.285  11.478  20.922  0.00  0.00    +0.000 N 
ATOM     10  C   UNL     1      -0.869  12.582  20.238  0.00  0.00    +0.000 A 
ATOM     11  C   UNL     1      -1.431  13.862  20.249  0.00  0.00    +0.000 A 
ATOM     12  C   UNL     1      -0.735  14.869  19.597  0.00  0.00    +0.000 A 
ATOM     13  C   UNL     1       0.441  14.571  18.905  0.00  0.00    +0.000 A 
ATOM     14  C   UNL     1       0.942  13.250  18.828  0.00  0.00    +0.000 A 
ATOM     15  C   UNL     1       0.292  12.213  19.542  0.00  0.00    +0.000 A 
ATOM     16  H   UNL     1       3.132   7.615  20.062  0.00  0.00    +0.000 HD
ATOM     17  H   UNL     1      -2.132  11.424  21.469  0.00  0.00    +0.000 HD
ENDBRANCH   1   2
BRANCH   1  22
ATOM     18  C   UNL     1       2.572   3.622  17.988  0.00  0.00    +0.000 A 
ATOM     19  C   UNL     1       1.835   2.515  18.414  0.00  0.00    +0.000 A 
ATOM     20  C   UNL     1       1.049   2.604  19.563  0.00  0.00    +0.000 A 
ATOM     21  C   UNL     1       0.998   3.802  20.289  0.00  0.00    +0.000 A 
ATOM     22  C   UNL     1       1.704   4.937  19.860  0.00  0.00    +0.000 A 
ATOM     23  C   UNL     1       2.469   4.836  18.682  0.00  0.00    +0.000 A 
BRANCH  18  24
ATOM     24  O   UNL     1       3.344   3.430  16.859  0.00  0.00    +0.000 OA
BRANCH  24  29
ATOM     25  C   UNL     1       6.608   4.985  17.693  0.00  0.00    +0.000 A 
ATOM     26  C   UNL     1       6.968   5.443  16.417  0.00  0.00    +0.000 A 
ATOM     27  C   UNL     1       6.149   5.182  15.318  0.00  0.00    +0.000 A 
ATOM     28  C   UNL     1       4.950   4.486  15.490  0.00  0.00    +0.000 A 
ATOM     29  C   UNL     1       4.561   4.065  16.764  0.00  0.00    +0.000 A 
ATOM     30  C   UNL     1       5.420   4.255  17.852  0.00  0.00    +0.000 A 
BRANCH  25  32
ATOM     31  N   UNL     1       8.089   5.494  19.752  0.00  0.00    +0.000 NA
ATOM     32  C   UNL     1       7.441   5.261  18.816  0.00  0.00    +0.000 C 
ENDBRANCH  25  32
ENDBRANCH  24  29
ENDBRANCH  18  24
ENDBRANCH   1  22
TORSDOF 5
ENDMDL
MODEL 8
REMARK VINA RESULT:      -8.5      3.408      9.524
REMARK  Name = 
REMARK  5 active torsions:
REMARK  status: ('A' for Active; 'I' for Inactive)
REMARK    1  A    between atoms: C_2  and  C_3
REMARK    2  A    between atoms: C_7  and  O_8
REMARK    3  A    between atoms: O_8  and  C_9
REMARK    4  A    between atoms: C_13  and  C_14
REMARK    5  A    between atoms: C_14  and  N_15
REMARK                            x       y       z     vdW  Elec       q    Type
REMARK                         _______ _______ _______ _____ _____    ______ ____
ROOT
ATOM      1  C   UNL     1       1.737   6.276  20.777  0.00  0.00    +0.000 C 
ENDROOT
BRANCH   1   2
ATOM      2  N   UNL     1       1.909   7.436  19.875  0.00  0.00    +0.000 N 
ATOM      3  C   UNL     1       1.276   8.608  20.366  0.00  0.00    +0.000 A 
ATOM      4  C   UNL     1       1.092   9.754  19.555  0.00  0.00    +0.000 A 
ATOM      5  C   UNL     1       0.303  10.823  20.079  0.00  0.00    +0.000 A 
ATOM      6  C   UNL     1      -0.230  10.611  21.348  0.00  0.00    +0.000 A 
ATOM      7  C   UNL     1       0.240   9.631  22.190  0.00  0.00    +0.000 A 
ATOM      8  N   UNL     1       0.940   8.615  21.669  0.00  0.00    +0.000 NA
ATOM      9  N   UNL     1      -1.212  11.535  21.548  0.00  0.00    +0.000 N 
ATOM     10  C   UNL     1      -1.004  12.607  20.730  0.00  0.00    +0.000 A 
ATOM     11  C   UNL     1      -1.564  13.885  20.829  0.00  0.00    +0.000 A 
ATOM     12  C   UNL     1      -1.076  14.862  19.974  0.00  0.00    +0.000 A 
ATOM     13  C   UNL     1      -0.113  14.535  19.017  0.00  0.00    +0.000 A 
ATOM     14  C   UNL     1       0.371  13.214  18.872  0.00  0.00    +0.000 A 
ATOM     15  C   UNL     1      -0.056  12.210  19.776  0.00  0.00    +0.000 A 
ATOM     16  H   UNL     1       2.893   7.652  19.749  0.00  0.00    +0.000 HD
ATOM     17  H   UNL     1      -1.889  11.505  22.296  0.00  0.00    +0.000 HD
ENDBRANCH   1   2
BRANCH   1  22
ATOM     18  C   UNL     1       2.615   3.522  18.258  0.00  0.00    +0.000 A 
ATOM     19  C   UNL     1       1.965   2.414  18.804  0.00  0.00    +0.000 A 
ATOM     20  C   UNL     1       1.221   2.552  19.975  0.00  0.00    +0.000 A 
ATOM     21  C   UNL     1       1.125   3.801  20.605  0.00  0.00    +0.000 A 
ATOM     22  C   UNL     1       1.743   4.935  20.055  0.00  0.00    +0.000 A 
ATOM     23  C   UNL     1       2.464   4.781  18.856  0.00  0.00    +0.000 A 
BRANCH  18  24
ATOM     24  O   UNL     1       3.352   3.283  17.115  0.00  0.00    +0.000 OA
BRANCH  24  29
ATOM     25  C   UNL     1       6.478   4.725  15.732  0.00  0.00    +0.000 A 
ATOM     26  C   UNL     1       7.202   4.870  16.925  0.00  0.00    +0.000 A 
ATOM     27  C   UNL     1       6.620   4.535  18.147  0.00  0.00    +0.000 A 
ATOM     28  C   UNL     1       5.319   4.026  18.186  0.00  0.00    +0.000 A 
ATOM     29  C   UNL     1       4.607   3.835  16.999  0.00  0.00    +0.000 A 
ATOM     30  C   UNL     1       5.159   4.246  15.781  0.00  0.00    +0.000 A 
BRANCH  25  32
ATOM     31  N   UNL     1       7.600   5.342  13.484  0.00  0.00    +0.000 NA
ATOM     32  C   UNL     1       7.079   5.058  14.483  0.00  0.00    +0.000 C 
ENDBRANCH  25  32
ENDBRANCH  24  29
ENDBRANCH  18  24
ENDBRANCH   1  22
TORSDOF 5
ENDMDL
MODEL 9
REMARK VINA RESULT:      -8.5      2.629     10.014
REMARK  Name = 
REMARK  5 active torsions:
REMARK  status: ('A' for Active; 'I' for Inactive)
REMARK    1  A    between atoms: C_2  and  C_3
REMARK    2  A    between atoms: C_7  and  O_8
REMARK    3  A    between atoms: O_8  and  C_9
REMARK    4  A    between atoms: C_13  and  C_14
REMARK    5  A    between atoms: C_14  and  N_15
REMARK                            x       y       z     vdW  Elec       q    Type
REMARK                         _______ _______ _______ _____ _____    ______ ____
ROOT
ATOM      1  C   UNL     1       1.578   9.661  18.639  0.00  0.00    +0.000 C 
ENDROOT
BRANCH   1   2
ATOM      2  N   UNL     1       0.590  10.357  19.492  0.00  0.00    +0.000 N 
ATOM      3  C   UNL     1      -0.675  10.494  18.862  0.00  0.00    +0.000 A 
ATOM      4  C   UNL     1      -1.680  11.344  19.381  0.00  0.00    +0.000 A 
ATOM      5  C   UNL     1      -2.856  11.545  18.595  0.00  0.00    +0.000 A 
ATOM      6  C   UNL     1      -2.879  10.887  17.368  0.00  0.00    +0.000 A 
ATOM      7  C   UNL     1      -2.029   9.848  17.074  0.00  0.00    +0.000 A 
ATOM      8  N   UNL     1      -0.910   9.707  17.796  0.00  0.00    +0.000 NA
ATOM      9  N   UNL     1      -3.868  11.445  16.614  0.00  0.00    +0.000 N 
ATOM     10  C   UNL     1      -4.782  12.046  17.430  0.00  0.00    +0.000 A 
ATOM     11  C   UNL     1      -6.083  12.448  17.114  0.00  0.00    +0.000 A 
ATOM     12  C   UNL     1      -6.884  12.890  18.156  0.00  0.00    +0.000 A 
ATOM     13  C   UNL     1      -6.361  12.985  19.447  0.00  0.00    +0.000 A 
ATOM     14  C   UNL     1      -5.013  12.662  19.728  0.00  0.00    +0.000 A 
ATOM     15  C   UNL     1      -4.191  12.140  18.699  0.00  0.00    +0.000 A 
ATOM     16  H   UNL     1       0.444   9.852  20.360  0.00  0.00    +0.000 HD
ATOM     17  H   UNL     1      -3.992  11.295  15.623  0.00  0.00    +0.000 HD
ENDBRANCH   1   2
BRANCH   1  22
ATOM     18  C   UNL     1       2.686   5.995  18.463  0.00  0.00    +0.000 A 
ATOM     19  C   UNL     1       2.435   5.555  19.763  0.00  0.00    +0.000 A 
ATOM     20  C   UNL     1       1.887   6.431  20.699  0.00  0.00    +0.000 A 
ATOM     21  C   UNL     1       1.587   7.751  20.337  0.00  0.00    +0.000 A 
ATOM     22  C   UNL     1       1.800   8.205  19.025  0.00  0.00    +0.000 A 
ATOM     23  C   UNL     1       2.326   7.297  18.087  0.00  0.00    +0.000 A 
BRANCH  18  24
ATOM     24  O   UNL     1       3.258   5.067  17.615  0.00  0.00    +0.000 OA
BRANCH  24  29
ATOM     25  C   UNL     1       6.640   6.492  17.065  0.00  0.00    +0.000 A 
ATOM     26  C   UNL     1       7.073   5.641  16.036  0.00  0.00    +0.000 A 
ATOM     27  C   UNL     1       6.260   4.599  15.593  0.00  0.00    +0.000 A 
ATOM     28  C   UNL     1       4.993   4.414  16.155  0.00  0.00    +0.000 A 
ATOM     29  C   UNL     1       4.535   5.283  17.148  0.00  0.00    +0.000 A 
ATOM     30  C   UNL     1       5.381   6.278  17.649  0.00  0.00    +0.000 A 
BRANCH  25  32
ATOM     31  N   UNL     1       8.124   8.460  17.851  0.00  0.00    +0.000 NA
ATOM     32  C   UNL     1       7.469   7.562  17.508  0.00  0.00    +0.000 C 
ENDBRANCH  25  32
ENDBRANCH  24  29
ENDBRANCH  18  24
ENDBRANCH   1  22
TORSDOF 5
ENDMDL
