MODEL 1
REMARK VINA RESULT:      -8.2      0.000      0.000
REMARK  Name = 
REMARK  4 active torsions:
REMARK  status: ('A' for Active; 'I' for Inactive)
REMARK    1  A    between atoms: C_1  and  C_2
REMARK    2  A    between atoms: C_7  and  C_8
REMARK    3  A    between atoms: N_11  and  C_12
REMARK    4  A    between atoms: C_12  and  C_13
REMARK                            x       y       z     vdW  Elec       q    Type
REMARK                         _______ _______ _______ _____ _____    ______ ____
ROOT
ATOM      1  C   UNL     1       7.324   4.732  17.489  0.00  0.00    +0.000 C 
ATOM      2  C   UNL     1       7.537   6.107  18.109  0.00  0.00    +0.000 C 
ATOM      3  C   UNL     1       7.211   5.842  19.575  0.00  0.00    +0.000 C 
ATOM      4  N   UNL     1       6.016   4.986  19.547  0.00  0.00    +0.000 NA
ATOM      5  C   UNL     1       6.277   4.066  18.412  0.00  0.00    +0.000 C 
ENDROOT
BRANCH   1  12
ATOM      6  C   UNL     1       4.366   2.966  11.054  0.00  0.00    +0.000 C 
ATOM      7  C   UNL     1       5.325   3.560  12.046  0.00  0.00    +0.000 A 
ATOM      8  C   UNL     1       6.586   4.053  11.667  0.00  0.00    +0.000 A 
ATOM      9  C   UNL     1       7.498   4.578  12.607  0.00  0.00    +0.000 A 
ATOM     10  C   UNL     1       7.073   4.568  13.928  0.00  0.00    +0.000 A 
ATOM     11  O   UNL     1       7.764   4.951  15.063  0.00  0.00    +0.000 OA
ATOM     12  C   UNL     1       6.867   4.690  16.080  0.00  0.00    +0.000 A 
ATOM     13  N   UNL     1       5.698   4.229  15.669  0.00  0.00    +0.000 NA
ATOM     14  C   UNL     1       5.835   4.116  14.328  0.00  0.00    +0.000 A 
ATOM     15  C   UNL     1       4.936   3.600  13.394  0.00  0.00    +0.000 A 
ENDBRANCH   1  12
BRANCH   4  16
ATOM     16  C   UNL     1       4.783   5.780  19.330  0.00  0.00    +0.000 C 
BRANCH  16  17
ATOM     17  C   UNL     1       3.551   4.919  19.112  0.00  0.00    +0.000 A 
ATOM     18  C   UNL     1       2.884   4.924  17.879  0.00  0.00    +0.000 A 
ATOM     19  C   UNL     1       1.672   4.249  17.728  0.00  0.00    +0.000 A 
ATOM     20  C   UNL     1       1.126   3.541  18.799  0.00  0.00    +0.000 A 
ATOM     21  C   UNL     1       1.808   3.480  20.012  0.00  0.00    +0.000 A 
ATOM     22  C   UNL     1       3.017   4.162  20.168  0.00  0.00    +0.000 A 
ENDBRANCH  16  17
ENDBRANCH   4  16
TORSDOF 3
ENDMDL
MODEL 2
REMARK VINA RESULT:      -8.1      0.289      1.047
REMARK  Name = 
REMARK  4 active torsions:
REMARK  status: ('A' for Active; 'I' for Inactive)
REMARK    1  A    between atoms: C_1  and  C_2
REMARK    2  A    between atoms: C_7  and  C_8
REMARK    3  A    between atoms: N_11  and  C_12
REMARK    4  A    between atoms: C_12  and  C_13
REMARK                            x       y       z     vdW  Elec       q    Type
REMARK                         _______ _______ _______ _____ _____    ______ ____
ROOT
ATOM      1  C   UNL     1       7.195   4.640  17.524  0.00  0.00    +0.000 C 
ATOM      2  C   UNL     1       7.488   6.001  18.144  0.00  0.00    +0.000 C 
ATOM      3  C   UNL     1       7.094   5.771  19.600  0.00  0.00    +0.000 C 
ATOM      4  N   UNL     1       5.840   5.005  19.536  0.00  0.00    +0.000 NA
ATOM      5  C   UNL     1       6.071   4.060  18.415  0.00  0.00    +0.000 C 
ENDROOT
BRANCH   1  12
ATOM      6  C   UNL     1       4.388   3.013  10.986  0.00  0.00    +0.000 C 
ATOM      7  C   UNL     1       5.334   3.567  12.013  0.00  0.00    +0.000 A 
ATOM      8  C   UNL     1       6.625   4.013  11.678  0.00  0.00    +0.000 A 
ATOM      9  C   UNL     1       7.524   4.500  12.650  0.00  0.00    +0.000 A 
ATOM     10  C   UNL     1       7.056   4.501  13.956  0.00  0.00    +0.000 A 
ATOM     11  O   UNL     1       7.723   4.853  15.116  0.00  0.00    +0.000 OA
ATOM     12  C   UNL     1       6.783   4.621  16.101  0.00  0.00    +0.000 A 
ATOM     13  N   UNL     1       5.612   4.206  15.649  0.00  0.00    +0.000 NA
ATOM     14  C   UNL     1       5.789   4.094  14.313  0.00  0.00    +0.000 A 
ATOM     15  C   UNL     1       4.903   3.616  13.347  0.00  0.00    +0.000 A 
ENDBRANCH   1  12
BRANCH   4  16
ATOM     16  C   UNL     1       4.677   5.886  19.273  0.00  0.00    +0.000 C 
BRANCH  16  17
ATOM     17  C   UNL     1       3.352   5.143  19.286  0.00  0.00    +0.000 A 
ATOM     18  C   UNL     1       2.774   4.733  20.496  0.00  0.00    +0.000 A 
ATOM     19  C   UNL     1       1.637   3.925  20.497  0.00  0.00    +0.000 A 
ATOM     20  C   UNL     1       1.050   3.538  19.293  0.00  0.00    +0.000 A 
ATOM     21  C   UNL     1       1.580   3.988  18.085  0.00  0.00    +0.000 A 
ATOM     22  C   UNL     1       2.724   4.790  18.081  0.00  0.00    +0.000 A 
ENDBRANCH  16  17
ENDBRANCH   4  16
TORSDOF 3
ENDMDL
MODEL 3
REMARK VINA RESULT:      -7.8      1.241      1.771
REMARK  Name = 
REMARK  4 active torsions:
REMARK  status: ('A' for Active; 'I' for Inactive)
REMARK    1  A    between atoms: C_1  and  C_2
REMARK    2  A    between atoms: C_7  and  C_8
REMARK    3  A    between atoms: N_11  and  C_12
REMARK    4  A    between atoms: C_12  and  C_13
REMARK                            x       y       z     vdW  Elec       q    Type
REMARK                         _______ _______ _______ _____ _____    ______ ____
ROOT
ATOM      1  C   UNL     1       5.615   5.743  17.403  0.00  0.00    +0.000 C 
ATOM      2  C   UNL     1       4.192   5.800  17.944  0.00  0.00    +0.000 C 
ATOM      3  C   UNL     1       4.401   5.437  19.411  0.00  0.00    +0.000 C 
ATOM      4  N   UNL     1       5.367   4.328  19.391  0.00  0.00    +0.000 NA
ATOM      5  C   UNL     1       6.322   4.723  18.326  0.00  0.00    +0.000 C 
ENDROOT
BRANCH   1  12
ATOM      6  C   UNL     1       6.116   2.190  11.047  0.00  0.00    +0.000 C 
ATOM      7  C   UNL     1       6.374   3.226  12.104  0.00  0.00    +0.000 A 
ATOM      8  C   UNL     1       7.461   4.113  12.034  0.00  0.00    +0.000 A 
ATOM      9  C   UNL     1       7.721   5.061  13.046  0.00  0.00    +0.000 A 
ATOM     10  C   UNL     1       6.840   5.053  14.118  0.00  0.00    +0.000 A 
ATOM     11  O   UNL     1       6.876   5.810  15.275  0.00  0.00    +0.000 OA
ATOM     12  C   UNL     1       5.783   5.353  15.984  0.00  0.00    +0.000 A 
ATOM     13  N   UNL     1       5.074   4.431  15.355  0.00  0.00    +0.000 NA
ATOM     14  C   UNL     1       5.751   4.214  14.204  0.00  0.00    +0.000 A 
ATOM     15  C   UNL     1       5.498   3.280  13.199  0.00  0.00    +0.000 A 
ENDBRANCH   1  12
BRANCH   4  16
ATOM     16  C   UNL     1       4.708   3.038  19.079  0.00  0.00    +0.000 C 
BRANCH  16  17
ATOM     17  C   UNL     1       3.329   2.908  19.702  0.00  0.00    +0.000 A 
ATOM     18  C   UNL     1       2.179   2.915  18.901  0.00  0.00    +0.000 A 
ATOM     19  C   UNL     1       0.911   2.945  19.484  0.00  0.00    +0.000 A 
ATOM     20  C   UNL     1       0.778   2.942  20.872  0.00  0.00    +0.000 A 
ATOM     21  C   UNL     1       1.912   2.876  21.679  0.00  0.00    +0.000 A 
ATOM     22  C   UNL     1       3.182   2.855  21.098  0.00  0.00    +0.000 A 
ENDBRANCH  16  17
ENDBRANCH   4  16
TORSDOF 3
ENDMDL
MODEL 4
REMARK VINA RESULT:      -7.8      3.593      7.206
REMARK  Name = 
REMARK  4 active torsions:
REMARK  status: ('A' for Active; 'I' for Inactive)
REMARK    1  A    between atoms: C_1  and  C_2
REMARK    2  A    between atoms: C_7  and  C_8
REMARK    3  A    between atoms: N_11  and  C_12
REMARK    4  A    between atoms: C_12  and  C_13
REMARK                            x       y       z     vdW  Elec       q    Type
REMARK                         _______ _______ _______ _____ _____    ______ ____
ROOT
ATOM      1  C   UNL     1       2.461   4.567  19.102  0.00  0.00    +0.000 C 
ATOM      2  C   UNL     1       1.885   3.939  17.839  0.00  0.00    +0.000 C 
ATOM      3  C   UNL     1       2.812   2.744  17.635  0.00  0.00    +0.000 C 
ATOM      4  N   UNL     1       4.161   3.261  17.910  0.00  0.00    +0.000 NA
ATOM      5  C   UNL     1       3.954   4.163  19.070  0.00  0.00    +0.000 C 
ENDROOT
BRANCH   1  12
ATOM      6  C   UNL     1       0.322  11.364  20.682  0.00  0.00    +0.000 C 
ATOM      7  C   UNL     1       0.957  10.227  19.933  0.00  0.00    +0.000 A 
ATOM      8  C   UNL     1       1.380  10.353  18.598  0.00  0.00    +0.000 A 
ATOM      9  C   UNL     1       1.944   9.272  17.887  0.00  0.00    +0.000 A 
ATOM     10  C   UNL     1       2.045   8.078  18.587  0.00  0.00    +0.000 A 
ATOM     11  O   UNL     1       2.488   6.847  18.140  0.00  0.00    +0.000 OA
ATOM     12  C   UNL     1       2.330   6.036  19.246  0.00  0.00    +0.000 A 
ATOM     13  N   UNL     1       1.878   6.662  20.319  0.00  0.00    +0.000 NA
ATOM     14  C   UNL     1       1.663   7.931  19.902  0.00  0.00    +0.000 A 
ATOM     15  C   UNL     1       1.108   9.003  20.601  0.00  0.00    +0.000 A 
ENDBRANCH   1  12
BRANCH   4  16
ATOM     16  C   UNL     1       4.711   3.994  16.744  0.00  0.00    +0.000 C 
BRANCH  16  17
ATOM     17  C   UNL     1       5.789   4.994  17.124  0.00  0.00    +0.000 A 
ATOM     18  C   UNL     1       6.887   4.601  17.900  0.00  0.00    +0.000 A 
ATOM     19  C   UNL     1       7.796   5.551  18.371  0.00  0.00    +0.000 A 
ATOM     20  C   UNL     1       7.632   6.897  18.048  0.00  0.00    +0.000 A 
ATOM     21  C   UNL     1       6.577   7.293  17.228  0.00  0.00    +0.000 A 
ATOM     22  C   UNL     1       5.662   6.346  16.764  0.00  0.00    +0.000 A 
ENDBRANCH  16  17
ENDBRANCH   4  16
TORSDOF 3
ENDMDL
MODEL 5
REMARK VINA RESULT:      -7.8      1.198      1.948
REMARK  Name = 
REMARK  4 active torsions:
REMARK  status: ('A' for Active; 'I' for Inactive)
REMARK    1  A    between atoms: C_1  and  C_2
REMARK    2  A    between atoms: C_7  and  C_8
REMARK    3  A    between atoms: N_11  and  C_12
REMARK    4  A    between atoms: C_12  and  C_13
REMARK                            x       y       z     vdW  Elec       q    Type
REMARK                         _______ _______ _______ _____ _____    ______ ____
ROOT
ATOM      1  C   UNL     1       5.814   5.773  17.348  0.00  0.00    +0.000 C 
ATOM      2  C   UNL     1       4.413   5.976  17.911  0.00  0.00    +0.000 C 
ATOM      3  C   UNL     1       4.608   5.598  19.375  0.00  0.00    +0.000 C 
ATOM      4  N   UNL     1       5.457   4.398  19.346  0.00  0.00    +0.000 NA
ATOM      5  C   UNL     1       6.430   4.690  18.265  0.00  0.00    +0.000 C 
ENDROOT
BRANCH   1  12
ATOM      6  C   UNL     1       6.018   2.136  11.023  0.00  0.00    +0.000 C 
ATOM      7  C   UNL     1       6.329   3.181  12.055  0.00  0.00    +0.000 A 
ATOM      8  C   UNL     1       7.422   4.057  11.929  0.00  0.00    +0.000 A 
ATOM      9  C   UNL     1       7.732   5.015  12.917  0.00  0.00    +0.000 A 
ATOM     10  C   UNL     1       6.896   5.030  14.024  0.00  0.00    +0.000 A 
ATOM     11  O   UNL     1       6.987   5.801  15.169  0.00  0.00    +0.000 OA
ATOM     12  C   UNL     1       5.919   5.364  15.928  0.00  0.00    +0.000 A 
ATOM     13  N   UNL     1       5.176   4.442  15.341  0.00  0.00    +0.000 NA
ATOM     14  C   UNL     1       5.803   4.203  14.166  0.00  0.00    +0.000 A 
ATOM     15  C   UNL     1       5.500   3.259  13.184  0.00  0.00    +0.000 A 
ENDBRANCH   1  12
BRANCH   4  16
ATOM     16  C   UNL     1       4.666   3.179  19.051  0.00  0.00    +0.000 C 
BRANCH  16  17
ATOM     17  C   UNL     1       3.317   3.162  19.747  0.00  0.00    +0.000 A 
ATOM     18  C   UNL     1       3.220   2.863  21.113  0.00  0.00    +0.000 A 
ATOM     19  C   UNL     1       1.971   2.703  21.715  0.00  0.00    +0.000 A 
ATOM     20  C   UNL     1       0.806   2.865  20.966  0.00  0.00    +0.000 A 
ATOM     21  C   UNL     1       0.888   3.220  19.621  0.00  0.00    +0.000 A 
ATOM     22  C   UNL     1       2.137   3.372  19.015  0.00  0.00    +0.000 A 
ENDBRANCH  16  17
ENDBRANCH   4  16
TORSDOF 3
ENDMDL
MODEL 6
REMARK VINA RESULT:      -7.7      3.629      7.173
REMARK  Name = 
REMARK  4 active torsions:
REMARK  status: ('A' for Active; 'I' for Inactive)
REMARK    1  A    between atoms: C_1  and  C_2
REMARK    2  A    between atoms: C_7  and  C_8
REMARK    3  A    between atoms: N_11  and  C_12
REMARK    4  A    between atoms: C_12  and  C_13
REMARK                            x       y       z     vdW  Elec       q    Type
REMARK                         _______ _______ _______ _____ _____    ______ ____
ROOT
ATOM      1  C   UNL     1       2.398   4.626  19.112  0.00  0.00    +0.000 C 
ATOM      2  C   UNL     1       1.911   4.014  17.804  0.00  0.00    +0.000 C 
ATOM      3  C   UNL     1       2.826   2.801  17.668  0.00  0.00    +0.000 C 
ATOM      4  N   UNL     1       4.160   3.289  18.052  0.00  0.00    +0.000 NA
ATOM      5  C   UNL     1       3.880   4.191  19.197  0.00  0.00    +0.000 C 
ENDROOT
BRANCH   1  12
ATOM      6  C   UNL     1       0.348  11.455  20.674  0.00  0.00    +0.000 C 
ATOM      7  C   UNL     1       0.968  10.308  19.928  0.00  0.00    +0.000 A 
ATOM      8  C   UNL     1       1.393  10.424  18.593  0.00  0.00    +0.000 A 
ATOM      9  C   UNL     1       1.943   9.335  17.884  0.00  0.00    +0.000 A 
ATOM     10  C   UNL     1       2.028   8.141  18.587  0.00  0.00    +0.000 A 
ATOM     11  O   UNL     1       2.455   6.903  18.143  0.00  0.00    +0.000 OA
ATOM     12  C   UNL     1       2.286   6.097  19.252  0.00  0.00    +0.000 A 
ATOM     13  N   UNL     1       1.841   6.731  20.323  0.00  0.00    +0.000 NA
ATOM     14  C   UNL     1       1.643   8.002  19.903  0.00  0.00    +0.000 A 
ATOM     15  C   UNL     1       1.103   9.083  20.599  0.00  0.00    +0.000 A 
ENDBRANCH   1  12
BRANCH   4  16
ATOM     16  C   UNL     1       4.816   4.013  16.937  0.00  0.00    +0.000 C 
BRANCH  16  17
ATOM     17  C   UNL     1       5.783   5.085  17.410  0.00  0.00    +0.000 A 
ATOM     18  C   UNL     1       5.681   6.400  16.937  0.00  0.00    +0.000 A 
ATOM     19  C   UNL     1       6.657   7.344  17.257  0.00  0.00    +0.000 A 
ATOM     20  C   UNL     1       7.730   6.993  18.075  0.00  0.00    +0.000 A 
ATOM     21  C   UNL     1       7.812   5.705  18.600  0.00  0.00    +0.000 A 
ATOM     22  C   UNL     1       6.841   4.756  18.273  0.00  0.00    +0.000 A 
ENDBRANCH  16  17
ENDBRANCH   4  16
TORSDOF 3
ENDMDL
MODEL 7
REMARK VINA RESULT:      -7.7      1.692      6.684
REMARK  Name = 
REMARK  4 active torsions:
REMARK  status: ('A' for Active; 'I' for Inactive)
REMARK    1  A    between atoms: C_1  and  C_2
REMARK    2  A    between atoms: C_7  and  C_8
REMARK    3  A    between atoms: N_11  and  C_12
REMARK    4  A    between atoms: C_12  and  C_13
REMARK                            x       y       z     vdW  Elec       q    Type
REMARK                         _______ _______ _______ _____ _____    ______ ____
ROOT
ATOM      1  C   UNL     1       5.177   6.697  17.769  0.00  0.00    +0.000 C 
ATOM      2  C   UNL     1       6.601   6.315  18.153  0.00  0.00    +0.000 C 
ATOM      3  C   UNL     1       7.374   6.683  16.891  0.00  0.00    +0.000 C 
ATOM      4  N   UNL     1       6.530   6.215  15.781  0.00  0.00    +0.000 NA
ATOM      5  C   UNL     1       5.156   6.549  16.229  0.00  0.00    +0.000 C 
ENDROOT
BRANCH   1  12
ATOM      6  C   UNL     1       1.036   2.350  21.920  0.00  0.00    +0.000 C 
ATOM      7  C   UNL     1       1.547   3.059  20.698  0.00  0.00    +0.000 A 
ATOM      8  C   UNL     1       1.147   2.698  19.400  0.00  0.00    +0.000 A 
ATOM      9  C   UNL     1       1.656   3.343  18.252  0.00  0.00    +0.000 A 
ATOM     10  C   UNL     1       2.582   4.349  18.489  0.00  0.00    +0.000 A 
ATOM     11  O   UNL     1       3.294   5.104  17.574  0.00  0.00    +0.000 OA
ATOM     12  C   UNL     1       4.079   5.909  18.375  0.00  0.00    +0.000 A 
ATOM     13  N   UNL     1       3.882   5.743  19.672  0.00  0.00    +0.000 NA
ATOM     14  C   UNL     1       2.975   4.743  19.749  0.00  0.00    +0.000 A 
ATOM     15  C   UNL     1       2.466   4.104  20.880  0.00  0.00    +0.000 A 
ENDBRANCH   1  12
BRANCH   4  16
ATOM     16  C   UNL     1       6.689   4.759  15.554  0.00  0.00    +0.000 C 
BRANCH  16  17
ATOM     17  C   UNL     1       6.400   4.345  14.121  0.00  0.00    +0.000 A 
ATOM     18  C   UNL     1       5.179   3.748  13.782  0.00  0.00    +0.000 A 
ATOM     19  C   UNL     1       4.974   3.236  12.500  0.00  0.00    +0.000 A 
ATOM     20  C   UNL     1       5.978   3.337  11.537  0.00  0.00    +0.000 A 
ATOM     21  C   UNL     1       7.175   3.980  11.844  0.00  0.00    +0.000 A 
ATOM     22  C   UNL     1       7.385   4.486  13.129  0.00  0.00    +0.000 A 
ENDBRANCH  16  17
ENDBRANCH   4  16
TORSDOF 3
ENDMDL
MODEL 8
REMARK VINA RESULT:      -7.7      3.692      6.393
REMARK  Name = 
REMARK  4 active torsions:
REMARK  status: ('A' for Active; 'I' for Inactive)
REMARK    1  A    between atoms: C_1  and  C_2
REMARK    2  A    between atoms: C_7  and  C_8
REMARK    3  A    between atoms: N_11  and  C_12
REMARK    4  A    between atoms: C_12  and  C_13
REMARK                            x       y       z     vdW  Elec       q    Type
REMARK                         _______ _______ _______ _____ _____    ______ ____
ROOT
ATOM      1  C   UNL     1       4.336   6.296  17.274  0.00  0.00    +0.000 C 
ATOM      2  C   UNL     1       5.675   6.291  18.001  0.00  0.00    +0.000 C 
ATOM      3  C   UNL     1       6.217   4.910  17.648  0.00  0.00    +0.000 C 
ATOM      4  N   UNL     1       5.063   4.007  17.774  0.00  0.00    +0.000 NA
ATOM      5  C   UNL     1       3.942   4.801  17.213  0.00  0.00    +0.000 C 
ENDROOT
BRANCH   1  12
ATOM      6  C   UNL     1      -0.140  11.584  19.569  0.00  0.00    +0.000 C 
ATOM      7  C   UNL     1       0.600  10.277  19.550  0.00  0.00    +0.000 A 
ATOM      8  C   UNL     1       0.671   9.439  20.677  0.00  0.00    +0.000 A 
ATOM      9  C   UNL     1       1.396   8.229  20.666  0.00  0.00    +0.000 A 
ATOM     10  C   UNL     1       2.040   7.925  19.475  0.00  0.00    +0.000 A 
ATOM     11  O   UNL     1       2.869   6.855  19.186  0.00  0.00    +0.000 OA
ATOM     12  C   UNL     1       3.242   7.091  17.878  0.00  0.00    +0.000 A 
ATOM     13  N   UNL     1       2.692   8.166  17.341  0.00  0.00    +0.000 NA
ATOM     14  C   UNL     1       1.969   8.711  18.346  0.00  0.00    +0.000 A 
ATOM     15  C   UNL     1       1.248   9.906  18.362  0.00  0.00    +0.000 A 
ENDBRANCH   1  12
BRANCH   4  16
ATOM     16  C   UNL     1       4.813   3.640  19.189  0.00  0.00    +0.000 C 
BRANCH  16  17
ATOM     17  C   UNL     1       3.358   3.304  19.468  0.00  0.00    +0.000 A 
ATOM     18  C   UNL     1       2.678   2.363  18.683  0.00  0.00    +0.000 A 
ATOM     19  C   UNL     1       1.306   2.165  18.847  0.00  0.00    +0.000 A 
ATOM     20  C   UNL     1       0.604   2.886  19.813  0.00  0.00    +0.000 A 
ATOM     21  C   UNL     1       1.280   3.781  20.639  0.00  0.00    +0.000 A 
ATOM     22  C   UNL     1       2.651   3.987  20.472  0.00  0.00    +0.000 A 
ENDBRANCH  16  17
ENDBRANCH   4  16
TORSDOF 3
ENDMDL
MODEL 9
REMARK VINA RESULT:      -7.7      3.399      6.461
REMARK  Name = 
REMARK  4 active torsions:
REMARK  status: ('A' for Active; 'I' for Inactive)
REMARK    1  A    between atoms: C_1  and  C_2
REMARK    2  A    between atoms: C_7  and  C_8
REMARK    3  A    between atoms: N_11  and  C_12
REMARK    4  A    between atoms: C_12  and  C_13
REMARK                            x       y       z     vdW  Elec       q    Type
REMARK                         _______ _______ _______ _____ _____    ______ ____
ROOT
ATOM      1  C   UNL     1       4.230   6.186  17.231  0.00  0.00    +0.000 C 
ATOM      2  C   UNL     1       5.662   5.893  17.660  0.00  0.00    +0.000 C 
ATOM      3  C   UNL     1       5.875   4.491  17.097  0.00  0.00    +0.000 C 
ATOM      4  N   UNL     1       4.627   3.772  17.393  0.00  0.00    +0.000 NA
ATOM      5  C   UNL     1       3.575   4.788  17.141  0.00  0.00    +0.000 C 
ENDROOT
BRANCH   1  12
ATOM      6  C   UNL     1      -0.397   9.001  22.124  0.00  0.00    +0.000 C 
ATOM      7  C   UNL     1       0.440   8.888  20.882  0.00  0.00    +0.000 A 
ATOM      8  C   UNL     1       0.278   9.756  19.789  0.00  0.00    +0.000 A 
ATOM      9  C   UNL     1       1.042   9.625  18.609  0.00  0.00    +0.000 A 
ATOM     10  C   UNL     1       1.954   8.579  18.597  0.00  0.00    +0.000 A 
ATOM     11  O   UNL     1       2.785   8.166  17.570  0.00  0.00    +0.000 OA
ATOM     12  C   UNL     1       3.430   7.071  18.110  0.00  0.00    +0.000 A 
ATOM     13  N   UNL     1       3.102   6.811  19.364  0.00  0.00    +0.000 NA
ATOM     14  C   UNL     1       2.153   7.728  19.661  0.00  0.00    +0.000 A 
ATOM     15  C   UNL     1       1.397   7.864  20.826  0.00  0.00    +0.000 A 
ENDBRANCH   1  12
BRANCH   4  16
ATOM     16  C   UNL     1       4.595   3.294  18.796  0.00  0.00    +0.000 C 
BRANCH  16  17
ATOM     17  C   UNL     1       3.185   3.125  19.336  0.00  0.00    +0.000 A 
ATOM     18  C   UNL     1       2.226   2.398  18.617  0.00  0.00    +0.000 A 
ATOM     19  C   UNL     1       0.897   2.369  19.040  0.00  0.00    +0.000 A 
ATOM     20  C   UNL     1       0.516   3.044  20.200  0.00  0.00    +0.000 A 
ATOM     21  C   UNL     1       1.471   3.721  20.956  0.00  0.00    +0.000 A 
ATOM     22  C   UNL     1       2.800   3.758  20.529  0.00  0.00    +0.000 A 
ENDBRANCH  16  17
ENDBRANCH   4  16
TORSDOF 3
ENDMDL
