MODEL 1
REMARK VINA RESULT:      -8.2      0.000      0.000
REMARK  Name = 
REMARK  4 active torsions:
REMARK  status: ('A' for Active; 'I' for Inactive)
REMARK    1  A    between atoms: C_1  and  C_2
REMARK    2  A    between atoms: C_2  and  C_3
REMARK    3  A    between atoms: C_2  and  C_4
REMARK    4  A    between atoms: C_9  and  N_10
REMARK                            x       y       z     vdW  Elec       q    Type
REMARK                         _______ _______ _______ _____ _____    ______ ____
ROOT
ATOM      1  N   UNL     1       4.606   5.069  18.159  0.00  0.00    +0.000 N 
ATOM      2  C   UNL     1       3.566   6.002  18.160  0.00  0.00    +0.000 C 
ATOM      3  O   UNL     1       3.130   6.602  17.176  0.00  0.00    +0.000 OA
ATOM      4  C   UNL     1       2.937   6.201  19.530  0.00  0.00    +0.000 C 
ATOM      5  C   UNL     1       2.512   4.872  20.065  0.00  0.00    +0.000 A 
ATOM      6  C   UNL     1       1.329   4.685  20.778  0.00  0.00    +0.000 A 
ATOM      7  C   UNL     1       0.931   3.390  21.126  0.00  0.00    +0.000 A 
ATOM      8  C   UNL     1       1.723   2.290  20.783  0.00  0.00    +0.000 A 
ATOM      9  C   UNL     1       2.944   2.482  20.139  0.00  0.00    +0.000 A 
ATOM     10  C   UNL     1       3.334   3.775  19.793  0.00  0.00    +0.000 A 
ATOM     11  C   UNL     1       4.605   3.996  19.060  0.00  0.00    +0.000 C 
ATOM     12  O   UNL     1       5.541   3.240  19.294  0.00  0.00    +0.000 OA
ENDROOT
BRANCH   1  18
ATOM     13  C   UNL     1       6.647   5.854  16.925  0.00  0.00    +0.000 A 
ATOM     14  C   UNL     1       7.415   5.783  15.737  0.00  0.00    +0.000 A 
ATOM     15  C   UNL     1       7.085   4.911  14.703  0.00  0.00    +0.000 A 
ATOM     16  C   UNL     1       5.992   4.069  14.833  0.00  0.00    +0.000 A 
ATOM     17  C   UNL     1       5.218   4.123  15.990  0.00  0.00    +0.000 A 
ATOM     18  C   UNL     1       5.509   5.024  17.038  0.00  0.00    +0.000 A 
BRANCH  13  20
ATOM     19  C   UNL     1       7.888   7.999  17.550  0.00  0.00    +0.000 C 
ATOM     20  C   UNL     1       7.172   6.737  18.058  0.00  0.00    +0.000 C 
ATOM     21  C   UNL     1       8.043   5.922  19.024  0.00  0.00    +0.000 C 
ENDBRANCH  13  20
ENDBRANCH   1  18
TORSDOF 2
ENDMDL
MODEL 2
REMARK VINA RESULT:      -7.4      1.666      2.552
REMARK  Name = 
REMARK  4 active torsions:
REMARK  status: ('A' for Active; 'I' for Inactive)
REMARK    1  A    between atoms: C_1  and  C_2
REMARK    2  A    between atoms: C_2  and  C_3
REMARK    3  A    between atoms: C_2  and  C_4
REMARK    4  A    between atoms: C_9  and  N_10
REMARK                            x       y       z     vdW  Elec       q    Type
REMARK                         _______ _______ _______ _____ _____    ______ ____
ROOT
ATOM      1  N   UNL     1       4.477   3.520  17.715  0.00  0.00    +0.000 N 
ATOM      2  C   UNL     1       5.207   3.451  18.905  0.00  0.00    +0.000 C 
ATOM      3  O   UNL     1       6.192   4.135  19.191  0.00  0.00    +0.000 OA
ATOM      4  C   UNL     1       4.640   2.454  19.902  0.00  0.00    +0.000 C 
ATOM      5  C   UNL     1       3.197   2.769  20.136  0.00  0.00    +0.000 A 
ATOM      6  C   UNL     1       2.595   2.677  21.389  0.00  0.00    +0.000 A 
ATOM      7  C   UNL     1       1.279   3.121  21.555  0.00  0.00    +0.000 A 
ATOM      8  C   UNL     1       0.562   3.633  20.469  0.00  0.00    +0.000 A 
ATOM      9  C   UNL     1       1.137   3.651  19.200  0.00  0.00    +0.000 A 
ATOM     10  C   UNL     1       2.450   3.210  19.041  0.00  0.00    +0.000 A 
ATOM     11  C   UNL     1       3.098   3.272  17.708  0.00  0.00    +0.000 C 
ATOM     12  O   UNL     1       2.394   3.103  16.719  0.00  0.00    +0.000 OA
ENDROOT
BRANCH   1  18
ATOM     13  C   UNL     1       5.155   5.550  16.405  0.00  0.00    +0.000 A 
ATOM     14  C   UNL     1       5.678   6.058  15.190  0.00  0.00    +0.000 A 
ATOM     15  C   UNL     1       6.118   5.214  14.173  0.00  0.00    +0.000 A 
ATOM     16  C   UNL     1       6.069   3.840  14.347  0.00  0.00    +0.000 A 
ATOM     17  C   UNL     1       5.555   3.316  15.531  0.00  0.00    +0.000 A 
ATOM     18  C   UNL     1       5.068   4.148  16.563  0.00  0.00    +0.000 A 
BRANCH  13  20
ATOM     19  C   UNL     1       3.452   7.207  17.346  0.00  0.00    +0.000 C 
ATOM     20  C   UNL     1       4.833   6.554  17.513  0.00  0.00    +0.000 C 
ATOM     21  C   UNL     1       5.956   7.592  17.649  0.00  0.00    +0.000 C 
ENDBRANCH  13  20
ENDBRANCH   1  18
TORSDOF 2
ENDMDL
MODEL 3
REMARK VINA RESULT:      -7.0      1.613      5.819
REMARK  Name = 
REMARK  4 active torsions:
REMARK  status: ('A' for Active; 'I' for Inactive)
REMARK    1  A    between atoms: C_1  and  C_2
REMARK    2  A    between atoms: C_2  and  C_3
REMARK    3  A    between atoms: C_2  and  C_4
REMARK    4  A    between atoms: C_9  and  N_10
REMARK                            x       y       z     vdW  Elec       q    Type
REMARK                         _______ _______ _______ _____ _____    ______ ____
ROOT
ATOM      1  N   UNL     1       3.929   4.807  18.733  0.00  0.00    +0.000 N 
ATOM      2  C   UNL     1       3.472   5.940  18.055  0.00  0.00    +0.000 C 
ATOM      3  O   UNL     1       2.458   6.586  18.326  0.00  0.00    +0.000 OA
ATOM      4  C   UNL     1       4.392   6.379  16.928  0.00  0.00    +0.000 C 
ATOM      5  C   UNL     1       5.773   6.558  17.471  0.00  0.00    +0.000 A 
ATOM      6  C   UNL     1       6.617   7.592  17.069  0.00  0.00    +0.000 A 
ATOM      7  C   UNL     1       7.840   7.776  17.723  0.00  0.00    +0.000 A 
ATOM      8  C   UNL     1       8.227   6.917  18.756  0.00  0.00    +0.000 A 
ATOM      9  C   UNL     1       7.419   5.837  19.105  0.00  0.00    +0.000 A 
ATOM     10  C   UNL     1       6.200   5.660  18.452  0.00  0.00    +0.000 A 
ATOM     11  C   UNL     1       5.302   4.547  18.846  0.00  0.00    +0.000 C 
ATOM     12  O   UNL     1       5.816   3.502  19.229  0.00  0.00    +0.000 OA
ENDROOT
BRANCH   1  18
ATOM     13  C   UNL     1       2.310   2.936  19.156  0.00  0.00    +0.000 A 
ATOM     14  C   UNL     1       1.378   2.354  20.050  0.00  0.00    +0.000 A 
ATOM     15  C   UNL     1       1.166   2.870  21.326  0.00  0.00    +0.000 A 
ATOM     16  C   UNL     1       1.894   3.969  21.756  0.00  0.00    +0.000 A 
ATOM     17  C   UNL     1       2.813   4.562  20.894  0.00  0.00    +0.000 A 
ATOM     18  C   UNL     1       3.021   4.081  19.582  0.00  0.00    +0.000 A 
BRANCH  13  20
ATOM     19  C   UNL     1       3.826   1.323  17.880  0.00  0.00    +0.000 C 
ATOM     20  C   UNL     1       2.574   2.213  17.836  0.00  0.00    +0.000 C 
ATOM     21  C   UNL     1       2.607   3.207  16.667  0.00  0.00    +0.000 C 
ENDBRANCH  13  20
ENDBRANCH   1  18
TORSDOF 2
ENDMDL
MODEL 4
REMARK VINA RESULT:      -6.9      1.335      5.921
REMARK  Name = 
REMARK  4 active torsions:
REMARK  status: ('A' for Active; 'I' for Inactive)
REMARK    1  A    between atoms: C_1  and  C_2
REMARK    2  A    between atoms: C_2  and  C_3
REMARK    3  A    between atoms: C_2  and  C_4
REMARK    4  A    between atoms: C_9  and  N_10
REMARK                            x       y       z     vdW  Elec       q    Type
REMARK                         _______ _______ _______ _____ _____    ______ ____
ROOT
ATOM      1  N   UNL     1       4.350   4.953  18.558  0.00  0.00    +0.000 N 
ATOM      2  C   UNL     1       5.631   5.417  18.870  0.00  0.00    +0.000 C 
ATOM      3  O   UNL     1       6.265   5.158  19.895  0.00  0.00    +0.000 OA
ATOM      4  C   UNL     1       6.246   6.271  17.773  0.00  0.00    +0.000 C 
ATOM      5  C   UNL     1       6.213   5.506  16.489  0.00  0.00    +0.000 A 
ATOM      6  C   UNL     1       7.254   5.537  15.562  0.00  0.00    +0.000 A 
ATOM      7  C   UNL     1       7.213   4.688  14.451  0.00  0.00    +0.000 A 
ATOM      8  C   UNL     1       6.126   3.830  14.256  0.00  0.00    +0.000 A 
ATOM      9  C   UNL     1       5.049   3.855  15.140  0.00  0.00    +0.000 A 
ATOM     10  C   UNL     1       5.097   4.702  16.246  0.00  0.00    +0.000 A 
ATOM     11  C   UNL     1       3.985   4.704  17.228  0.00  0.00    +0.000 C 
ATOM     12  O   UNL     1       2.851   4.495  16.812  0.00  0.00    +0.000 OA
ENDROOT
BRANCH   1  18
ATOM     13  C   UNL     1       3.506   3.069  19.986  0.00  0.00    +0.000 A 
ATOM     14  C   UNL     1       2.581   2.652  20.975  0.00  0.00    +0.000 A 
ATOM     15  C   UNL     1       1.708   3.549  21.585  0.00  0.00    +0.000 A 
ATOM     16  C   UNL     1       1.747   4.892  21.242  0.00  0.00    +0.000 A 
ATOM     17  C   UNL     1       2.645   5.325  20.269  0.00  0.00    +0.000 A 
ATOM     18  C   UNL     1       3.516   4.431  19.608  0.00  0.00    +0.000 A 
BRANCH  13  20
ATOM     19  C   UNL     1       3.949   1.135  18.375  0.00  0.00    +0.000 C 
ATOM     20  C   UNL     1       4.517   2.039  19.481  0.00  0.00    +0.000 C 
ATOM     21  C   UNL     1       5.102   1.233  20.649  0.00  0.00    +0.000 C 
ENDBRANCH  13  20
ENDBRANCH   1  18
TORSDOF 2
ENDMDL
MODEL 5
REMARK VINA RESULT:      -6.7      1.330      5.833
REMARK  Name = 
REMARK  4 active torsions:
REMARK  status: ('A' for Active; 'I' for Inactive)
REMARK    1  A    between atoms: C_1  and  C_2
REMARK    2  A    between atoms: C_2  and  C_3
REMARK    3  A    between atoms: C_2  and  C_4
REMARK    4  A    between atoms: C_9  and  N_10
REMARK                            x       y       z     vdW  Elec       q    Type
REMARK                         _______ _______ _______ _____ _____    ______ ____
ROOT
ATOM      1  N   UNL     1       4.494   4.915  18.384  0.00  0.00    +0.000 N 
ATOM      2  C   UNL     1       5.739   5.475  18.680  0.00  0.00    +0.000 C 
ATOM      3  O   UNL     1       6.390   5.290  19.710  0.00  0.00    +0.000 OA
ATOM      4  C   UNL     1       6.293   6.337  17.557  0.00  0.00    +0.000 C 
ATOM      5  C   UNL     1       6.313   5.535  16.296  0.00  0.00    +0.000 A 
ATOM      6  C   UNL     1       7.349   5.611  15.366  0.00  0.00    +0.000 A 
ATOM      7  C   UNL     1       7.366   4.730  14.280  0.00  0.00    +0.000 A 
ATOM      8  C   UNL     1       6.341   3.793  14.112  0.00  0.00    +0.000 A 
ATOM      9  C   UNL     1       5.266   3.769  14.997  0.00  0.00    +0.000 A 
ATOM     10  C   UNL     1       5.255   4.649  16.079  0.00  0.00    +0.000 A 
ATOM     11  C   UNL     1       4.146   4.602  17.063  0.00  0.00    +0.000 C 
ATOM     12  O   UNL     1       3.029   4.303  16.655  0.00  0.00    +0.000 OA
ENDROOT
BRANCH   1  18
ATOM     13  C   UNL     1       2.814   5.142  20.236  0.00  0.00    +0.000 A 
ATOM     14  C   UNL     1       2.147   4.514  21.316  0.00  0.00    +0.000 A 
ATOM     15  C   UNL     1       2.329   3.163  21.603  0.00  0.00    +0.000 A 
ATOM     16  C   UNL     1       3.165   2.395  20.807  0.00  0.00    +0.000 A 
ATOM     17  C   UNL     1       3.836   2.992  19.742  0.00  0.00    +0.000 A 
ATOM     18  C   UNL     1       3.698   4.367  19.451  0.00  0.00    +0.000 A 
BRANCH  13  20
ATOM     19  C   UNL     1       1.488   7.205  20.955  0.00  0.00    +0.000 C 
ATOM     20  C   UNL     1       2.439   6.590  19.917  0.00  0.00    +0.000 C 
ATOM     21  C   UNL     1       1.896   6.708  18.486  0.00  0.00    +0.000 C 
ENDBRANCH  13  20
ENDBRANCH   1  18
TORSDOF 2
ENDMDL
MODEL 6
REMARK VINA RESULT:      -6.6      1.709      3.045
REMARK  Name = 
REMARK  4 active torsions:
REMARK  status: ('A' for Active; 'I' for Inactive)
REMARK    1  A    between atoms: C_1  and  C_2
REMARK    2  A    between atoms: C_2  and  C_3
REMARK    3  A    between atoms: C_2  and  C_4
REMARK    4  A    between atoms: C_9  and  N_10
REMARK                            x       y       z     vdW  Elec       q    Type
REMARK                         _______ _______ _______ _____ _____    ______ ____
ROOT
ATOM      1  N   UNL     1       4.344   5.007  18.272  0.00  0.00    +0.000 N 
ATOM      2  C   UNL     1       4.184   3.938  17.387  0.00  0.00    +0.000 C 
ATOM      3  O   UNL     1       5.091   3.281  16.872  0.00  0.00    +0.000 OA
ATOM      4  C   UNL     1       2.729   3.585  17.127  0.00  0.00    +0.000 C 
ATOM      5  C   UNL     1       2.046   3.349  18.436  0.00  0.00    +0.000 A 
ATOM      6  C   UNL     1       1.099   2.344  18.627  0.00  0.00    +0.000 A 
ATOM      7  C   UNL     1       0.608   2.096  19.913  0.00  0.00    +0.000 A 
ATOM      8  C   UNL     1       1.043   2.863  20.998  0.00  0.00    +0.000 A 
ATOM      9  C   UNL     1       1.930   3.919  20.795  0.00  0.00    +0.000 A 
ATOM     10  C   UNL     1       2.418   4.160  19.511  0.00  0.00    +0.000 A 
ATOM     11  C   UNL     1       3.404   5.245  19.284  0.00  0.00    +0.000 C 
ATOM     12  O   UNL     1       3.323   6.250  19.981  0.00  0.00    +0.000 OA
ENDROOT
BRANCH   1  18
ATOM     13  C   UNL     1       6.039   6.657  17.431  0.00  0.00    +0.000 A 
ATOM     14  C   UNL     1       7.351   7.178  17.556  0.00  0.00    +0.000 A 
ATOM     15  C   UNL     1       8.214   6.755  18.564  0.00  0.00    +0.000 A 
ATOM     16  C   UNL     1       7.787   5.815  19.489  0.00  0.00    +0.000 A 
ATOM     17  C   UNL     1       6.503   5.285  19.385  0.00  0.00    +0.000 A 
ATOM     18  C   UNL     1       5.620   5.669  18.352  0.00  0.00    +0.000 A 
BRANCH  13  20
ATOM     19  C   UNL     1       3.733   7.639  16.938  0.00  0.00    +0.000 C 
ATOM     20  C   UNL     1       5.122   7.288  16.383  0.00  0.00    +0.000 C 
ATOM     21  C   UNL     1       5.043   6.408  15.128  0.00  0.00    +0.000 C 
ENDBRANCH  13  20
ENDBRANCH   1  18
TORSDOF 2
ENDMDL
MODEL 7
REMARK VINA RESULT:      -6.6      1.536      6.058
REMARK  Name = 
REMARK  4 active torsions:
REMARK  status: ('A' for Active; 'I' for Inactive)
REMARK    1  A    between atoms: C_1  and  C_2
REMARK    2  A    between atoms: C_2  and  C_3
REMARK    3  A    between atoms: C_2  and  C_4
REMARK    4  A    between atoms: C_9  and  N_10
REMARK                            x       y       z     vdW  Elec       q    Type
REMARK                         _______ _______ _______ _____ _____    ______ ____
ROOT
ATOM      1  N   UNL     1       3.669   4.867  18.309  0.00  0.00    +0.000 N 
ATOM      2  C   UNL     1       3.059   4.083  17.326  0.00  0.00    +0.000 C 
ATOM      3  O   UNL     1       1.886   4.169  16.957  0.00  0.00    +0.000 OA
ATOM      4  C   UNL     1       4.008   3.095  16.668  0.00  0.00    +0.000 C 
ATOM      5  C   UNL     1       5.197   3.838  16.148  0.00  0.00    +0.000 A 
ATOM      6  C   UNL     1       5.810   3.532  14.935  0.00  0.00    +0.000 A 
ATOM      7  C   UNL     1       6.829   4.359  14.450  0.00  0.00    +0.000 A 
ATOM      8  C   UNL     1       7.248   5.472  15.186  0.00  0.00    +0.000 A 
ATOM      9  C   UNL     1       6.689   5.733  16.436  0.00  0.00    +0.000 A 
ATOM     10  C   UNL     1       5.672   4.907  16.912  0.00  0.00    +0.000 A 
ATOM     11  C   UNL     1       5.027   5.199  18.216  0.00  0.00    +0.000 C 
ATOM     12  O   UNL     1       5.717   5.698  19.098  0.00  0.00    +0.000 OA
ENDROOT
BRANCH   1  18
ATOM     13  C   UNL     1       2.028   4.962  20.206  0.00  0.00    +0.000 A 
ATOM     14  C   UNL     1       1.195   5.775  21.014  0.00  0.00    +0.000 A 
ATOM     15  C   UNL     1       1.182   7.162  20.890  0.00  0.00    +0.000 A 
ATOM     16  C   UNL     1       2.017   7.780  19.971  0.00  0.00    +0.000 A 
ATOM     17  C   UNL     1       2.842   7.002  19.162  0.00  0.00    +0.000 A 
ATOM     18  C   UNL     1       2.847   5.592  19.242  0.00  0.00    +0.000 A 
BRANCH  13  20
ATOM     19  C   UNL     1       0.901   2.689  19.899  0.00  0.00    +0.000 C 
ATOM     20  C   UNL     1       2.075   3.466  20.516  0.00  0.00    +0.000 C 
ATOM     21  C   UNL     1       2.202   3.227  22.027  0.00  0.00    +0.000 C 
ENDBRANCH  13  20
ENDBRANCH   1  18
TORSDOF 2
ENDMDL
MODEL 8
REMARK VINA RESULT:      -6.5      1.059      2.660
REMARK  Name = 
REMARK  4 active torsions:
REMARK  status: ('A' for Active; 'I' for Inactive)
REMARK    1  A    between atoms: C_1  and  C_2
REMARK    2  A    between atoms: C_2  and  C_3
REMARK    3  A    between atoms: C_2  and  C_4
REMARK    4  A    between atoms: C_9  and  N_10
REMARK                            x       y       z     vdW  Elec       q    Type
REMARK                         _______ _______ _______ _____ _____    ______ ____
ROOT
ATOM      1  N   UNL     1       4.104   4.993  17.508  0.00  0.00    +0.000 N 
ATOM      2  C   UNL     1       3.948   4.031  18.509  0.00  0.00    +0.000 C 
ATOM      3  O   UNL     1       4.827   3.279  18.934  0.00  0.00    +0.000 OA
ATOM      4  C   UNL     1       2.552   4.008  19.110  0.00  0.00    +0.000 C 
ATOM      5  C   UNL     1       2.206   5.383  19.582  0.00  0.00    +0.000 A 
ATOM      6  C   UNL     1       1.505   5.626  20.762  0.00  0.00    +0.000 A 
ATOM      7  C   UNL     1       1.339   6.941  21.209  0.00  0.00    +0.000 A 
ATOM      8  C   UNL     1       1.853   8.010  20.467  0.00  0.00    +0.000 A 
ATOM      9  C   UNL     1       2.485   7.773  19.248  0.00  0.00    +0.000 A 
ATOM     10  C   UNL     1       2.649   6.460  18.810  0.00  0.00    +0.000 A 
ATOM     11  C   UNL     1       3.367   6.184  17.541  0.00  0.00    +0.000 C 
ATOM     12  O   UNL     1       3.262   7.001  16.633  0.00  0.00    +0.000 OA
ENDROOT
BRANCH   1  18
ATOM     13  C   UNL     1       6.414   5.673  16.799  0.00  0.00    +0.000 A 
ATOM     14  C   UNL     1       7.431   5.574  15.818  0.00  0.00    +0.000 A 
ATOM     15  C   UNL     1       7.301   4.740  14.710  0.00  0.00    +0.000 A 
ATOM     16  C   UNL     1       6.162   3.963  14.560  0.00  0.00    +0.000 A 
ATOM     17  C   UNL     1       5.146   4.046  15.510  0.00  0.00    +0.000 A 
ATOM     18  C   UNL     1       5.236   4.911  16.623  0.00  0.00    +0.000 A 
BRANCH  13  20
ATOM     19  C   UNL     1       7.471   7.803  17.735  0.00  0.00    +0.000 C 
ATOM     20  C   UNL     1       6.711   6.504  18.047  0.00  0.00    +0.000 C 
ATOM     21  C   UNL     1       7.421   5.655  19.110  0.00  0.00    +0.000 C 
ENDBRANCH  13  20
ENDBRANCH   1  18
TORSDOF 2
ENDMDL
MODEL 9
REMARK VINA RESULT:      -6.4      1.408      2.532
REMARK  Name = 
REMARK  4 active torsions:
REMARK  status: ('A' for Active; 'I' for Inactive)
REMARK    1  A    between atoms: C_1  and  C_2
REMARK    2  A    between atoms: C_2  and  C_3
REMARK    3  A    between atoms: C_2  and  C_4
REMARK    4  A    between atoms: C_9  and  N_10
REMARK                            x       y       z     vdW  Elec       q    Type
REMARK                         _______ _______ _______ _____ _____    ______ ____
ROOT
ATOM      1  N   UNL     1       4.094   4.665  16.763  0.00  0.00    +0.000 N 
ATOM      2  C   UNL     1       3.672   3.456  17.322  0.00  0.00    +0.000 C 
ATOM      3  O   UNL     1       4.352   2.435  17.437  0.00  0.00    +0.000 OA
ATOM      4  C   UNL     1       2.250   3.505  17.857  0.00  0.00    +0.000 C 
ATOM      5  C   UNL     1       2.131   4.648  18.813  0.00  0.00    +0.000 A 
ATOM      6  C   UNL     1       1.388   4.577  19.991  0.00  0.00    +0.000 A 
ATOM      7  C   UNL     1       1.437   5.637  20.902  0.00  0.00    +0.000 A 
ATOM      8  C   UNL     1       2.207   6.772  20.626  0.00  0.00    +0.000 A 
ATOM      9  C   UNL     1       2.887   6.877  19.414  0.00  0.00    +0.000 A 
ATOM     10  C   UNL     1       2.836   5.815  18.512  0.00  0.00    +0.000 A 
ATOM     11  C   UNL     1       3.597   5.885  17.240  0.00  0.00    +0.000 C 
ATOM     12  O   UNL     1       3.729   6.982  16.710  0.00  0.00    +0.000 OA
ENDROOT
BRANCH   1  18
ATOM     13  C   UNL     1       6.481   5.291  16.303  0.00  0.00    +0.000 A 
ATOM     14  C   UNL     1       7.539   5.321  15.362  0.00  0.00    +0.000 A 
ATOM     15  C   UNL     1       7.410   4.755  14.096  0.00  0.00    +0.000 A 
ATOM     16  C   UNL     1       6.229   4.122  13.741  0.00  0.00    +0.000 A 
ATOM     17  C   UNL     1       5.172   4.083  14.648  0.00  0.00    +0.000 A 
ATOM     18  C   UNL     1       5.264   4.681  15.924  0.00  0.00    +0.000 A 
BRANCH  13  20
ATOM     19  C   UNL     1       7.364   7.229  17.715  0.00  0.00    +0.000 C 
ATOM     20  C   UNL     1       6.770   5.812  17.712  0.00  0.00    +0.000 C 
ATOM     21  C   UNL     1       7.636   4.815  18.494  0.00  0.00    +0.000 C 
ENDBRANCH  13  20
ENDBRANCH   1  18
TORSDOF 2
ENDMDL
