MODEL 1
REMARK VINA RESULT:      -8.1      0.000      0.000
REMARK  Name = 
REMARK  8 active torsions:
REMARK  status: ('A' for Active; 'I' for Inactive)
REMARK    1  A    between atoms: N_3  and  C_4
REMARK    2  A    between atoms: C_4  and  C_5
REMARK    3  A    between atoms: C_4  and  C_21
REMARK    4  A    between atoms: C_5  and  N_6
REMARK    5  A    between atoms: N_9  and  C_10
REMARK    6  A    between atoms: C_10  and  C_11
REMARK    7  A    between atoms: C_12  and  C_13
REMARK    8  A    between atoms: C_21  and  N_22
REMARK                            x       y       z     vdW  Elec       q    Type
REMARK                         _______ _______ _______ _____ _____    ______ ____
ROOT
ATOM      1  C   UNL     1      -1.766  12.188  20.835  0.00  0.00    +0.000 C 
ENDROOT
BRANCH   1   4
ATOM      2  N   UNL     1       0.059  14.121  18.665  0.00  0.00    +0.000 NA
ATOM      3  N   UNL     1      -0.702  13.833  19.561  0.00  0.00    +0.000 NA
ATOM      4  N   UNL     1      -1.497  13.553  20.438  0.00  0.00    +0.000 NA
ENDBRANCH   1   4
BRANCH   1   5
ATOM      5  C   UNL     1      -1.352  11.919  22.341  0.00  0.00    +0.000 C 
BRANCH   5   6
ATOM      6  N   UNL     1      -0.038  11.222  22.553  0.00  0.00    +0.000 NA
ATOM      7  C   UNL     1      -0.186   9.886  23.187  0.00  0.00    +0.000 C 
ATOM      8  C   UNL     1      -0.653   8.813  22.172  0.00  0.00    +0.000 C 
ATOM      9  N   UNL     1       0.230   8.742  20.985  0.00  0.00    +0.000 NA
ATOM     10  C   UNL     1       0.379  10.068  20.375  0.00  0.00    +0.000 C 
ATOM     11  C   UNL     1       0.892  11.103  21.414  0.00  0.00    +0.000 C 
BRANCH   9  12
ATOM     12  C   UNL     1       1.552   8.115  21.186  0.00  0.00    +0.000 C 
BRANCH  12  13
ATOM     13  C   UNL     1       1.757   6.943  20.297  0.00  0.00    +0.000 C 
ATOM     14  C   UNL     1       1.467   5.696  20.689  0.00  0.00    +0.000 C 
BRANCH  14  15
ATOM     15  C   UNL     1       1.673   4.532  19.803  0.00  0.00    +0.000 A 
ATOM     16  C   UNL     1       2.079   4.753  18.479  0.00  0.00    +0.000 A 
ATOM     17  C   UNL     1       2.254   3.674  17.609  0.00  0.00    +0.000 A 
ATOM     18  C   UNL     1       2.046   2.367  18.061  0.00  0.00    +0.000 A 
ATOM     19  C   UNL     1       1.661   2.135  19.381  0.00  0.00    +0.000 A 
ATOM     20  C   UNL     1       1.470   3.209  20.249  0.00  0.00    +0.000 A 
ENDBRANCH  14  15
ENDBRANCH  12  13
ENDBRANCH   9  12
ENDBRANCH   5   6
ENDBRANCH   1   5
BRANCH   1  21
ATOM     21  C   UNL     1      -3.279  12.080  20.599  0.00  0.00    +0.000 C 
BRANCH  21  22
ATOM     22  N   UNL     1      -3.756  12.095  19.215  0.00  0.00    +0.000 N 
ATOM     23  C   UNL     1      -3.352  11.458  18.084  0.00  0.00    +0.000 A 
ATOM     24  C   UNL     1      -2.153  10.780  17.819  0.00  0.00    +0.000 A 
ATOM     25  C   UNL     1      -2.020  10.137  16.574  0.00  0.00    +0.000 A 
ATOM     26  C   UNL     1      -3.071  10.166  15.632  0.00  0.00    +0.000 A 
ATOM     27  C   UNL     1      -4.265  10.852  15.915  0.00  0.00    +0.000 A 
ATOM     28  C   UNL     1      -4.371  11.495  17.144  0.00  0.00    +0.000 A 
ATOM     29  C   UNL     1      -5.414  12.201  17.712  0.00  0.00    +0.000 A 
ATOM     30  C   UNL     1      -6.722  12.463  17.302  0.00  0.00    +0.000 A 
ATOM     31  C   UNL     1      -7.554  13.201  18.172  0.00  0.00    +0.000 A 
ATOM     32  C   UNL     1      -7.057  13.699  19.393  0.00  0.00    +0.000 A 
ATOM     33  C   UNL     1      -5.755  13.404  19.786  0.00  0.00    +0.000 A 
ATOM     34  C   UNL     1      -4.970  12.617  18.936  0.00  0.00    +0.000 A 
ENDBRANCH  21  22
ENDBRANCH   1  21
TORSDOF 8
ENDMDL
MODEL 2
REMARK VINA RESULT:      -7.9      2.914     10.089
REMARK  Name = 
REMARK  8 active torsions:
REMARK  status: ('A' for Active; 'I' for Inactive)
REMARK    1  A    between atoms: N_3  and  C_4
REMARK    2  A    between atoms: C_4  and  C_5
REMARK    3  A    between atoms: C_4  and  C_21
REMARK    4  A    between atoms: C_5  and  N_6
REMARK    5  A    between atoms: N_9  and  C_10
REMARK    6  A    between atoms: C_10  and  C_11
REMARK    7  A    between atoms: C_12  and  C_13
REMARK    8  A    between atoms: C_21  and  N_22
REMARK                            x       y       z     vdW  Elec       q    Type
REMARK                         _______ _______ _______ _____ _____    ______ ____
ROOT
ATOM      1  C   UNL     1       1.863   8.095  18.335  0.00  0.00    +0.000 C 
ENDROOT
BRANCH   1   4
ATOM      2  N   UNL     1       1.301   6.285  21.196  0.00  0.00    +0.000 NA
ATOM      3  N   UNL     1       1.811   7.081  20.440  0.00  0.00    +0.000 NA
ATOM      4  N   UNL     1       2.354   7.855  19.675  0.00  0.00    +0.000 NA
ENDBRANCH   1   4
BRANCH   1   5
ATOM      5  C   UNL     1       1.459   9.612  18.118  0.00  0.00    +0.000 C 
BRANCH   5   6
ATOM      6  N   UNL     1       1.087  10.382  19.353  0.00  0.00    +0.000 NA
ATOM      7  C   UNL     1       1.371  11.836  19.236  0.00  0.00    +0.000 C 
ATOM      8  C   UNL     1       0.300  12.569  18.391  0.00  0.00    +0.000 C 
ATOM      9  N   UNL     1      -1.072  12.336  18.900  0.00  0.00    +0.000 NA
ATOM     10  C   UNL     1      -1.337  10.898  19.021  0.00  0.00    +0.000 C 
ATOM     11  C   UNL     1      -0.267  10.210  19.914  0.00  0.00    +0.000 C 
BRANCH   9  12
ATOM     12  C   UNL     1      -1.438  13.036  20.147  0.00  0.00    +0.000 C 
BRANCH  12  13
ATOM     13  C   UNL     1      -2.872  12.854  20.490  0.00  0.00    +0.000 C 
ATOM     14  C   UNL     1      -3.321  12.976  21.747  0.00  0.00    +0.000 C 
BRANCH  14  15
ATOM     15  C   UNL     1      -4.747  12.794  22.086  0.00  0.00    +0.000 A 
ATOM     16  C   UNL     1      -5.639  12.405  21.076  0.00  0.00    +0.000 A 
ATOM     17  C   UNL     1      -6.998  12.253  21.359  0.00  0.00    +0.000 A 
ATOM     18  C   UNL     1      -7.473  12.467  22.657  0.00  0.00    +0.000 A 
ATOM     19  C   UNL     1      -6.591  12.835  23.674  0.00  0.00    +0.000 A 
ATOM     20  C   UNL     1      -5.237  13.003  23.392  0.00  0.00    +0.000 A 
ENDBRANCH  14  15
ENDBRANCH  12  13
ENDBRANCH   9  12
ENDBRANCH   5   6
ENDBRANCH   1   5
BRANCH   1  21
ATOM     21  C   UNL     1       3.059   7.663  17.475  0.00  0.00    +0.000 C 
BRANCH  21  22
ATOM     22  N   UNL     1       3.617   6.328  17.704  0.00  0.00    +0.000 N 
ATOM     23  C   UNL     1       3.064   5.089  17.781  0.00  0.00    +0.000 A 
ATOM     24  C   UNL     1       1.721   4.717  17.943  0.00  0.00    +0.000 A 
ATOM     25  C   UNL     1       1.407   3.345  17.915  0.00  0.00    +0.000 A 
ATOM     26  C   UNL     1       2.417   2.380  17.714  0.00  0.00    +0.000 A 
ATOM     27  C   UNL     1       3.758   2.771  17.555  0.00  0.00    +0.000 A 
ATOM     28  C   UNL     1       4.050   4.130  17.603  0.00  0.00    +0.000 A 
ATOM     29  C   UNL     1       5.243   4.809  17.443  0.00  0.00    +0.000 A 
ATOM     30  C   UNL     1       6.536   4.398  17.120  0.00  0.00    +0.000 A 
ATOM     31  C   UNL     1       7.534   5.389  16.991  0.00  0.00    +0.000 A 
ATOM     32  C   UNL     1       7.237   6.745  17.234  0.00  0.00    +0.000 A 
ATOM     33  C   UNL     1       5.933   7.129  17.533  0.00  0.00    +0.000 A 
ATOM     34  C   UNL     1       4.948   6.136  17.592  0.00  0.00    +0.000 A 
ENDBRANCH  21  22
ENDBRANCH   1  21
TORSDOF 8
ENDMDL
MODEL 3
REMARK VINA RESULT:      -7.8      3.553      9.923
REMARK  Name = 
REMARK  8 active torsions:
REMARK  status: ('A' for Active; 'I' for Inactive)
REMARK    1  A    between atoms: N_3  and  C_4
REMARK    2  A    between atoms: C_4  and  C_5
REMARK    3  A    between atoms: C_4  and  C_21
REMARK    4  A    between atoms: C_5  and  N_6
REMARK    5  A    between atoms: N_9  and  C_10
REMARK    6  A    between atoms: C_10  and  C_11
REMARK    7  A    between atoms: C_12  and  C_13
REMARK    8  A    between atoms: C_21  and  N_22
REMARK                            x       y       z     vdW  Elec       q    Type
REMARK                         _______ _______ _______ _____ _____    ______ ____
ROOT
ATOM      1  C   UNL     1       2.374   8.721  18.827  0.00  0.00    +0.000 C 
ENDROOT
BRANCH   1   4
ATOM      2  N   UNL     1       2.537  12.032  17.938  0.00  0.00    +0.000 NA
ATOM      3  N   UNL     1       2.230  10.862  17.900  0.00  0.00    +0.000 NA
ATOM      4  N   UNL     1       1.947   9.681  17.832  0.00  0.00    +0.000 NA
ENDBRANCH   1   4
BRANCH   1   5
ATOM      5  C   UNL     1       1.879   9.119  20.280  0.00  0.00    +0.000 C 
BRANCH   5   6
ATOM      6  N   UNL     1       0.393   9.247  20.462  0.00  0.00    +0.000 NA
ATOM      7  C   UNL     1      -0.093   8.612  21.714  0.00  0.00    +0.000 C 
ATOM      8  C   UNL     1       0.190   9.491  22.957  0.00  0.00    +0.000 C 
ATOM      9  N   UNL     1      -0.356  10.861  22.811  0.00  0.00    +0.000 NA
ATOM     10  C   UNL     1       0.122  11.473  21.565  0.00  0.00    +0.000 C 
ATOM     11  C   UNL     1      -0.222  10.582  20.340  0.00  0.00    +0.000 C 
BRANCH   9  12
ATOM     12  C   UNL     1      -1.821  11.001  22.925  0.00  0.00    +0.000 C 
BRANCH  12  13
ATOM     13  C   UNL     1      -2.228  12.393  23.246  0.00  0.00    +0.000 C 
ATOM     14  C   UNL     1      -3.375  12.669  23.879  0.00  0.00    +0.000 C 
BRANCH  14  15
ATOM     15  C   UNL     1      -3.777  14.054  24.196  0.00  0.00    +0.000 A 
ATOM     16  C   UNL     1      -5.028  14.513  23.759  0.00  0.00    +0.000 A 
ATOM     17  C   UNL     1      -5.425  15.827  24.018  0.00  0.00    +0.000 A 
ATOM     18  C   UNL     1      -4.584  16.685  24.733  0.00  0.00    +0.000 A 
ATOM     19  C   UNL     1      -3.346  16.233  25.190  0.00  0.00    +0.000 A 
ATOM     20  C   UNL     1      -2.940  14.928  24.920  0.00  0.00    +0.000 A 
ENDBRANCH  14  15
ENDBRANCH  12  13
ENDBRANCH   9  12
ENDBRANCH   5   6
ENDBRANCH   1   5
BRANCH   1  21
ATOM     21  C   UNL     1       1.741   7.422  18.311  0.00  0.00    +0.000 C 
BRANCH  21  22
ATOM     22  N   UNL     1       2.478   6.174  18.521  0.00  0.00    +0.000 N 
ATOM     23  C   UNL     1       2.208   5.041  19.221  0.00  0.00    +0.000 A 
ATOM     24  C   UNL     1       1.240   4.809  20.210  0.00  0.00    +0.000 A 
ATOM     25  C   UNL     1       1.122   3.505  20.726  0.00  0.00    +0.000 A 
ATOM     26  C   UNL     1       1.946   2.464  20.247  0.00  0.00    +0.000 A 
ATOM     27  C   UNL     1       2.911   2.715  19.257  0.00  0.00    +0.000 A 
ATOM     28  C   UNL     1       3.024   4.014  18.771  0.00  0.00    +0.000 A 
ATOM     29  C   UNL     1       3.834   4.549  17.788  0.00  0.00    +0.000 A 
ATOM     30  C   UNL     1       4.759   3.988  16.907  0.00  0.00    +0.000 A 
ATOM     31  C   UNL     1       5.393   4.843  15.978  0.00  0.00    +0.000 A 
ATOM     32  C   UNL     1       5.133   6.228  15.982  0.00  0.00    +0.000 A 
ATOM     33  C   UNL     1       4.190   6.757  16.857  0.00  0.00    +0.000 A 
ATOM     34  C   UNL     1       3.527   5.880  17.725  0.00  0.00    +0.000 A 
ENDBRANCH  21  22
ENDBRANCH   1  21
TORSDOF 8
ENDMDL
MODEL 4
REMARK VINA RESULT:      -7.8      2.771      9.990
REMARK  Name = 
REMARK  8 active torsions:
REMARK  status: ('A' for Active; 'I' for Inactive)
REMARK    1  A    between atoms: N_3  and  C_4
REMARK    2  A    between atoms: C_4  and  C_5
REMARK    3  A    between atoms: C_4  and  C_21
REMARK    4  A    between atoms: C_5  and  N_6
REMARK    5  A    between atoms: N_9  and  C_10
REMARK    6  A    between atoms: C_10  and  C_11
REMARK    7  A    between atoms: C_12  and  C_13
REMARK    8  A    between atoms: C_21  and  N_22
REMARK                            x       y       z     vdW  Elec       q    Type
REMARK                         _______ _______ _______ _____ _____    ______ ____
ROOT
ATOM      1  C   UNL     1       1.903   8.181  18.294  0.00  0.00    +0.000 C 
ENDROOT
BRANCH   1   4
ATOM      2  N   UNL     1       0.954   7.091  21.407  0.00  0.00    +0.000 NA
ATOM      3  N   UNL     1       1.666   7.497  20.516  0.00  0.00    +0.000 NA
ATOM      4  N   UNL     1       2.397   7.868  19.617  0.00  0.00    +0.000 NA
ENDBRANCH   1   4
BRANCH   1   5
ATOM      5  C   UNL     1       1.618   9.731  18.122  0.00  0.00    +0.000 C 
BRANCH   5   6
ATOM      6  N   UNL     1       1.124  10.454  19.343  0.00  0.00    +0.000 NA
ATOM      7  C   UNL     1       1.330  11.923  19.269  0.00  0.00    +0.000 C 
ATOM      8  C   UNL     1       0.274  12.611  18.368  0.00  0.00    +0.000 C 
ATOM      9  N   UNL     1      -1.111  12.290  18.782  0.00  0.00    +0.000 NA
ATOM     10  C   UNL     1      -1.299  10.837  18.862  0.00  0.00    +0.000 C 
ATOM     11  C   UNL     1      -0.251  10.193  19.811  0.00  0.00    +0.000 C 
BRANCH   9  12
ATOM     12  C   UNL     1      -1.597  12.943  20.014  0.00  0.00    +0.000 C 
BRANCH  12  13
ATOM     13  C   UNL     1      -2.923  12.424  20.437  0.00  0.00    +0.000 C 
ATOM     14  C   UNL     1      -4.060  13.080  20.170  0.00  0.00    +0.000 C 
BRANCH  14  15
ATOM     15  C   UNL     1      -5.376  12.562  20.593  0.00  0.00    +0.000 A 
ATOM     16  C   UNL     1      -5.830  12.845  21.889  0.00  0.00    +0.000 A 
ATOM     17  C   UNL     1      -7.058  12.344  22.329  0.00  0.00    +0.000 A 
ATOM     18  C   UNL     1      -7.851  11.577  21.469  0.00  0.00    +0.000 A 
ATOM     19  C   UNL     1      -7.418  11.307  20.171  0.00  0.00    +0.000 A 
ATOM     20  C   UNL     1      -6.187  11.791  19.734  0.00  0.00    +0.000 A 
ENDBRANCH  14  15
ENDBRANCH  12  13
ENDBRANCH   9  12
ENDBRANCH   5   6
ENDBRANCH   1   5
BRANCH   1  21
ATOM     21  C   UNL     1       3.044   7.677  17.400  0.00  0.00    +0.000 C 
BRANCH  21  22
ATOM     22  N   UNL     1       3.581   6.340  17.668  0.00  0.00    +0.000 N 
ATOM     23  C   UNL     1       3.005   5.117  17.808  0.00  0.00    +0.000 A 
ATOM     24  C   UNL     1       1.660   4.780  18.020  0.00  0.00    +0.000 A 
ATOM     25  C   UNL     1       1.318   3.415  18.054  0.00  0.00    +0.000 A 
ATOM     26  C   UNL     1       2.303   2.422  17.867  0.00  0.00    +0.000 A 
ATOM     27  C   UNL     1       3.647   2.778  17.658  0.00  0.00    +0.000 A 
ATOM     28  C   UNL     1       3.967   4.132  17.643  0.00  0.00    +0.000 A 
ATOM     29  C   UNL     1       5.168   4.779  17.425  0.00  0.00    +0.000 A 
ATOM     30  C   UNL     1       6.444   4.329  17.085  0.00  0.00    +0.000 A 
ATOM     31  C   UNL     1       7.458   5.293  16.891  0.00  0.00    +0.000 A 
ATOM     32  C   UNL     1       7.195   6.663  17.087  0.00  0.00    +0.000 A 
ATOM     33  C   UNL     1       5.907   7.086  17.405  0.00  0.00    +0.000 A 
ATOM     34  C   UNL     1       4.905   6.117  17.528  0.00  0.00    +0.000 A 
ENDBRANCH  21  22
ENDBRANCH   1  21
TORSDOF 8
ENDMDL
MODEL 5
REMARK VINA RESULT:      -7.7      3.016      9.760
REMARK  Name = 
REMARK  8 active torsions:
REMARK  status: ('A' for Active; 'I' for Inactive)
REMARK    1  A    between atoms: N_3  and  C_4
REMARK    2  A    between atoms: C_4  and  C_5
REMARK    3  A    between atoms: C_4  and  C_21
REMARK    4  A    between atoms: C_5  and  N_6
REMARK    5  A    between atoms: N_9  and  C_10
REMARK    6  A    between atoms: C_10  and  C_11
REMARK    7  A    between atoms: C_12  and  C_13
REMARK    8  A    between atoms: C_21  and  N_22
REMARK                            x       y       z     vdW  Elec       q    Type
REMARK                         _______ _______ _______ _____ _____    ______ ____
ROOT
ATOM      1  C   UNL     1       2.228   7.772  20.036  0.00  0.00    +0.000 C 
ENDROOT
BRANCH   1   4
ATOM      2  N   UNL     1       1.865   9.879  17.351  0.00  0.00    +0.000 NA
ATOM      3  N   UNL     1       1.829   8.863  18.007  0.00  0.00    +0.000 NA
ATOM      4  N   UNL     1       1.824   7.828  18.648  0.00  0.00    +0.000 NA
ENDBRANCH   1   4
BRANCH   1   5
ATOM      5  C   UNL     1       1.048   8.186  21.010  0.00  0.00    +0.000 C 
BRANCH   5   6
ATOM      6  N   UNL     1       1.233   9.469  21.769  0.00  0.00    +0.000 NA
ATOM      7  C   UNL     1       0.929  10.673  20.952  0.00  0.00    +0.000 C 
ATOM      8  C   UNL     1      -0.595  10.911  20.816  0.00  0.00    +0.000 C 
ATOM      9  N   UNL     1      -1.272  10.978  22.132  0.00  0.00    +0.000 NA
ATOM     10  C   UNL     1      -0.956   9.789  22.933  0.00  0.00    +0.000 C 
ATOM     11  C   UNL     1       0.580   9.614  23.084  0.00  0.00    +0.000 C 
BRANCH   9  12
ATOM     12  C   UNL     1      -1.054  12.206  22.922  0.00  0.00    +0.000 C 
BRANCH  12  13
ATOM     13  C   UNL     1      -2.309  12.977  23.117  0.00  0.00    +0.000 C 
ATOM     14  C   UNL     1      -3.452  12.636  22.508  0.00  0.00    +0.000 C 
BRANCH  14  15
ATOM     15  C   UNL     1      -4.698  13.405  22.704  0.00  0.00    +0.000 A 
ATOM     16  C   UNL     1      -5.808  13.112  21.899  0.00  0.00    +0.000 A 
ATOM     17  C   UNL     1      -6.991  13.842  22.040  0.00  0.00    +0.000 A 
ATOM     18  C   UNL     1      -7.081  14.854  23.001  0.00  0.00    +0.000 A 
ATOM     19  C   UNL     1      -5.989  15.140  23.821  0.00  0.00    +0.000 A 
ATOM     20  C   UNL     1      -4.802  14.425  23.672  0.00  0.00    +0.000 A 
ENDBRANCH  14  15
ENDBRANCH  12  13
ENDBRANCH   9  12
ENDBRANCH   5   6
ENDBRANCH   1   5
BRANCH   1  21
ATOM     21  C   UNL     1       2.646   6.304  20.187  0.00  0.00    +0.000 C 
BRANCH  21  22
ATOM     22  N   UNL     1       2.857   5.525  18.965  0.00  0.00    +0.000 N 
ATOM     23  C   UNL     1       3.784   5.585  17.972  0.00  0.00    +0.000 A 
ATOM     24  C   UNL     1       4.689   6.608  17.653  0.00  0.00    +0.000 A 
ATOM     25  C   UNL     1       5.603   6.379  16.607  0.00  0.00    +0.000 A 
ATOM     26  C   UNL     1       5.611   5.150  15.915  0.00  0.00    +0.000 A 
ATOM     27  C   UNL     1       4.696   4.136  16.247  0.00  0.00    +0.000 A 
ATOM     28  C   UNL     1       3.790   4.387  17.272  0.00  0.00    +0.000 A 
ATOM     29  C   UNL     1       2.816   3.588  17.841  0.00  0.00    +0.000 A 
ATOM     30  C   UNL     1       2.442   2.258  17.644  0.00  0.00    +0.000 A 
ATOM     31  C   UNL     1       1.406   1.735  18.449  0.00  0.00    +0.000 A 
ATOM     32  C   UNL     1       0.740   2.552  19.384  0.00  0.00    +0.000 A 
ATOM     33  C   UNL     1       1.148   3.868  19.574  0.00  0.00    +0.000 A 
ATOM     34  C   UNL     1       2.220   4.345  18.810  0.00  0.00    +0.000 A 
ENDBRANCH  21  22
ENDBRANCH   1  21
TORSDOF 8
ENDMDL
MODEL 6
REMARK VINA RESULT:      -7.6      3.384      6.037
REMARK  Name = 
REMARK  8 active torsions:
REMARK  status: ('A' for Active; 'I' for Inactive)
REMARK    1  A    between atoms: N_3  and  C_4
REMARK    2  A    between atoms: C_4  and  C_5
REMARK    3  A    between atoms: C_4  and  C_21
REMARK    4  A    between atoms: C_5  and  N_6
REMARK    5  A    between atoms: N_9  and  C_10
REMARK    6  A    between atoms: C_10  and  C_11
REMARK    7  A    between atoms: C_12  and  C_13
REMARK    8  A    between atoms: C_21  and  N_22
REMARK                            x       y       z     vdW  Elec       q    Type
REMARK                         _______ _______ _______ _____ _____    ______ ____
ROOT
ATOM      1  C   UNL     1       1.296   8.525  20.712  0.00  0.00    +0.000 C 
ENDROOT
BRANCH   1   4
ATOM      2  N   UNL     1       0.327   9.615  23.819  0.00  0.00    +0.000 NA
ATOM      3  N   UNL     1       0.246   9.284  22.658  0.00  0.00    +0.000 NA
ATOM      4  N   UNL     1       0.161   8.989  21.480  0.00  0.00    +0.000 NA
ENDBRANCH   1   4
BRANCH   1   5
ATOM      5  C   UNL     1       1.251   6.958  20.483  0.00  0.00    +0.000 C 
BRANCH   5   6
ATOM      6  N   UNL     1       2.579   6.270  20.338  0.00  0.00    +0.000 NA
ATOM      7  C   UNL     1       2.473   4.789  20.385  0.00  0.00    +0.000 C 
ATOM      8  C   UNL     1       1.962   4.203  19.045  0.00  0.00    +0.000 C 
ATOM      9  N   UNL     1       2.784   4.639  17.893  0.00  0.00    +0.000 NA
ATOM     10  C   UNL     1       2.891   6.102  17.863  0.00  0.00    +0.000 C 
ATOM     11  C   UNL     1       3.450   6.645  19.207  0.00  0.00    +0.000 C 
BRANCH   9  12
ATOM     12  C   UNL     1       4.118   4.020  17.765  0.00  0.00    +0.000 C 
BRANCH  12  13
ATOM     13  C   UNL     1       4.569   3.947  16.351  0.00  0.00    +0.000 C 
ATOM     14  C   UNL     1       5.771   4.396  15.966  0.00  0.00    +0.000 C 
BRANCH  14  15
ATOM     15  C   UNL     1       6.216   4.322  14.560  0.00  0.00    +0.000 A 
ATOM     16  C   UNL     1       7.325   5.082  14.160  0.00  0.00    +0.000 A 
ATOM     17  C   UNL     1       7.752   5.055  12.830  0.00  0.00    +0.000 A 
ATOM     18  C   UNL     1       7.088   4.254  11.896  0.00  0.00    +0.000 A 
ATOM     19  C   UNL     1       5.997   3.479  12.288  0.00  0.00    +0.000 A 
ATOM     20  C   UNL     1       5.557   3.514  13.610  0.00  0.00    +0.000 A 
ENDBRANCH  14  15
ENDBRANCH  12  13
ENDBRANCH   9  12
ENDBRANCH   5   6
ENDBRANCH   1   5
BRANCH   1  21
ATOM     21  C   UNL     1       1.151   9.327  19.412  0.00  0.00    +0.000 C 
BRANCH  21  22
ATOM     22  N   UNL     1       0.320  10.533  19.443  0.00  0.00    +0.000 N 
ATOM     23  C   UNL     1       0.544  11.808  19.858  0.00  0.00    +0.000 A 
ATOM     24  C   UNL     1       1.575  12.319  20.659  0.00  0.00    +0.000 A 
ATOM     25  C   UNL     1       1.615  13.710  20.878  0.00  0.00    +0.000 A 
ATOM     26  C   UNL     1       0.650  14.557  20.292  0.00  0.00    +0.000 A 
ATOM     27  C   UNL     1      -0.377  14.026  19.493  0.00  0.00    +0.000 A 
ATOM     28  C   UNL     1      -0.408  12.649  19.303  0.00  0.00    +0.000 A 
ATOM     29  C   UNL     1      -1.254  11.854  18.552  0.00  0.00    +0.000 A 
ATOM     30  C   UNL     1      -2.310  12.141  17.687  0.00  0.00    +0.000 A 
ATOM     31  C   UNL     1      -2.944  11.060  17.034  0.00  0.00    +0.000 A 
ATOM     32  C   UNL     1      -2.551   9.733  17.294  0.00  0.00    +0.000 A 
ATOM     33  C   UNL     1      -1.480   9.478  18.145  0.00  0.00    +0.000 A 
ATOM     34  C   UNL     1      -0.826  10.568  18.730  0.00  0.00    +0.000 A 
ENDBRANCH  21  22
ENDBRANCH   1  21
TORSDOF 8
ENDMDL
MODEL 7
REMARK VINA RESULT:      -7.6      3.299     10.059
REMARK  Name = 
REMARK  8 active torsions:
REMARK  status: ('A' for Active; 'I' for Inactive)
REMARK    1  A    between atoms: N_3  and  C_4
REMARK    2  A    between atoms: C_4  and  C_5
REMARK    3  A    between atoms: C_4  and  C_21
REMARK    4  A    between atoms: C_5  and  N_6
REMARK    5  A    between atoms: N_9  and  C_10
REMARK    6  A    between atoms: C_10  and  C_11
REMARK    7  A    between atoms: C_12  and  C_13
REMARK    8  A    between atoms: C_21  and  N_22
REMARK                            x       y       z     vdW  Elec       q    Type
REMARK                         _______ _______ _______ _____ _____    ______ ____
ROOT
ATOM      1  C   UNL     1       2.153   8.666  18.680  0.00  0.00    +0.000 C 
ENDROOT
BRANCH   1   4
ATOM      2  N   UNL     1       2.704  11.935  17.791  0.00  0.00    +0.000 NA
ATOM      3  N   UNL     1       2.304  10.795  17.725  0.00  0.00    +0.000 NA
ATOM      4  N   UNL     1       1.931   9.640  17.634  0.00  0.00    +0.000 NA
ENDBRANCH   1   4
BRANCH   1   5
ATOM      5  C   UNL     1       1.039   8.743  19.804  0.00  0.00    +0.000 C 
BRANCH   5   6
ATOM      6  N   UNL     1       1.237   9.792  20.862  0.00  0.00    +0.000 NA
ATOM      7  C   UNL     1       0.576  11.081  20.530  0.00  0.00    +0.000 C 
ATOM      8  C   UNL     1      -0.951  11.031  20.788  0.00  0.00    +0.000 C 
ATOM      9  N   UNL     1      -1.273  10.611  22.171  0.00  0.00    +0.000 NA
ATOM     10  C   UNL     1      -0.606   9.343  22.491  0.00  0.00    +0.000 C 
ATOM     11  C   UNL     1       0.927   9.450  22.264  0.00  0.00    +0.000 C 
BRANCH   9  12
ATOM     12  C   UNL     1      -1.029  11.606  23.234  0.00  0.00    +0.000 C 
BRANCH  12  13
ATOM     13  C   UNL     1      -1.982  12.743  23.168  0.00  0.00    +0.000 C 
ATOM     14  C   UNL     1      -3.181  12.699  23.765  0.00  0.00    +0.000 C 
BRANCH  14  15
ATOM     15  C   UNL     1      -4.126  13.831  23.696  0.00  0.00    +0.000 A 
ATOM     16  C   UNL     1      -3.842  14.997  24.422  0.00  0.00    +0.000 A 
ATOM     17  C   UNL     1      -4.731  16.073  24.401  0.00  0.00    +0.000 A 
ATOM     18  C   UNL     1      -5.901  16.002  23.637  0.00  0.00    +0.000 A 
ATOM     19  C   UNL     1      -6.184  14.855  22.895  0.00  0.00    +0.000 A 
ATOM     20  C   UNL     1      -5.307  13.773  22.926  0.00  0.00    +0.000 A 
ENDBRANCH  14  15
ENDBRANCH  12  13
ENDBRANCH   9  12
ENDBRANCH   5   6
ENDBRANCH   1   5
BRANCH   1  21
ATOM     21  C   UNL     1       2.127   7.346  17.897  0.00  0.00    +0.000 C 
BRANCH  21  22
ATOM     22  N   UNL     1       2.956   6.244  18.390  0.00  0.00    +0.000 N 
ATOM     23  C   UNL     1       2.763   5.282  19.330  0.00  0.00    +0.000 A 
ATOM     24  C   UNL     1       1.797   5.204  20.345  0.00  0.00    +0.000 A 
ATOM     25  C   UNL     1       1.773   4.047  21.146  0.00  0.00    +0.000 A 
ATOM     26  C   UNL     1       2.688   2.996  20.920  0.00  0.00    +0.000 A 
ATOM     27  C   UNL     1       3.651   3.093  19.900  0.00  0.00    +0.000 A 
ATOM     28  C   UNL     1       3.669   4.251  19.130  0.00  0.00    +0.000 A 
ATOM     29  C   UNL     1       4.454   4.613  18.052  0.00  0.00    +0.000 A 
ATOM     30  C   UNL     1       5.439   3.944  17.325  0.00  0.00    +0.000 A 
ATOM     31  C   UNL     1       6.021   4.613  16.225  0.00  0.00    +0.000 A 
ATOM     32  C   UNL     1       5.651   5.935  15.910  0.00  0.00    +0.000 A 
ATOM     33  C   UNL     1       4.650   6.570  16.640  0.00  0.00    +0.000 A 
ATOM     34  C   UNL     1       4.042   5.863  17.684  0.00  0.00    +0.000 A 
ENDBRANCH  21  22
ENDBRANCH   1  21
TORSDOF 8
ENDMDL
MODEL 8
REMARK VINA RESULT:      -7.6      1.961      3.648
REMARK  Name = 
REMARK  8 active torsions:
REMARK  status: ('A' for Active; 'I' for Inactive)
REMARK    1  A    between atoms: N_3  and  C_4
REMARK    2  A    between atoms: C_4  and  C_5
REMARK    3  A    between atoms: C_4  and  C_21
REMARK    4  A    between atoms: C_5  and  N_6
REMARK    5  A    between atoms: N_9  and  C_10
REMARK    6  A    between atoms: C_10  and  C_11
REMARK    7  A    between atoms: C_12  and  C_13
REMARK    8  A    between atoms: C_21  and  N_22
REMARK                            x       y       z     vdW  Elec       q    Type
REMARK                         _______ _______ _______ _____ _____    ______ ____
ROOT
ATOM      1  C   UNL     1      -1.577  13.357  21.118  0.00  0.00    +0.000 C 
ENDROOT
BRANCH   1   4
ATOM      2  N   UNL     1      -2.012  16.700  21.761  0.00  0.00    +0.000 NA
ATOM      3  N   UNL     1      -1.701  15.544  21.935  0.00  0.00    +0.000 NA
ATOM      4  N   UNL     1      -1.421  14.376  22.132  0.00  0.00    +0.000 NA
ENDBRANCH   1   4
BRANCH   1   5
ATOM      5  C   UNL     1      -1.602  11.901  21.744  0.00  0.00    +0.000 C 
BRANCH   5   6
ATOM      6  N   UNL     1      -0.268  11.311  22.105  0.00  0.00    +0.000 NA
ATOM      7  C   UNL     1      -0.382   9.994  22.782  0.00  0.00    +0.000 C 
ATOM      8  C   UNL     1      -0.677   8.851  21.778  0.00  0.00    +0.000 C 
ATOM      9  N   UNL     1       0.316   8.799  20.681  0.00  0.00    +0.000 NA
ATOM     10  C   UNL     1       0.428  10.108  20.027  0.00  0.00    +0.000 C 
ATOM     11  C   UNL     1       0.770  11.217  21.060  0.00  0.00    +0.000 C 
BRANCH   9  12
ATOM     12  C   UNL     1       1.654   8.279  21.028  0.00  0.00    +0.000 C 
BRANCH  12  13
ATOM     13  C   UNL     1       1.982   7.036  20.284  0.00  0.00    +0.000 C 
ATOM     14  C   UNL     1       2.532   7.064  19.063  0.00  0.00    +0.000 C 
BRANCH  14  15
ATOM     15  C   UNL     1       2.856   5.826  18.326  0.00  0.00    +0.000 A 
ATOM     16  C   UNL     1       1.938   4.767  18.342  0.00  0.00    +0.000 A 
ATOM     17  C   UNL     1       2.229   3.573  17.679  0.00  0.00    +0.000 A 
ATOM     18  C   UNL     1       3.430   3.436  16.976  0.00  0.00    +0.000 A 
ATOM     19  C   UNL     1       4.343   4.491  16.936  0.00  0.00    +0.000 A 
ATOM     20  C   UNL     1       4.063   5.678  17.609  0.00  0.00    +0.000 A 
ENDBRANCH  14  15
ENDBRANCH  12  13
ENDBRANCH   9  12
ENDBRANCH   5   6
ENDBRANCH   1   5
BRANCH   1  21
ATOM     21  C   UNL     1      -2.909  13.755  20.468  0.00  0.00    +0.000 C 
BRANCH  21  22
ATOM     22  N   UNL     1      -4.110  13.016  20.866  0.00  0.00    +0.000 N 
ATOM     23  C   UNL     1      -4.920  13.073  21.955  0.00  0.00    +0.000 A 
ATOM     24  C   UNL     1      -4.703  13.681  23.200  0.00  0.00    +0.000 A 
ATOM     25  C   UNL     1      -5.752  13.656  24.139  0.00  0.00    +0.000 A 
ATOM     26  C   UNL     1      -6.986  13.048  23.824  0.00  0.00    +0.000 A 
ATOM     27  C   UNL     1      -7.184  12.441  22.571  0.00  0.00    +0.000 A 
ATOM     28  C   UNL     1      -6.131  12.463  21.663  0.00  0.00    +0.000 A 
ATOM     29  C   UNL     1      -6.040  11.995  20.366  0.00  0.00    +0.000 A 
ATOM     30  C   UNL     1      -6.963  11.409  19.499  0.00  0.00    +0.000 A 
ATOM     31  C   UNL     1      -6.532  11.085  18.193  0.00  0.00    +0.000 A 
ATOM     32  C   UNL     1      -5.196  11.303  17.802  0.00  0.00    +0.000 A 
ATOM     33  C   UNL     1      -4.303  11.909  18.680  0.00  0.00    +0.000 A 
ATOM     34  C   UNL     1      -4.770  12.279  19.947  0.00  0.00    +0.000 A 
ENDBRANCH  21  22
ENDBRANCH   1  21
TORSDOF 8
ENDMDL
MODEL 9
REMARK VINA RESULT:      -7.5      2.517      4.533
REMARK  Name = 
REMARK  8 active torsions:
REMARK  status: ('A' for Active; 'I' for Inactive)
REMARK    1  A    between atoms: N_3  and  C_4
REMARK    2  A    between atoms: C_4  and  C_5
REMARK    3  A    between atoms: C_4  and  C_21
REMARK    4  A    between atoms: C_5  and  N_6
REMARK    5  A    between atoms: N_9  and  C_10
REMARK    6  A    between atoms: C_10  and  C_11
REMARK    7  A    between atoms: C_12  and  C_13
REMARK    8  A    between atoms: C_21  and  N_22
REMARK                            x       y       z     vdW  Elec       q    Type
REMARK                         _______ _______ _______ _____ _____    ______ ____
ROOT
ATOM      1  C   UNL     1      -2.838  11.990  19.539  0.00  0.00    +0.000 C 
ENDROOT
BRANCH   1   4
ATOM      2  N   UNL     1      -2.615  11.141  16.221  0.00  0.00    +0.000 NA
ATOM      3  N   UNL     1      -3.108  11.475  17.275  0.00  0.00    +0.000 NA
ATOM      4  N   UNL     1      -3.617  11.773  18.339  0.00  0.00    +0.000 NA
ENDBRANCH   1   4
BRANCH   1   5
ATOM      5  C   UNL     1      -1.306  12.230  19.212  0.00  0.00    +0.000 C 
BRANCH   5   6
ATOM      6  N   UNL     1      -0.337  11.262  19.830  0.00  0.00    +0.000 NA
ATOM      7  C   UNL     1      -0.553   9.861  19.383  0.00  0.00    +0.000 C 
ATOM      8  C   UNL     1       0.018   9.612  17.965  0.00  0.00    +0.000 C 
ATOM      9  N   UNL     1       1.448   9.986  17.863  0.00  0.00    +0.000 NA
ATOM     10  C   UNL     1       1.651  11.367  18.317  0.00  0.00    +0.000 C 
ATOM     11  C   UNL     1       1.106  11.563  19.759  0.00  0.00    +0.000 C 
BRANCH   9  12
ATOM     12  C   UNL     1       2.413   9.081  18.516  0.00  0.00    +0.000 C 
BRANCH  12  13
ATOM     13  C   UNL     1       1.942   7.672  18.528  0.00  0.00    +0.000 C 
ATOM     14  C   UNL     1       2.585   6.715  19.209  0.00  0.00    +0.000 C 
BRANCH  14  15
ATOM     15  C   UNL     1       2.114   5.315  19.219  0.00  0.00    +0.000 A 
ATOM     16  C   UNL     1       1.544   4.801  20.392  0.00  0.00    +0.000 A 
ATOM     17  C   UNL     1       1.116   3.472  20.442  0.00  0.00    +0.000 A 
ATOM     18  C   UNL     1       1.233   2.655  19.313  0.00  0.00    +0.000 A 
ATOM     19  C   UNL     1       1.779   3.163  18.134  0.00  0.00    +0.000 A 
ATOM     20  C   UNL     1       2.222   4.483  18.085  0.00  0.00    +0.000 A 
ENDBRANCH  14  15
ENDBRANCH  12  13
ENDBRANCH   9  12
ENDBRANCH   5   6
ENDBRANCH   1   5
BRANCH   1  21
ATOM     21  C   UNL     1      -3.523  13.223  20.145  0.00  0.00    +0.000 C 
BRANCH  21  22
ATOM     22  N   UNL     1      -3.757  13.231  21.591  0.00  0.00    +0.000 N 
ATOM     23  C   UNL     1      -3.059  13.731  22.644  0.00  0.00    +0.000 A 
ATOM     24  C   UNL     1      -1.727  14.167  22.708  0.00  0.00    +0.000 A 
ATOM     25  C   UNL     1      -1.269  14.718  23.920  0.00  0.00    +0.000 A 
ATOM     26  C   UNL     1      -2.135  14.838  25.028  0.00  0.00    +0.000 A 
ATOM     27  C   UNL     1      -3.467  14.394  24.946  0.00  0.00    +0.000 A 
ATOM     28  C   UNL     1      -3.895  13.838  23.745  0.00  0.00    +0.000 A 
ATOM     29  C   UNL     1      -5.131  13.359  23.356  0.00  0.00    +0.000 A 
ATOM     30  C   UNL     1      -6.378  13.321  23.981  0.00  0.00    +0.000 A 
ATOM     31  C   UNL     1      -7.467  12.787  23.258  0.00  0.00    +0.000 A 
ATOM     32  C   UNL     1      -7.282  12.263  21.963  0.00  0.00    +0.000 A 
ATOM     33  C   UNL     1      -6.033  12.334  21.355  0.00  0.00    +0.000 A 
ATOM     34  C   UNL     1      -4.983  12.926  22.067  0.00  0.00    +0.000 A 
ENDBRANCH  21  22
ENDBRANCH   1  21
TORSDOF 8
ENDMDL
