MODEL 1
REMARK VINA RESULT:      -7.5      0.000      0.000
REMARK  Name = 
REMARK  6 active torsions:
REMARK  status: ('A' for Active; 'I' for Inactive)
REMARK    1  A    between atoms: C_1  and  C_2
REMARK    2  A    between atoms: C_5  and  C_6
REMARK    3  A    between atoms: N_11  and  C_12
REMARK    4  A    between atoms: C_15  and  C_16
REMARK    5  A    between atoms: C_16  and  N_17
REMARK    6  A    between atoms: C_20  and  O_21
REMARK                            x       y       z     vdW  Elec       q    Type
REMARK                         _______ _______ _______ _____ _____    ______ ____
ROOT
ATOM      1  C   UNL     1       1.007   9.399  19.946  0.00  0.00    +0.000 A 
ATOM      2  N   UNL     1       0.971   9.794  18.648  0.00  0.00    +0.000 NA
ATOM      3  C   UNL     1       1.569   8.993  17.758  0.00  0.00    +0.000 A 
ATOM      4  N   UNL     1       2.202   7.848  18.030  0.00  0.00    +0.000 NA
ATOM      5  C   UNL     1       2.236   7.465  19.318  0.00  0.00    +0.000 A 
ATOM      6  N   UNL     1       2.921   6.270  19.698  0.00  0.00    +0.000 N 
ATOM      7  C   UNL     1       1.640   8.217  20.322  0.00  0.00    +0.000 A 
ATOM      8  H   UNL     1       2.243   5.616  20.081  0.00  0.00    +0.000 HD
ENDROOT
BRANCH   1  13
ATOM      9  C   UNL     1      -1.607  13.139  23.539  0.00  0.00    +0.000 C 
ATOM     10  C   UNL     1      -0.873  12.176  22.659  0.00  0.00    +0.000 A 
ATOM     11  C   UNL     1      -0.035  12.637  21.642  0.00  0.00    +0.000 A 
ATOM     12  C   UNL     1       0.613  11.736  20.795  0.00  0.00    +0.000 A 
ATOM     13  C   UNL     1       0.424  10.349  20.914  0.00  0.00    +0.000 A 
ATOM     14  C   UNL     1      -0.382   9.898  21.974  0.00  0.00    +0.000 A 
ATOM     15  C   UNL     1      -1.025  10.797  22.833  0.00  0.00    +0.000 A 
ENDBRANCH   1  13
BRANCH   6  16
ATOM     16  C   UNL     1       3.855   5.636  18.847  0.00  0.00    +0.000 A 
ATOM     17  C   UNL     1       5.213   5.977  18.914  0.00  0.00    +0.000 A 
ATOM     18  C   UNL     1       6.126   5.470  17.994  0.00  0.00    +0.000 A 
ATOM     19  C   UNL     1       5.702   4.589  16.995  0.00  0.00    +0.000 A 
ATOM     20  C   UNL     1       4.362   4.172  16.985  0.00  0.00    +0.000 A 
ATOM     21  C   UNL     1       3.446   4.684  17.911  0.00  0.00    +0.000 A 
BRANCH  19  22
ATOM     22  C   UNL     1       6.655   4.162  15.911  0.00  0.00    +0.000 C 
BRANCH  22  23
ATOM     23  N   UNL     1       7.436   5.276  15.393  0.00  0.00    +0.000 NA
ATOM     24  H   UNL     1       7.805   5.806  16.180  0.00  0.00    +0.000 HD
ATOM     25  H   UNL     1       6.811   5.905  14.892  0.00  0.00    +0.000 HD
ENDBRANCH  22  23
ENDBRANCH  19  22
ENDBRANCH   6  16
BRANCH   7  26
ATOM     26  O   UNL     1       1.776   7.829  21.629  0.00  0.00    +0.000 OA
ATOM     27  H   UNL     1       2.718   7.950  21.848  0.00  0.00    +0.000 HD
ENDBRANCH   7  26
TORSDOF 5
ENDMDL
MODEL 2
REMARK VINA RESULT:      -7.2      0.600      1.167
REMARK  Name = 
REMARK  6 active torsions:
REMARK  status: ('A' for Active; 'I' for Inactive)
REMARK    1  A    between atoms: C_1  and  C_2
REMARK    2  A    between atoms: C_5  and  C_6
REMARK    3  A    between atoms: N_11  and  C_12
REMARK    4  A    between atoms: C_15  and  C_16
REMARK    5  A    between atoms: C_16  and  N_17
REMARK    6  A    between atoms: C_20  and  O_21
REMARK                            x       y       z     vdW  Elec       q    Type
REMARK                         _______ _______ _______ _____ _____    ______ ____
ROOT
ATOM      1  C   UNL     1       0.861   9.705  19.857  0.00  0.00    +0.000 A 
ATOM      2  N   UNL     1       0.928  10.056  18.548  0.00  0.00    +0.000 NA
ATOM      3  C   UNL     1       1.551   9.202  17.727  0.00  0.00    +0.000 A 
ATOM      4  N   UNL     1       2.117   8.043  18.077  0.00  0.00    +0.000 NA
ATOM      5  C   UNL     1       2.048   7.704  19.377  0.00  0.00    +0.000 A 
ATOM      6  N   UNL     1       2.656   6.498  19.841  0.00  0.00    +0.000 N 
ATOM      7  C   UNL     1       1.418   8.513  20.313  0.00  0.00    +0.000 A 
ATOM      8  H   UNL     1       1.927   5.884  20.197  0.00  0.00    +0.000 HD
ENDROOT
BRANCH   1  13
ATOM      9  C   UNL     1      -1.205  13.644  23.592  0.00  0.00    +0.000 C 
ATOM     10  C   UNL     1      -0.736  12.636  22.588  0.00  0.00    +0.000 A 
ATOM     11  C   UNL     1      -1.064  11.287  22.728  0.00  0.00    +0.000 A 
ATOM     12  C   UNL     1      -0.588  10.344  21.814  0.00  0.00    +0.000 A 
ATOM     13  C   UNL     1       0.254  10.711  20.752  0.00  0.00    +0.000 A 
ATOM     14  C   UNL     1       0.535  12.080  20.596  0.00  0.00    +0.000 A 
ATOM     15  C   UNL     1       0.050  13.030  21.501  0.00  0.00    +0.000 A 
ENDBRANCH   1  13
BRANCH   6  16
ATOM     16  C   UNL     1       3.618   5.798  19.077  0.00  0.00    +0.000 A 
ATOM     17  C   UNL     1       4.980   5.908  19.388  0.00  0.00    +0.000 A 
ATOM     18  C   UNL     1       5.952   5.342  18.567  0.00  0.00    +0.000 A 
ATOM     19  C   UNL     1       5.579   4.633  17.423  0.00  0.00    +0.000 A 
ATOM     20  C   UNL     1       4.213   4.441  17.160  0.00  0.00    +0.000 A 
ATOM     21  C   UNL     1       3.239   5.011  17.987  0.00  0.00    +0.000 A 
BRANCH  19  22
ATOM     22  C   UNL     1       6.628   4.154  16.455  0.00  0.00    +0.000 C 
BRANCH  22  23
ATOM     23  N   UNL     1       7.967   4.201  17.027  0.00  0.00    +0.000 NA
ATOM     24  H   UNL     1       8.008   3.548  17.807  0.00  0.00    +0.000 HD
ATOM     25  H   UNL     1       8.119   5.127  17.421  0.00  0.00    +0.000 HD
ENDBRANCH  22  23
ENDBRANCH  19  22
ENDBRANCH   6  16
BRANCH   7  26
ATOM     26  O   UNL     1       1.450   8.166  21.638  0.00  0.00    +0.000 OA
ATOM     27  H   UNL     1       0.672   8.589  22.045  0.00  0.00    +0.000 HD
ENDBRANCH   7  26
TORSDOF 5
ENDMDL
MODEL 3
REMARK VINA RESULT:      -7.1      2.595      3.445
REMARK  Name = 
REMARK  6 active torsions:
REMARK  status: ('A' for Active; 'I' for Inactive)
REMARK    1  A    between atoms: C_1  and  C_2
REMARK    2  A    between atoms: C_5  and  C_6
REMARK    3  A    between atoms: N_11  and  C_12
REMARK    4  A    between atoms: C_15  and  C_16
REMARK    5  A    between atoms: C_16  and  N_17
REMARK    6  A    between atoms: C_20  and  O_21
REMARK                            x       y       z     vdW  Elec       q    Type
REMARK                         _______ _______ _______ _____ _____    ______ ____
ROOT
ATOM      1  C   UNL     1       1.230  10.060  19.723  0.00  0.00    +0.000 A 
ATOM      2  N   UNL     1       0.948   9.496  20.925  0.00  0.00    +0.000 NA
ATOM      3  C   UNL     1       1.305   8.216  21.088  0.00  0.00    +0.000 A 
ATOM      4  N   UNL     1       1.904   7.443  20.177  0.00  0.00    +0.000 NA
ATOM      5  C   UNL     1       2.178   8.008  18.988  0.00  0.00    +0.000 A 
ATOM      6  N   UNL     1       2.787   7.243  17.948  0.00  0.00    +0.000 N 
ATOM      7  C   UNL     1       1.859   9.332  18.715  0.00  0.00    +0.000 A 
ATOM      8  H   UNL     1       3.699   7.643  17.742  0.00  0.00    +0.000 HD
ENDROOT
BRANCH   1  13
ATOM      9  C   UNL     1      -0.491  15.508  18.680  0.00  0.00    +0.000 C 
ATOM     10  C   UNL     1      -0.091  14.103  19.011  0.00  0.00    +0.000 A 
ATOM     11  C   UNL     1       0.989  13.851  19.858  0.00  0.00    +0.000 A 
ATOM     12  C   UNL     1       1.386  12.540  20.128  0.00  0.00    +0.000 A 
ATOM     13  C   UNL     1       0.739  11.440  19.540  0.00  0.00    +0.000 A 
ATOM     14  C   UNL     1      -0.378  11.709  18.729  0.00  0.00    +0.000 A 
ATOM     15  C   UNL     1      -0.787  13.020  18.465  0.00  0.00    +0.000 A 
ENDBRANCH   1  13
BRANCH   6  16
ATOM     16  C   UNL     1       2.818   5.829  17.975  0.00  0.00    +0.000 A 
ATOM     17  C   UNL     1       1.636   5.095  17.805  0.00  0.00    +0.000 A 
ATOM     18  C   UNL     1       1.620   3.713  17.966  0.00  0.00    +0.000 A 
ATOM     19  C   UNL     1       2.796   3.028  18.281  0.00  0.00    +0.000 A 
ATOM     20  C   UNL     1       3.999   3.749  18.358  0.00  0.00    +0.000 A 
ATOM     21  C   UNL     1       4.012   5.138  18.196  0.00  0.00    +0.000 A 
BRANCH  19  22
ATOM     22  C   UNL     1       2.751   1.559  18.606  0.00  0.00    +0.000 C 
BRANCH  22  23
ATOM     23  N   UNL     1       3.991   0.880  18.258  0.00  0.00    +0.000 NA
ATOM     24  H   UNL     1       4.238   1.127  17.302  0.00  0.00    +0.000 HD
ATOM     25  H   UNL     1       3.823  -0.124  18.260  0.00  0.00    +0.000 HD
ENDBRANCH  22  23
ENDBRANCH  19  22
ENDBRANCH   6  16
BRANCH   7  26
ATOM     26  O   UNL     1       2.079   9.836  17.460  0.00  0.00    +0.000 OA
ATOM     27  H   UNL     1       2.644  10.620  17.582  0.00  0.00    +0.000 HD
ENDBRANCH   7  26
TORSDOF 5
ENDMDL
MODEL 4
REMARK VINA RESULT:      -7.0      0.822      1.092
REMARK  Name = 
REMARK  6 active torsions:
REMARK  status: ('A' for Active; 'I' for Inactive)
REMARK    1  A    between atoms: C_1  and  C_2
REMARK    2  A    between atoms: C_5  and  C_6
REMARK    3  A    between atoms: N_11  and  C_12
REMARK    4  A    between atoms: C_15  and  C_16
REMARK    5  A    between atoms: C_16  and  N_17
REMARK    6  A    between atoms: C_20  and  O_21
REMARK                            x       y       z     vdW  Elec       q    Type
REMARK                         _______ _______ _______ _____ _____    ______ ____
ROOT
ATOM      1  C   UNL     1       0.737   9.812  20.013  0.00  0.00    +0.000 A 
ATOM      2  N   UNL     1       0.547  10.166  18.716  0.00  0.00    +0.000 NA
ATOM      3  C   UNL     1       1.087   9.366  17.789  0.00  0.00    +0.000 A 
ATOM      4  N   UNL     1       1.799   8.259  18.022  0.00  0.00    +0.000 NA
ATOM      5  C   UNL     1       1.985   7.917  19.309  0.00  0.00    +0.000 A 
ATOM      6  N   UNL     1       2.763   6.767  19.645  0.00  0.00    +0.000 N 
ATOM      7  C   UNL     1       1.462   8.672  20.350  0.00  0.00    +0.000 A 
ATOM      8  H   UNL     1       2.160   6.095  20.114  0.00  0.00    +0.000 HD
ENDROOT
BRANCH   1  13
ATOM      9  C   UNL     1      -1.642  13.591  23.726  0.00  0.00    +0.000 C 
ATOM     10  C   UNL     1      -0.969  12.612  22.815  0.00  0.00    +0.000 A 
ATOM     11  C   UNL     1      -0.087  13.050  21.826  0.00  0.00    +0.000 A 
ATOM     12  C   UNL     1       0.504  12.137  20.950  0.00  0.00    +0.000 A 
ATOM     13  C   UNL     1       0.213  10.765  21.012  0.00  0.00    +0.000 A 
ATOM     14  C   UNL     1      -0.638  10.333  22.045  0.00  0.00    +0.000 A 
ATOM     15  C   UNL     1      -1.224  11.242  22.933  0.00  0.00    +0.000 A 
ENDBRANCH   1  13
BRANCH   6  16
ATOM     16  C   UNL     1       3.633   6.150  18.717  0.00  0.00    +0.000 A 
ATOM     17  C   UNL     1       3.776   4.756  18.706  0.00  0.00    +0.000 A 
ATOM     18  C   UNL     1       4.728   4.139  17.899  0.00  0.00    +0.000 A 
ATOM     19  C   UNL     1       5.545   4.905  17.064  0.00  0.00    +0.000 A 
ATOM     20  C   UNL     1       5.338   6.293  17.003  0.00  0.00    +0.000 A 
ATOM     21  C   UNL     1       4.382   6.910  17.816  0.00  0.00    +0.000 A 
BRANCH  19  22
ATOM     22  C   UNL     1       6.674   4.256  16.309  0.00  0.00    +0.000 C 
BRANCH  22  23
ATOM     23  N   UNL     1       7.902   4.205  17.089  0.00  0.00    +0.000 NA
ATOM     24  H   UNL     1       8.568   3.606  16.606  0.00  0.00    +0.000 HD
ATOM     25  H   UNL     1       7.703   3.752  17.979  0.00  0.00    +0.000 HD
ENDBRANCH  22  23
ENDBRANCH  19  22
ENDBRANCH   6  16
BRANCH   7  26
ATOM     26  O   UNL     1       1.752   8.331  21.645  0.00  0.00    +0.000 OA
ATOM     27  H   UNL     1       0.959   8.554  22.165  0.00  0.00    +0.000 HD
ENDBRANCH   7  26
TORSDOF 5
ENDMDL
MODEL 5
REMARK VINA RESULT:      -7.0      2.788      3.526
REMARK  Name = 
REMARK  6 active torsions:
REMARK  status: ('A' for Active; 'I' for Inactive)
REMARK    1  A    between atoms: C_1  and  C_2
REMARK    2  A    between atoms: C_5  and  C_6
REMARK    3  A    between atoms: N_11  and  C_12
REMARK    4  A    between atoms: C_15  and  C_16
REMARK    5  A    between atoms: C_16  and  N_17
REMARK    6  A    between atoms: C_20  and  O_21
REMARK                            x       y       z     vdW  Elec       q    Type
REMARK                         _______ _______ _______ _____ _____    ______ ____
ROOT
ATOM      1  C   UNL     1       1.217  10.288  19.595  0.00  0.00    +0.000 A 
ATOM      2  N   UNL     1       0.907   9.890  20.855  0.00  0.00    +0.000 NA
ATOM      3  C   UNL     1       1.196   8.623  21.174  0.00  0.00    +0.000 A 
ATOM      4  N   UNL     1       1.752   7.714  20.368  0.00  0.00    +0.000 NA
ATOM      5  C   UNL     1       2.054   8.115  19.120  0.00  0.00    +0.000 A 
ATOM      6  N   UNL     1       2.621   7.198  18.184  0.00  0.00    +0.000 N 
ATOM      7  C   UNL     1       1.805   9.411  18.687  0.00  0.00    +0.000 A 
ATOM      8  H   UNL     1       3.552   7.522  17.936  0.00  0.00    +0.000 HD
ENDROOT
BRANCH   1  13
ATOM      9  C   UNL     1      -0.374  15.781  18.582  0.00  0.00    +0.000 C 
ATOM     10  C   UNL     1       0.027  14.350  18.769  0.00  0.00    +0.000 A 
ATOM     11  C   UNL     1      -0.933  13.370  19.022  0.00  0.00    +0.000 A 
ATOM     12  C   UNL     1      -0.551  12.044  19.240  0.00  0.00    +0.000 A 
ATOM     13  C   UNL     1       0.800  11.659  19.244  0.00  0.00    +0.000 A 
ATOM     14  C   UNL     1       1.751  12.649  18.938  0.00  0.00    +0.000 A 
ATOM     15  C   UNL     1       1.373  13.976  18.707  0.00  0.00    +0.000 A 
ENDBRANCH   1  13
BRANCH   6  16
ATOM     16  C   UNL     1       2.578   5.798  18.383  0.00  0.00    +0.000 A 
ATOM     17  C   UNL     1       3.575   5.163  19.136  0.00  0.00    +0.000 A 
ATOM     18  C   UNL     1       3.629   3.775  19.227  0.00  0.00    +0.000 A 
ATOM     19  C   UNL     1       2.671   2.989  18.582  0.00  0.00    +0.000 A 
ATOM     20  C   UNL     1       1.617   3.626  17.906  0.00  0.00    +0.000 A 
ATOM     21  C   UNL     1       1.565   5.021  17.816  0.00  0.00    +0.000 A 
BRANCH  19  22
ATOM     22  C   UNL     1       2.817   1.491  18.553  0.00  0.00    +0.000 C 
BRANCH  22  23
ATOM     23  N   UNL     1       4.194   1.077  18.325  0.00  0.00    +0.000 NA
ATOM     24  H   UNL     1       4.773   1.454  19.072  0.00  0.00    +0.000 HD
ATOM     25  H   UNL     1       4.524   1.506  17.462  0.00  0.00    +0.000 HD
ENDBRANCH  22  23
ENDBRANCH  19  22
ENDBRANCH   6  16
BRANCH   7  26
ATOM     26  O   UNL     1       2.050   9.746  17.381  0.00  0.00    +0.000 OA
ATOM     27  H   UNL     1       1.395   9.258  16.851  0.00  0.00    +0.000 HD
ENDBRANCH   7  26
TORSDOF 5
ENDMDL
MODEL 6
REMARK VINA RESULT:      -7.0      2.398      3.160
REMARK  Name = 
REMARK  6 active torsions:
REMARK  status: ('A' for Active; 'I' for Inactive)
REMARK    1  A    between atoms: C_1  and  C_2
REMARK    2  A    between atoms: C_5  and  C_6
REMARK    3  A    between atoms: N_11  and  C_12
REMARK    4  A    between atoms: C_15  and  C_16
REMARK    5  A    between atoms: C_16  and  N_17
REMARK    6  A    between atoms: C_20  and  O_21
REMARK                            x       y       z     vdW  Elec       q    Type
REMARK                         _______ _______ _______ _____ _____    ______ ____
ROOT
ATOM      1  C   UNL     1       1.089   9.720  19.890  0.00  0.00    +0.000 A 
ATOM      2  N   UNL     1       0.960   9.078  21.078  0.00  0.00    +0.000 NA
ATOM      3  C   UNL     1       1.457   7.837  21.148  0.00  0.00    +0.000 A 
ATOM      4  N   UNL     1       2.060   7.173  20.159  0.00  0.00    +0.000 NA
ATOM      5  C   UNL     1       2.182   7.815  18.983  0.00  0.00    +0.000 A 
ATOM      6  N   UNL     1       2.785   7.164  17.864  0.00  0.00    +0.000 N 
ATOM      7  C   UNL     1       1.709   9.108  18.803  0.00  0.00    +0.000 A 
ATOM      8  H   UNL     1       3.632   7.668  17.614  0.00  0.00    +0.000 HD
ENDROOT
BRANCH   1  13
ATOM      9  C   UNL     1      -1.477  14.930  19.976  0.00  0.00    +0.000 C 
ATOM     10  C   UNL     1      -0.808  13.594  19.879  0.00  0.00    +0.000 A 
ATOM     11  C   UNL     1      -1.554  12.440  19.636  0.00  0.00    +0.000 A 
ATOM     12  C   UNL     1      -0.932  11.191  19.590  0.00  0.00    +0.000 A 
ATOM     13  C   UNL     1       0.447  11.047  19.814  0.00  0.00    +0.000 A 
ATOM     14  C   UNL     1       1.193  12.224  20.007  0.00  0.00    +0.000 A 
ATOM     15  C   UNL     1       0.576  13.479  20.043  0.00  0.00    +0.000 A 
ENDBRANCH   1  13
BRANCH   6  16
ATOM     16  C   UNL     1       2.963   5.762  17.816  0.00  0.00    +0.000 A 
ATOM     17  C   UNL     1       1.849   4.911  17.825  0.00  0.00    +0.000 A 
ATOM     18  C   UNL     1       2.002   3.530  17.919  0.00  0.00    +0.000 A 
ATOM     19  C   UNL     1       3.280   2.967  17.984  0.00  0.00    +0.000 A 
ATOM     20  C   UNL     1       4.397   3.811  17.879  0.00  0.00    +0.000 A 
ATOM     21  C   UNL     1       4.240   5.198  17.786  0.00  0.00    +0.000 A 
BRANCH  19  22
ATOM     22  C   UNL     1       3.443   1.493  18.239  0.00  0.00    +0.000 C 
BRANCH  22  23
ATOM     23  N   UNL     1       4.458   1.218  19.246  0.00  0.00    +0.000 NA
ATOM     24  H   UNL     1       4.308   0.278  19.608  0.00  0.00    +0.000 HD
ATOM     25  H   UNL     1       4.319   1.852  20.030  0.00  0.00    +0.000 HD
ENDBRANCH  22  23
ENDBRANCH  19  22
ENDBRANCH   6  16
BRANCH   7  26
ATOM     26  O   UNL     1       1.779   9.687  17.563  0.00  0.00    +0.000 OA
ATOM     27  H   UNL     1       2.156   9.011  16.972  0.00  0.00    +0.000 HD
ENDBRANCH   7  26
TORSDOF 5
ENDMDL
MODEL 7
REMARK VINA RESULT:      -6.9      1.997      8.553
REMARK  Name = 
REMARK  6 active torsions:
REMARK  status: ('A' for Active; 'I' for Inactive)
REMARK    1  A    between atoms: C_1  and  C_2
REMARK    2  A    between atoms: C_5  and  C_6
REMARK    3  A    between atoms: N_11  and  C_12
REMARK    4  A    between atoms: C_15  and  C_16
REMARK    5  A    between atoms: C_16  and  N_17
REMARK    6  A    between atoms: C_20  and  O_21
REMARK                            x       y       z     vdW  Elec       q    Type
REMARK                         _______ _______ _______ _____ _____    ______ ____
ROOT
ATOM      1  C   UNL     1       2.269   7.072  18.834  0.00  0.00    +0.000 A 
ATOM      2  N   UNL     1       2.135   7.936  17.796  0.00  0.00    +0.000 NA
ATOM      3  C   UNL     1       1.684   9.162  18.088  0.00  0.00    +0.000 A 
ATOM      4  N   UNL     1       1.347   9.609  19.302  0.00  0.00    +0.000 NA
ATOM      5  C   UNL     1       1.480   8.746  20.324  0.00  0.00    +0.000 A 
ATOM      6  N   UNL     1       1.110   9.134  21.648  0.00  0.00    +0.000 N 
ATOM      7  C   UNL     1       1.947   7.453  20.135  0.00  0.00    +0.000 A 
ATOM      8  H   UNL     1       1.942   9.120  22.234  0.00  0.00    +0.000 HD
ENDROOT
BRANCH   1  13
ATOM      9  C   UNL     1       3.783   1.570  17.753  0.00  0.00    +0.000 C 
ATOM     10  C   UNL     1       3.409   3.006  17.960  0.00  0.00    +0.000 A 
ATOM     11  C   UNL     1       4.371   3.944  18.335  0.00  0.00    +0.000 A 
ATOM     12  C   UNL     1       4.010   5.273  18.570  0.00  0.00    +0.000 A 
ATOM     13  C   UNL     1       2.676   5.701  18.468  0.00  0.00    +0.000 A 
ATOM     14  C   UNL     1       1.727   4.755  18.040  0.00  0.00    +0.000 A 
ATOM     15  C   UNL     1       2.086   3.425  17.792  0.00  0.00    +0.000 A 
ENDBRANCH   1  13
BRANCH   6  16
ATOM     16  C   UNL     1       0.296  10.262  21.902  0.00  0.00    +0.000 A 
ATOM     17  C   UNL     1       0.563  11.481  21.263  0.00  0.00    +0.000 A 
ATOM     18  C   UNL     1      -0.135  12.636  21.602  0.00  0.00    +0.000 A 
ATOM     19  C   UNL     1      -1.135  12.593  22.577  0.00  0.00    +0.000 A 
ATOM     20  C   UNL     1      -1.469  11.355  23.150  0.00  0.00    +0.000 A 
ATOM     21  C   UNL     1      -0.765  10.196  22.808  0.00  0.00    +0.000 A 
BRANCH  19  22
ATOM     22  C   UNL     1      -1.782  13.866  23.052  0.00  0.00    +0.000 C 
BRANCH  22  23
ATOM     23  N   UNL     1      -0.920  14.621  23.950  0.00  0.00    +0.000 NA
ATOM     24  H   UNL     1      -0.025  14.772  23.488  0.00  0.00    +0.000 HD
ATOM     25  H   UNL     1      -0.726  14.050  24.770  0.00  0.00    +0.000 HD
ENDBRANCH  22  23
ENDBRANCH  19  22
ENDBRANCH   6  16
BRANCH   7  26
ATOM     26  O   UNL     1       1.982   6.584  21.194  0.00  0.00    +0.000 OA
ATOM     27  H   UNL     1       1.817   7.123  21.988  0.00  0.00    +0.000 HD
ENDBRANCH   7  26
TORSDOF 5
ENDMDL
MODEL 8
REMARK VINA RESULT:      -6.9      2.658      3.371
REMARK  Name = 
REMARK  6 active torsions:
REMARK  status: ('A' for Active; 'I' for Inactive)
REMARK    1  A    between atoms: C_1  and  C_2
REMARK    2  A    between atoms: C_5  and  C_6
REMARK    3  A    between atoms: N_11  and  C_12
REMARK    4  A    between atoms: C_15  and  C_16
REMARK    5  A    between atoms: C_16  and  N_17
REMARK    6  A    between atoms: C_20  and  O_21
REMARK                            x       y       z     vdW  Elec       q    Type
REMARK                         _______ _______ _______ _____ _____    ______ ____
ROOT
ATOM      1  C   UNL     1       1.168  10.439  19.752  0.00  0.00    +0.000 A 
ATOM      2  N   UNL     1       0.842   9.921  20.963  0.00  0.00    +0.000 NA
ATOM      3  C   UNL     1       1.160   8.639  21.174  0.00  0.00    +0.000 A 
ATOM      4  N   UNL     1       1.760   7.822  20.303  0.00  0.00    +0.000 NA
ATOM      5  C   UNL     1       2.077   8.342  19.104  0.00  0.00    +0.000 A 
ATOM      6  N   UNL     1       2.690   7.528  18.103  0.00  0.00    +0.000 N 
ATOM      7  C   UNL     1       1.800   9.664  18.783  0.00  0.00    +0.000 A 
ATOM      8  H   UNL     1       3.616   7.898  17.908  0.00  0.00    +0.000 HD
ENDROOT
BRANCH   1  13
ATOM      9  C   UNL     1      -0.394  15.890  18.492  0.00  0.00    +0.000 C 
ATOM     10  C   UNL     1      -0.035  14.488  18.879  0.00  0.00    +0.000 A 
ATOM     11  C   UNL     1       1.049  14.239  19.722  0.00  0.00    +0.000 A 
ATOM     12  C   UNL     1       1.408  12.928  20.045  0.00  0.00    +0.000 A 
ATOM     13  C   UNL     1       0.718  11.826  19.515  0.00  0.00    +0.000 A 
ATOM     14  C   UNL     1      -0.402  12.094  18.707  0.00  0.00    +0.000 A 
ATOM     15  C   UNL     1      -0.773  13.406  18.391  0.00  0.00    +0.000 A 
ENDBRANCH   1  13
BRANCH   6  16
ATOM     16  C   UNL     1       2.682   6.116  18.174  0.00  0.00    +0.000 A 
ATOM     17  C   UNL     1       3.836   5.425  18.570  0.00  0.00    +0.000 A 
ATOM     18  C   UNL     1       3.895   4.035  18.513  0.00  0.00    +0.000 A 
ATOM     19  C   UNL     1       2.788   3.302  18.078  0.00  0.00    +0.000 A 
ATOM     20  C   UNL     1       1.600   3.986  17.772  0.00  0.00    +0.000 A 
ATOM     21  C   UNL     1       1.544   5.382  17.830  0.00  0.00    +0.000 A 
BRANCH  19  22
ATOM     22  C   UNL     1       2.901   1.815  17.870  0.00  0.00    +0.000 C 
BRANCH  22  23
ATOM     23  N   UNL     1       4.156   1.281  18.380  0.00  0.00    +0.000 NA
ATOM     24  H   UNL     1       4.040   1.071  19.369  0.00  0.00    +0.000 HD
ATOM     25  H   UNL     1       4.865   2.010  18.323  0.00  0.00    +0.000 HD
ENDBRANCH  22  23
ENDBRANCH  19  22
ENDBRANCH   6  16
BRANCH   7  26
ATOM     26  O   UNL     1       2.063  10.123  17.519  0.00  0.00    +0.000 OA
ATOM     27  H   UNL     1       1.917   9.366  16.923  0.00  0.00    +0.000 HD
ENDBRANCH   7  26
TORSDOF 5
ENDMDL
MODEL 9
REMARK VINA RESULT:      -6.8      2.242      8.697
REMARK  Name = 
REMARK  6 active torsions:
REMARK  status: ('A' for Active; 'I' for Inactive)
REMARK    1  A    between atoms: C_1  and  C_2
REMARK    2  A    between atoms: C_5  and  C_6
REMARK    3  A    between atoms: N_11  and  C_12
REMARK    4  A    between atoms: C_15  and  C_16
REMARK    5  A    between atoms: C_16  and  N_17
REMARK    6  A    between atoms: C_20  and  O_21
REMARK                            x       y       z     vdW  Elec       q    Type
REMARK                         _______ _______ _______ _____ _____    ______ ____
ROOT
ATOM      1  C   UNL     1       2.472   7.313  18.848  0.00  0.00    +0.000 A 
ATOM      2  N   UNL     1       2.248   6.881  20.114  0.00  0.00    +0.000 NA
ATOM      3  C   UNL     1       1.511   7.675  20.900  0.00  0.00    +0.000 A 
ATOM      4  N   UNL     1       0.984   8.854  20.556  0.00  0.00    +0.000 NA
ATOM      5  C   UNL     1       1.213   9.277  19.300  0.00  0.00    +0.000 A 
ATOM      6  N   UNL     1       0.713  10.541  18.861  0.00  0.00    +0.000 N 
ATOM      7  C   UNL     1       1.957   8.527  18.399  0.00  0.00    +0.000 A 
ATOM      8  H   UNL     1       0.044  10.382  18.112  0.00  0.00    +0.000 HD
ENDROOT
BRANCH   1  13
ATOM      9  C   UNL     1       5.782   4.067  15.350  0.00  0.00    +0.000 C 
ATOM     10  C   UNL     1       4.973   4.884  16.310  0.00  0.00    +0.000 A 
ATOM     11  C   UNL     1       3.911   4.312  17.012  0.00  0.00    +0.000 A 
ATOM     12  C   UNL     1       3.132   5.088  17.872  0.00  0.00    +0.000 A 
ATOM     13  C   UNL     1       3.366   6.463  18.037  0.00  0.00    +0.000 A 
ATOM     14  C   UNL     1       4.471   7.013  17.362  0.00  0.00    +0.000 A 
ATOM     15  C   UNL     1       5.262   6.237  16.508  0.00  0.00    +0.000 A 
ENDBRANCH   1  13
BRANCH   6  16
ATOM     16  C   UNL     1       0.274  11.532  19.770  0.00  0.00    +0.000 A 
ATOM     17  C   UNL     1       1.187  12.452  20.303  0.00  0.00    +0.000 A 
ATOM     18  C   UNL     1       0.806  13.344  21.302  0.00  0.00    +0.000 A 
ATOM     19  C   UNL     1      -0.508  13.350  21.775  0.00  0.00    +0.000 A 
ATOM     20  C   UNL     1      -1.447  12.495  21.176  0.00  0.00    +0.000 A 
ATOM     21  C   UNL     1      -1.062  11.599  20.173  0.00  0.00    +0.000 A 
BRANCH  19  22
ATOM     22  C   UNL     1      -0.881  14.204  22.957  0.00  0.00    +0.000 C 
BRANCH  22  23
ATOM     23  N   UNL     1       0.118  15.225  23.236  0.00  0.00    +0.000 NA
ATOM     24  H   UNL     1       0.942  15.035  22.669  0.00  0.00    +0.000 HD
ATOM     25  H   UNL     1       0.412  15.135  24.207  0.00  0.00    +0.000 HD
ENDBRANCH  22  23
ENDBRANCH  19  22
ENDBRANCH   6  16
BRANCH   7  26
ATOM     26  O   UNL     1       2.236   9.040  17.159  0.00  0.00    +0.000 OA
ATOM     27  H   UNL     1       1.377   9.288  16.772  0.00  0.00    +0.000 HD
ENDBRANCH   7  26
TORSDOF 5
ENDMDL
