MODEL 1
REMARK VINA RESULT:      -7.5      0.000      0.000
REMARK  Name = 
REMARK  3 active torsions:
REMARK  status: ('A' for Active; 'I' for Inactive)
REMARK    1  A    between atoms: C_1  and  O_2
REMARK    2  A    between atoms: O_2  and  C_3
REMARK    3  A    between atoms: C_10  and  C_12
REMARK                            x       y       z     vdW  Elec       q    Type
REMARK                         _______ _______ _______ _____ _____    ______ ____
ROOT
ATOM      1  C   UNL     1       1.749   6.053  20.420  0.00  0.00    +0.000 A 
ATOM      2  C   UNL     1       0.841   4.995  20.466  0.00  0.00    +0.000 A 
ATOM      3  C   UNL     1       0.968   3.919  19.595  0.00  0.00    +0.000 A 
ATOM      4  C   UNL     1       2.026   3.872  18.676  0.00  0.00    +0.000 A 
ATOM      5  C   UNL     1       2.934   4.949  18.610  0.00  0.00    +0.000 A 
ATOM      6  C   UNL     1       2.777   6.045  19.471  0.00  0.00    +0.000 A 
ATOM      7  N   UNL     1       4.099   4.831  17.792  0.00  0.00    +0.000 N 
ATOM      8  C   UNL     1       4.488   5.864  16.905  0.00  0.00    +0.000 C 
ATOM      9  O   UNL     1       3.890   6.943  16.833  0.00  0.00    +0.000 OA
ATOM     10  C   UNL     1       5.015   3.760  18.229  0.00  0.00    +0.000 C 
ATOM     11  C   UNL     1       4.679   2.373  17.682  0.00  0.00    +0.000 C 
ATOM     12  C   UNL     1       3.363   1.811  18.213  0.00  0.00    +0.000 C 
ATOM     13  C   UNL     1       2.165   2.657  17.793  0.00  0.00    +0.000 C 
ENDROOT
BRANCH   8  14
ATOM     14  C   UNL     1       5.656   5.617  16.009  0.00  0.00    +0.000 A 
ATOM     15  N   UNL     1       6.897   6.127  16.241  0.00  0.00    +0.000 NA
ATOM     16  N   UNL     1       7.665   5.706  15.209  0.00  0.00    +0.000 N 
ATOM     17  C   UNL     1       6.965   4.937  14.359  0.00  0.00    +0.000 A 
ATOM     18  C   UNL     1       5.700   4.825  14.843  0.00  0.00    +0.000 A 
ATOM     19  C   UNL     1       4.864   3.979  13.975  0.00  0.00    +0.000 C 
ATOM     20  C   UNL     1       5.857   3.593  12.809  0.00  0.00    +0.000 C 
ATOM     21  C   UNL     1       7.253   4.245  13.102  0.00  0.00    +0.000 C 
ATOM     22  H   UNL     1       8.634   5.999  15.174  0.00  0.00    +0.000 HD
ENDBRANCH   8  14
BRANCH   1  24
ATOM     23  C   UNL     1       1.429   8.351  20.934  0.00  0.00    +0.000 C 
ATOM     24  O   UNL     1       1.535   7.007  21.379  0.00  0.00    +0.000 OA
ENDBRANCH   1  24
TORSDOF 2
ENDMDL
MODEL 2
REMARK VINA RESULT:      -6.7      2.243      6.820
REMARK  Name = 
REMARK  3 active torsions:
REMARK  status: ('A' for Active; 'I' for Inactive)
REMARK    1  A    between atoms: C_1  and  O_2
REMARK    2  A    between atoms: O_2  and  C_3
REMARK    3  A    between atoms: C_10  and  C_12
REMARK                            x       y       z     vdW  Elec       q    Type
REMARK                         _______ _______ _______ _____ _____    ______ ____
ROOT
ATOM      1  C   UNL     1       6.237   4.030  14.189  0.00  0.00    +0.000 A 
ATOM      2  C   UNL     1       7.278   4.946  14.033  0.00  0.00    +0.000 A 
ATOM      3  C   UNL     1       7.557   5.873  15.031  0.00  0.00    +0.000 A 
ATOM      4  C   UNL     1       6.813   5.881  16.218  0.00  0.00    +0.000 A 
ATOM      5  C   UNL     1       5.745   4.973  16.373  0.00  0.00    +0.000 A 
ATOM      6  C   UNL     1       5.451   4.064  15.346  0.00  0.00    +0.000 A 
ATOM      7  N   UNL     1       5.092   4.871  17.639  0.00  0.00    +0.000 N 
ATOM      8  C   UNL     1       3.680   4.870  17.746  0.00  0.00    +0.000 C 
ATOM      9  O   UNL     1       2.936   4.889  16.759  0.00  0.00    +0.000 OA
ATOM     10  C   UNL     1       5.980   4.399  18.720  0.00  0.00    +0.000 C 
ATOM     11  C   UNL     1       6.793   5.498  19.401  0.00  0.00    +0.000 C 
ATOM     12  C   UNL     1       7.832   6.143  18.486  0.00  0.00    +0.000 C 
ATOM     13  C   UNL     1       7.189   6.859  17.302  0.00  0.00    +0.000 C 
ENDROOT
BRANCH   8  14
ATOM     14  C   UNL     1       3.079   4.869  19.112  0.00  0.00    +0.000 A 
ATOM     15  N   UNL     1       2.891   6.001  19.847  0.00  0.00    +0.000 NA
ATOM     16  N   UNL     1       2.353   5.591  21.018  0.00  0.00    +0.000 N 
ATOM     17  C   UNL     1       2.175   4.260  21.038  0.00  0.00    +0.000 A 
ATOM     18  C   UNL     1       2.587   3.767  19.840  0.00  0.00    +0.000 A 
ATOM     19  C   UNL     1       2.409   2.307  19.769  0.00  0.00    +0.000 C 
ATOM     20  C   UNL     1       1.820   1.960  21.193  0.00  0.00    +0.000 C 
ATOM     21  C   UNL     1       1.671   3.291  22.012  0.00  0.00    +0.000 C 
ATOM     22  H   UNL     1       2.155   6.284  21.731  0.00  0.00    +0.000 HD
ENDBRANCH   8  14
BRANCH   1  24
ATOM     23  C   UNL     1       5.104   3.395  12.199  0.00  0.00    +0.000 C 
ATOM     24  O   UNL     1       6.123   3.141  13.155  0.00  0.00    +0.000 OA
ENDBRANCH   1  24
TORSDOF 2
ENDMDL
MODEL 3
REMARK VINA RESULT:      -6.2      2.506      6.892
REMARK  Name = 
REMARK  3 active torsions:
REMARK  status: ('A' for Active; 'I' for Inactive)
REMARK    1  A    between atoms: C_1  and  O_2
REMARK    2  A    between atoms: O_2  and  C_3
REMARK    3  A    between atoms: C_10  and  C_12
REMARK                            x       y       z     vdW  Elec       q    Type
REMARK                         _______ _______ _______ _____ _____    ______ ____
ROOT
ATOM      1  C   UNL     1       5.768   5.509  15.801  0.00  0.00    +0.000 A 
ATOM      2  C   UNL     1       6.368   4.573  16.645  0.00  0.00    +0.000 A 
ATOM      3  C   UNL     1       5.928   4.421  17.955  0.00  0.00    +0.000 A 
ATOM      4  C   UNL     1       4.858   5.188  18.436  0.00  0.00    +0.000 A 
ATOM      5  C   UNL     1       4.262   6.150  17.596  0.00  0.00    +0.000 A 
ATOM      6  C   UNL     1       4.736   6.320  16.286  0.00  0.00    +0.000 A 
ATOM      7  N   UNL     1       3.074   6.816  18.028  0.00  0.00    +0.000 N 
ATOM      8  C   UNL     1       2.933   8.222  17.924  0.00  0.00    +0.000 C 
ATOM      9  O   UNL     1       3.790   8.941  17.398  0.00  0.00    +0.000 OA
ATOM     10  C   UNL     1       1.928   5.905  18.215  0.00  0.00    +0.000 C 
ATOM     11  C   UNL     1       1.866   5.234  19.587  0.00  0.00    +0.000 C 
ATOM     12  C   UNL     1       3.010   4.254  19.837  0.00  0.00    +0.000 C 
ATOM     13  C   UNL     1       4.369   4.946  19.843  0.00  0.00    +0.000 C 
ENDROOT
BRANCH   8  14
ATOM     14  C   UNL     1       1.707   8.848  18.496  0.00  0.00    +0.000 A 
ATOM     15  N   UNL     1       0.775   9.495  17.742  0.00  0.00    +0.000 NA
ATOM     16  N   UNL     1      -0.160   9.938  18.613  0.00  0.00    +0.000 N 
ATOM     17  C   UNL     1       0.134   9.577  19.873  0.00  0.00    +0.000 A 
ATOM     18  C   UNL     1       1.287   8.856  19.842  0.00  0.00    +0.000 A 
ATOM     19  C   UNL     1       1.674   8.403  21.188  0.00  0.00    +0.000 C 
ATOM     20  C   UNL     1       0.537   9.013  22.100  0.00  0.00    +0.000 C 
ATOM     21  C   UNL     1      -0.478   9.785  21.186  0.00  0.00    +0.000 C 
ATOM     22  H   UNL     1      -0.941  10.475  18.256  0.00  0.00    +0.000 HD
ENDBRANCH   8  14
BRANCH   1  24
ATOM     23  C   UNL     1       6.550   4.230  13.957  0.00  0.00    +0.000 C 
ATOM     24  O   UNL     1       6.263   5.500  14.525  0.00  0.00    +0.000 OA
ENDBRANCH   1  24
TORSDOF 2
ENDMDL
MODEL 4
REMARK VINA RESULT:      -5.9      2.209      6.945
REMARK  Name = 
REMARK  3 active torsions:
REMARK  status: ('A' for Active; 'I' for Inactive)
REMARK    1  A    between atoms: C_1  and  O_2
REMARK    2  A    between atoms: O_2  and  C_3
REMARK    3  A    between atoms: C_10  and  C_12
REMARK                            x       y       z     vdW  Elec       q    Type
REMARK                         _______ _______ _______ _____ _____    ______ ____
ROOT
ATOM      1  C   UNL     1       5.864   4.107  14.427  0.00  0.00    +0.000 A 
ATOM      2  C   UNL     1       7.144   4.651  14.313  0.00  0.00    +0.000 A 
ATOM      3  C   UNL     1       7.646   5.486  15.305  0.00  0.00    +0.000 A 
ATOM      4  C   UNL     1       6.881   5.772  16.444  0.00  0.00    +0.000 A 
ATOM      5  C   UNL     1       5.578   5.245  16.554  0.00  0.00    +0.000 A 
ATOM      6  C   UNL     1       5.069   4.430  15.533  0.00  0.00    +0.000 A 
ATOM      7  N   UNL     1       4.862   5.402  17.780  0.00  0.00    +0.000 N 
ATOM      8  C   UNL     1       3.516   5.841  17.801  0.00  0.00    +0.000 C 
ATOM      9  O   UNL     1       2.866   6.048  16.770  0.00  0.00    +0.000 OA
ATOM     10  C   UNL     1       5.503   4.723  18.924  0.00  0.00    +0.000 C 
ATOM     11  C   UNL     1       6.582   5.545  19.628  0.00  0.00    +0.000 C 
ATOM     12  C   UNL     1       7.814   5.800  18.763  0.00  0.00    +0.000 C 
ATOM     13  C   UNL     1       7.487   6.631  17.526  0.00  0.00    +0.000 C 
ENDROOT
BRANCH   8  14
ATOM     14  C   UNL     1       2.876   6.082  19.127  0.00  0.00    +0.000 A 
ATOM     15  N   UNL     1       2.881   5.168  20.137  0.00  0.00    +0.000 NA
ATOM     16  N   UNL     1       2.190   5.738  21.150  0.00  0.00    +0.000 N 
ATOM     17  C   UNL     1       1.776   6.973  20.828  0.00  0.00    +0.000 A 
ATOM     18  C   UNL     1       2.217   7.246  19.571  0.00  0.00    +0.000 A 
ATOM     19  C   UNL     1       1.818   8.597  19.142  0.00  0.00    +0.000 C 
ATOM     20  C   UNL     1       0.998   9.127  20.384  0.00  0.00    +0.000 C 
ATOM     21  C   UNL     1       0.997   8.018  21.494  0.00  0.00    +0.000 C 
ATOM     22  H   UNL     1       2.052   5.207  22.003  0.00  0.00    +0.000 HD
ENDBRANCH   8  14
BRANCH   1  24
ATOM     23  C   UNL     1       6.255   3.396  12.194  0.00  0.00    +0.000 C 
ATOM     24  O   UNL     1       5.533   3.255  13.408  0.00  0.00    +0.000 OA
ENDBRANCH   1  24
TORSDOF 2
ENDMDL
MODEL 5
REMARK VINA RESULT:      -5.8      4.941      8.398
REMARK  Name = 
REMARK  3 active torsions:
REMARK  status: ('A' for Active; 'I' for Inactive)
REMARK    1  A    between atoms: C_1  and  O_2
REMARK    2  A    between atoms: O_2  and  C_3
REMARK    3  A    between atoms: C_10  and  C_12
REMARK                            x       y       z     vdW  Elec       q    Type
REMARK                         _______ _______ _______ _____ _____    ______ ____
ROOT
ATOM      1  C   UNL     1      -2.134  13.204  22.565  0.00  0.00    +0.000 A 
ATOM      2  C   UNL     1      -2.336  14.199  21.607  0.00  0.00    +0.000 A 
ATOM      3  C   UNL     1      -1.858  14.037  20.311  0.00  0.00    +0.000 A 
ATOM      4  C   UNL     1      -1.190  12.862  19.944  0.00  0.00    +0.000 A 
ATOM      5  C   UNL     1      -0.962  11.863  20.913  0.00  0.00    +0.000 A 
ATOM      6  C   UNL     1      -1.419  12.050  22.226  0.00  0.00    +0.000 A 
ATOM      7  N   UNL     1      -0.427  10.602  20.505  0.00  0.00    +0.000 N 
ATOM      8  C   UNL     1       0.647   9.994  21.200  0.00  0.00    +0.000 C 
ATOM      9  O   UNL     1       1.136  10.477  22.227  0.00  0.00    +0.000 OA
ATOM     10  C   UNL     1      -1.312   9.861  19.585  0.00  0.00    +0.000 C 
ATOM     11  C   UNL     1      -1.152  10.231  18.112  0.00  0.00    +0.000 C 
ATOM     12  C   UNL     1      -1.594  11.657  17.791  0.00  0.00    +0.000 C 
ATOM     13  C   UNL     1      -0.744  12.699  18.512  0.00  0.00    +0.000 C 
ENDROOT
BRANCH   8  14
ATOM     14  C   UNL     1       1.216   8.732  20.645  0.00  0.00    +0.000 A 
ATOM     15  N   UNL     1       1.193   7.544  21.312  0.00  0.00    +0.000 NA
ATOM     16  N   UNL     1       1.817   6.657  20.503  0.00  0.00    +0.000 N 
ATOM     17  C   UNL     1       2.206   7.231  19.354  0.00  0.00    +0.000 A 
ATOM     18  C   UNL     1       1.816   8.534  19.385  0.00  0.00    +0.000 A 
ATOM     19  C   UNL     1       2.191   9.237  18.147  0.00  0.00    +0.000 C 
ATOM     20  C   UNL     1       2.935   8.114  17.321  0.00  0.00    +0.000 C 
ATOM     21  C   UNL     1       2.920   6.786  18.156  0.00  0.00    +0.000 C 
ATOM     22  H   UNL     1       1.932   5.703  20.826  0.00  0.00    +0.000 HD
ENDBRANCH   8  14
BRANCH   1  24
ATOM     23  C   UNL     1      -4.026  12.971  23.983  0.00  0.00    +0.000 C 
ATOM     24  O   UNL     1      -2.715  13.475  23.774  0.00  0.00    +0.000 OA
ENDBRANCH   1  24
TORSDOF 2
ENDMDL
MODEL 6
REMARK VINA RESULT:      -5.8      4.690      8.054
REMARK  Name = 
REMARK  3 active torsions:
REMARK  status: ('A' for Active; 'I' for Inactive)
REMARK    1  A    between atoms: C_1  and  O_2
REMARK    2  A    between atoms: O_2  and  C_3
REMARK    3  A    between atoms: C_10  and  C_12
REMARK                            x       y       z     vdW  Elec       q    Type
REMARK                         _______ _______ _______ _____ _____    ______ ____
ROOT
ATOM      1  C   UNL     1      -2.303  12.154  22.540  0.00  0.00    +0.000 A 
ATOM      2  C   UNL     1      -2.828  13.234  21.828  0.00  0.00    +0.000 A 
ATOM      3  C   UNL     1      -2.502  13.420  20.489  0.00  0.00    +0.000 A 
ATOM      4  C   UNL     1      -1.662  12.511  19.831  0.00  0.00    +0.000 A 
ATOM      5  C   UNL     1      -1.111  11.431  20.551  0.00  0.00    +0.000 A 
ATOM      6  C   UNL     1      -1.420  11.271  21.910  0.00  0.00    +0.000 A 
ATOM      7  N   UNL     1      -0.389  10.418  19.848  0.00  0.00    +0.000 N 
ATOM      8  C   UNL     1       0.868   9.953  20.305  0.00  0.00    +0.000 C 
ATOM      9  O   UNL     1       1.380  10.340  21.361  0.00  0.00    +0.000 OA
ATOM     10  C   UNL     1      -1.218   9.675  18.879  0.00  0.00    +0.000 C 
ATOM     11  C   UNL     1      -1.332  10.331  17.504  0.00  0.00    +0.000 C 
ATOM     12  C   UNL     1      -2.093  11.655  17.522  0.00  0.00    +0.000 C 
ATOM     13  C   UNL     1      -1.385  12.713  18.362  0.00  0.00    +0.000 C 
ENDROOT
BRANCH   8  14
ATOM     14  C   UNL     1       1.604   8.972  19.455  0.00  0.00    +0.000 A 
ATOM     15  N   UNL     1       2.148   9.289  18.247  0.00  0.00    +0.000 NA
ATOM     16  N   UNL     1       2.701   8.146  17.783  0.00  0.00    +0.000 N 
ATOM     17  C   UNL     1       2.549   7.137  18.656  0.00  0.00    +0.000 A 
ATOM     18  C   UNL     1       1.892   7.623  19.743  0.00  0.00    +0.000 A 
ATOM     19  C   UNL     1       1.697   6.580  20.764  0.00  0.00    +0.000 C 
ATOM     20  C   UNL     1       2.344   5.307  20.087  0.00  0.00    +0.000 C 
ATOM     21  C   UNL     1       2.909   5.719  18.683  0.00  0.00    +0.000 C 
ATOM     22  H   UNL     1       3.144   8.155  16.871  0.00  0.00    +0.000 HD
ENDBRANCH   8  14
BRANCH   1  24
ATOM     23  C   UNL     1      -3.972  12.747  24.124  0.00  0.00    +0.000 C 
ATOM     24  O   UNL     1      -2.763  12.065  23.826  0.00  0.00    +0.000 OA
ENDBRANCH   1  24
TORSDOF 2
ENDMDL
MODEL 7
REMARK VINA RESULT:      -5.8      3.679      7.299
REMARK  Name = 
REMARK  3 active torsions:
REMARK  status: ('A' for Active; 'I' for Inactive)
REMARK    1  A    between atoms: C_1  and  O_2
REMARK    2  A    between atoms: O_2  and  C_3
REMARK    3  A    between atoms: C_10  and  C_12
REMARK                            x       y       z     vdW  Elec       q    Type
REMARK                         _______ _______ _______ _____ _____    ______ ____
ROOT
ATOM      1  C   UNL     1      -1.218  11.485  22.646  0.00  0.00    +0.000 A 
ATOM      2  C   UNL     1      -0.782  12.800  22.479  0.00  0.00    +0.000 A 
ATOM      3  C   UNL     1       0.259  13.092  21.605  0.00  0.00    +0.000 A 
ATOM      4  C   UNL     1       0.867  12.071  20.862  0.00  0.00    +0.000 A 
ATOM      5  C   UNL     1       0.446  10.738  21.042  0.00  0.00    +0.000 A 
ATOM      6  C   UNL     1      -0.583  10.450  21.952  0.00  0.00    +0.000 A 
ATOM      7  N   UNL     1       0.950   9.722  20.174  0.00  0.00    +0.000 N 
ATOM      8  C   UNL     1       1.441   8.492  20.677  0.00  0.00    +0.000 C 
ATOM      9  O   UNL     1       1.402   8.200  21.878  0.00  0.00    +0.000 OA
ATOM     10  C   UNL     1       0.564   9.915  18.762  0.00  0.00    +0.000 C 
ATOM     11  C   UNL     1       1.491  10.836  17.970  0.00  0.00    +0.000 C 
ATOM     12  C   UNL     1       1.455  12.288  18.442  0.00  0.00    +0.000 C 
ATOM     13  C   UNL     1       1.949  12.439  19.877  0.00  0.00    +0.000 C 
ENDROOT
BRANCH   8  14
ATOM     14  C   UNL     1       2.047   7.530  19.712  0.00  0.00    +0.000 A 
ATOM     15  N   UNL     1       2.730   7.918  18.598  0.00  0.00    +0.000 NA
ATOM     16  N   UNL     1       3.098   6.774  17.978  0.00  0.00    +0.000 N 
ATOM     17  C   UNL     1       2.698   5.692  18.665  0.00  0.00    +0.000 A 
ATOM     18  C   UNL     1       2.061   6.123  19.786  0.00  0.00    +0.000 A 
ATOM     19  C   UNL     1       1.603   4.993  20.612  0.00  0.00    +0.000 C 
ATOM     20  C   UNL     1       2.055   3.739  19.765  0.00  0.00    +0.000 C 
ATOM     21  C   UNL     1       2.790   4.244  18.475  0.00  0.00    +0.000 C 
ATOM     22  H   UNL     1       3.603   6.838  17.101  0.00  0.00    +0.000 HD
ENDBRANCH   8  14
BRANCH   1  24
ATOM     23  C   UNL     1      -3.194  12.454  23.541  0.00  0.00    +0.000 C 
ATOM     24  O   UNL     1      -2.290  11.360  23.488  0.00  0.00    +0.000 OA
ENDBRANCH   1  24
TORSDOF 2
ENDMDL
MODEL 8
REMARK VINA RESULT:      -5.8      8.520     12.298
REMARK  Name = 
REMARK  3 active torsions:
REMARK  status: ('A' for Active; 'I' for Inactive)
REMARK    1  A    between atoms: C_1  and  O_2
REMARK    2  A    between atoms: O_2  and  C_3
REMARK    3  A    between atoms: C_10  and  C_12
REMARK                            x       y       z     vdW  Elec       q    Type
REMARK                         _______ _______ _______ _____ _____    ______ ____
ROOT
ATOM      1  C   UNL     1      -2.311  11.288  17.811  0.00  0.00    +0.000 A 
ATOM      2  C   UNL     1      -1.380  10.252  17.723  0.00  0.00    +0.000 A 
ATOM      3  C   UNL     1      -0.481  10.022  18.757  0.00  0.00    +0.000 A 
ATOM      4  C   UNL     1      -0.515  10.813  19.914  0.00  0.00    +0.000 A 
ATOM      5  C   UNL     1      -1.438  11.875  20.001  0.00  0.00    +0.000 A 
ATOM      6  C   UNL     1      -2.319  12.120  18.937  0.00  0.00    +0.000 A 
ATOM      7  N   UNL     1      -1.583  12.577  21.237  0.00  0.00    +0.000 N 
ATOM      8  C   UNL     1      -1.601  13.992  21.288  0.00  0.00    +0.000 C 
ATOM      9  O   UNL     1      -1.560  14.697  20.274  0.00  0.00    +0.000 OA
ATOM     10  C   UNL     1      -2.078  11.726  22.337  0.00  0.00    +0.000 C 
ATOM     11  C   UNL     1      -0.991  10.952  23.081  0.00  0.00    +0.000 C 
ATOM     12  C   UNL     1      -0.310   9.886  22.227  0.00  0.00    +0.000 C 
ATOM     13  C   UNL     1       0.435  10.490  21.040  0.00  0.00    +0.000 C 
ENDROOT
BRANCH   8  14
ATOM     14  C   UNL     1      -1.648  14.645  22.628  0.00  0.00    +0.000 A 
ATOM     15  N   UNL     1      -0.564  14.751  23.447  0.00  0.00    +0.000 NA
ATOM     16  N   UNL     1      -1.008  15.374  24.563  0.00  0.00    +0.000 N 
ATOM     17  C   UNL     1      -2.311  15.683  24.467  0.00  0.00    +0.000 A 
ATOM     18  C   UNL     1      -2.748  15.273  23.247  0.00  0.00    +0.000 A 
ATOM     19  C   UNL     1      -4.172  15.591  23.050  0.00  0.00    +0.000 C 
ATOM     20  C   UNL     1      -4.568  16.269  24.421  0.00  0.00    +0.000 C 
ATOM     21  C   UNL     1      -3.298  16.320  25.340  0.00  0.00    +0.000 C 
ATOM     22  H   UNL     1      -0.356  15.532  25.323  0.00  0.00    +0.000 HD
ENDBRANCH   8  14
BRANCH   1  24
ATOM     23  C   UNL     1      -2.785  10.659  15.569  0.00  0.00    +0.000 C 
ATOM     24  O   UNL     1      -3.170  11.352  16.748  0.00  0.00    +0.000 OA
ENDBRANCH   1  24
TORSDOF 2
ENDMDL
MODEL 9
REMARK VINA RESULT:      -5.7      2.286      6.534
REMARK  Name = 
REMARK  3 active torsions:
REMARK  status: ('A' for Active; 'I' for Inactive)
REMARK    1  A    between atoms: C_1  and  O_2
REMARK    2  A    between atoms: O_2  and  C_3
REMARK    3  A    between atoms: C_10  and  C_12
REMARK                            x       y       z     vdW  Elec       q    Type
REMARK                         _______ _______ _______ _____ _____    ______ ____
ROOT
ATOM      1  C   UNL     1       5.646   4.931  15.235  0.00  0.00    +0.000 A 
ATOM      2  C   UNL     1       5.938   3.606  15.560  0.00  0.00    +0.000 A 
ATOM      3  C   UNL     1       5.379   3.016  16.687  0.00  0.00    +0.000 A 
ATOM      4  C   UNL     1       4.493   3.738  17.498  0.00  0.00    +0.000 A 
ATOM      5  C   UNL     1       4.210   5.084  17.188  0.00  0.00    +0.000 A 
ATOM      6  C   UNL     1       4.806   5.680  16.067  0.00  0.00    +0.000 A 
ATOM      7  N   UNL     1       3.189   5.770  17.915  0.00  0.00    +0.000 N 
ATOM      8  C   UNL     1       3.399   7.067  18.442  0.00  0.00    +0.000 C 
ATOM      9  O   UNL     1       4.440   7.705  18.250  0.00  0.00    +0.000 OA
ATOM     10  C   UNL     1       1.846   5.185  17.731  0.00  0.00    +0.000 C 
ATOM     11  C   UNL     1       1.523   4.025  18.672  0.00  0.00    +0.000 C 
ATOM     12  C   UNL     1       2.375   2.783  18.422  0.00  0.00    +0.000 C 
ATOM     13  C   UNL     1       3.857   3.042  18.676  0.00  0.00    +0.000 C 
ENDROOT
BRANCH   8  14
ATOM     14  C   UNL     1       2.320   7.668  19.280  0.00  0.00    +0.000 A 
ATOM     15  N   UNL     1       1.964   7.182  20.502  0.00  0.00    +0.000 NA
ATOM     16  N   UNL     1       0.949   7.969  20.927  0.00  0.00    +0.000 N 
ATOM     17  C   UNL     1       0.673   8.937  20.039  0.00  0.00    +0.000 A 
ATOM     18  C   UNL     1       1.538   8.807  18.998  0.00  0.00    +0.000 A 
ATOM     19  C   UNL     1       1.315   9.846  17.979  0.00  0.00    +0.000 C 
ATOM     20  C   UNL     1       0.098  10.658  18.574  0.00  0.00    +0.000 C 
ATOM     21  C   UNL     1      -0.300  10.027  19.954  0.00  0.00    +0.000 C 
ATOM     22  H   UNL     1       0.514   7.761  21.819  0.00  0.00    +0.000 HD
ENDBRANCH   8  14
BRANCH   1  24
ATOM     23  C   UNL     1       6.722   4.346  13.198  0.00  0.00    +0.000 C 
ATOM     24  O   UNL     1       6.217   5.352  14.065  0.00  0.00    +0.000 OA
ENDBRANCH   1  24
TORSDOF 2
ENDMDL
