MODEL 1
REMARK VINA RESULT:      -7.0      0.000      0.000
REMARK  Name = 
REMARK  10 active torsions:
REMARK  status: ('A' for Active; 'I' for Inactive)
REMARK    1  A    between atoms: C_1  and  O_2
REMARK    2  A    between atoms: O_2  and  C_3
REMARK    3  A    between atoms: C_9  and  C_10
REMARK    4  A    between atoms: C_18  and  S_19
REMARK    5  A    between atoms: S_19  and  N_20
REMARK    6  A    between atoms: N_26  and  C_27
REMARK    7  A    between atoms: C_27  and  C_28
REMARK    8  A    between atoms: C_28  and  C_29
REMARK    9  A    between atoms: C_29  and  C_30
REMARK   10  A    between atoms: C_30  and  O_32
REMARK                            x       y       z     vdW  Elec       q    Type
REMARK                         _______ _______ _______ _____ _____    ______ ____
ROOT
ATOM      1  C   UNL     1      -4.410  11.108  17.976  0.00  0.00    +0.000 A 
ATOM      2  C   UNL     1      -3.722   9.975  17.559  0.00  0.00    +0.000 A 
ATOM      3  C   UNL     1      -2.415   9.741  17.971  0.00  0.00    +0.000 A 
ATOM      4  C   UNL     1      -1.792  10.678  18.808  0.00  0.00    +0.000 A 
ATOM      5  C   UNL     1      -2.442  11.838  19.271  0.00  0.00    +0.000 A 
ATOM      6  C   UNL     1      -3.787  12.055  18.818  0.00  0.00    +0.000 A 
ATOM      7  C   UNL     1      -1.447  12.538  20.076  0.00  0.00    +0.000 A 
ATOM      8  C   UNL     1      -0.319  11.789  20.101  0.00  0.00    +0.000 A 
ATOM      9  N   UNL     1      -0.499  10.715  19.272  0.00  0.00    +0.000 N 
ENDROOT
BRANCH   7  10
ATOM     10  C   UNL     1      -1.512  13.866  20.632  0.00  0.00    +0.000 C 
ATOM     11  C   UNL     1      -2.208  14.208  21.750  0.00  0.00    +0.000 C 
ATOM     12  C   UNL     1      -1.136  14.348  22.837  0.00  0.00    +0.000 C 
ATOM     13  O   UNL     1       0.075  14.267  22.716  0.00  0.00    +0.000 OA
ATOM     14  N   UNL     1      -1.790  14.264  24.046  0.00  0.00    +0.000 N 
ATOM     15  C   UNL     1      -3.051  13.706  23.816  0.00  0.00    +0.000 A 
ATOM     16  C   UNL     1      -3.764  13.052  24.797  0.00  0.00    +0.000 A 
ATOM     17  C   UNL     1      -5.017  12.580  24.466  0.00  0.00    +0.000 A 
ATOM     18  C   UNL     1      -5.586  12.941  23.237  0.00  0.00    +0.000 A 
ATOM     19  C   UNL     1      -4.806  13.559  22.217  0.00  0.00    +0.000 A 
ATOM     20  C   UNL     1      -3.450  13.789  22.481  0.00  0.00    +0.000 A 
ATOM     21  H   UNL     1      -1.881  15.204  24.427  0.00  0.00    +0.000 HD
BRANCH  18  22
ATOM     22  S   UNL     1      -7.360  12.738  23.162  0.00  0.00    +0.000 S 
ATOM     23  O   UNL     1      -7.684  11.484  22.529  0.00  0.00    +0.000 OA
ATOM     24  O   UNL     1      -7.916  13.103  24.449  0.00  0.00    +0.000 OA
BRANCH  22  25
ATOM     25  N   UNL     1      -7.847  13.918  22.080  0.00  0.00    +0.000 NA
ATOM     26  H   UNL     1      -7.465  14.825  22.355  0.00  0.00    +0.000 HD
ATOM     27  H   UNL     1      -7.581  13.645  21.133  0.00  0.00    +0.000 HD
ENDBRANCH  22  25
ENDBRANCH  18  22
ENDBRANCH   7  10
BRANCH   1  29
ATOM     28  C   UNL     1      -6.727  11.505  18.305  0.00  0.00    +0.000 C 
ATOM     29  O   UNL     1      -5.659  11.209  17.419  0.00  0.00    +0.000 OA
ENDBRANCH   1  29
BRANCH   9  30
ATOM     30  C   UNL     1       0.582   9.814  18.936  0.00  0.00    +0.000 C 
BRANCH  30  31
ATOM     31  C   UNL     1       1.403   9.308  20.123  0.00  0.00    +0.000 C 
BRANCH  31  32
ATOM     32  C   UNL     1       0.635   8.475  21.151  0.00  0.00    +0.000 C 
BRANCH  32  33
ATOM     33  C   UNL     1       0.548   9.150  22.497  0.00  0.00    +0.000 C 
ATOM     34  O   UNL     1       1.496   9.581  23.120  0.00  0.00    +0.000 OA
BRANCH  33  35
ATOM     35  O   UNL     1      -0.728   9.278  22.927  0.00  0.00    +0.000 OA
ATOM     36  H   UNL     1      -1.360   8.654  22.524  0.00  0.00    +0.000 HD
ENDBRANCH  33  35
ENDBRANCH  32  33
ENDBRANCH  31  32
ENDBRANCH  30  31
ENDBRANCH   9  30
TORSDOF 9
ENDMDL
MODEL 2
REMARK VINA RESULT:      -6.9      0.798      1.074
REMARK  Name = 
REMARK  10 active torsions:
REMARK  status: ('A' for Active; 'I' for Inactive)
REMARK    1  A    between atoms: C_1  and  O_2
REMARK    2  A    between atoms: O_2  and  C_3
REMARK    3  A    between atoms: C_9  and  C_10
REMARK    4  A    between atoms: C_18  and  S_19
REMARK    5  A    between atoms: S_19  and  N_20
REMARK    6  A    between atoms: N_26  and  C_27
REMARK    7  A    between atoms: C_27  and  C_28
REMARK    8  A    between atoms: C_28  and  C_29
REMARK    9  A    between atoms: C_29  and  C_30
REMARK   10  A    between atoms: C_30  and  O_32
REMARK                            x       y       z     vdW  Elec       q    Type
REMARK                         _______ _______ _______ _____ _____    ______ ____
ROOT
ATOM      1  C   UNL     1      -4.573  11.198  18.054  0.00  0.00    +0.000 A 
ATOM      2  C   UNL     1      -3.948  10.093  17.492  0.00  0.00    +0.000 A 
ATOM      3  C   UNL     1      -2.600   9.840  17.722  0.00  0.00    +0.000 A 
ATOM      4  C   UNL     1      -1.872  10.732  18.523  0.00  0.00    +0.000 A 
ATOM      5  C   UNL     1      -2.455  11.862  19.129  0.00  0.00    +0.000 A 
ATOM      6  C   UNL     1      -3.845  12.099  18.861  0.00  0.00    +0.000 A 
ATOM      7  C   UNL     1      -1.364  12.520  19.838  0.00  0.00    +0.000 A 
ATOM      8  C   UNL     1      -0.244  11.774  19.680  0.00  0.00    +0.000 A 
ATOM      9  N   UNL     1      -0.531  10.747  18.823  0.00  0.00    +0.000 N 
ENDROOT
BRANCH   7  10
ATOM     10  C   UNL     1      -1.353  13.815  20.471  0.00  0.00    +0.000 C 
ATOM     11  C   UNL     1      -2.039  14.134  21.602  0.00  0.00    +0.000 C 
ATOM     12  C   UNL     1      -0.974  14.144  22.704  0.00  0.00    +0.000 C 
ATOM     13  O   UNL     1       0.231  13.995  22.588  0.00  0.00    +0.000 OA
ATOM     14  N   UNL     1      -1.646  14.031  23.901  0.00  0.00    +0.000 N 
ATOM     15  C   UNL     1      -2.936  13.566  23.628  0.00  0.00    +0.000 A 
ATOM     16  C   UNL     1      -3.699  12.902  24.563  0.00  0.00    +0.000 A 
ATOM     17  C   UNL     1      -4.974  12.529  24.195  0.00  0.00    +0.000 A 
ATOM     18  C   UNL     1      -5.507  12.995  22.985  0.00  0.00    +0.000 A 
ATOM     19  C   UNL     1      -4.678  13.622  22.010  0.00  0.00    +0.000 A 
ATOM     20  C   UNL     1      -3.314  13.751  22.297  0.00  0.00    +0.000 A 
ATOM     21  H   UNL     1      -1.683  14.950  24.335  0.00  0.00    +0.000 HD
BRANCH  18  22
ATOM     22  S   UNL     1      -7.289  12.907  22.885  0.00  0.00    +0.000 S 
ATOM     23  O   UNL     1      -7.848  12.775  24.207  0.00  0.00    +0.000 OA
ATOM     24  O   UNL     1      -7.746  13.930  21.967  0.00  0.00    +0.000 OA
BRANCH  22  25
ATOM     25  N   UNL     1      -7.570  11.436  22.137  0.00  0.00    +0.000 NA
ATOM     26  H   UNL     1      -6.735  10.849  22.195  0.00  0.00    +0.000 HD
ATOM     27  H   UNL     1      -8.395  10.996  22.546  0.00  0.00    +0.000 HD
ENDBRANCH  22  25
ENDBRANCH  18  22
ENDBRANCH   7  10
BRANCH   1  29
ATOM     28  C   UNL     1      -6.862  10.839  18.569  0.00  0.00    +0.000 C 
ATOM     29  O   UNL     1      -5.882  11.325  17.666  0.00  0.00    +0.000 OA
ENDBRANCH   1  29
BRANCH   9  30
ATOM     30  C   UNL     1       0.496   9.870  18.304  0.00  0.00    +0.000 C 
BRANCH  30  31
ATOM     31  C   UNL     1       1.622   9.534  19.282  0.00  0.00    +0.000 C 
BRANCH  31  32
ATOM     32  C   UNL     1       1.393   8.301  20.156  0.00  0.00    +0.000 C 
BRANCH  32  33
ATOM     33  C   UNL     1       0.826   8.647  21.510  0.00  0.00    +0.000 C 
ATOM     34  O   UNL     1      -0.353   8.623  21.796  0.00  0.00    +0.000 OA
BRANCH  33  35
ATOM     35  O   UNL     1       1.790   8.944  22.412  0.00  0.00    +0.000 OA
ATOM     36  H   UNL     1       2.588   9.359  22.036  0.00  0.00    +0.000 HD
ENDBRANCH  33  35
ENDBRANCH  32  33
ENDBRANCH  31  32
ENDBRANCH  30  31
ENDBRANCH   9  30
TORSDOF 9
ENDMDL
MODEL 3
REMARK VINA RESULT:      -6.7      4.016      6.121
REMARK  Name = 
REMARK  10 active torsions:
REMARK  status: ('A' for Active; 'I' for Inactive)
REMARK    1  A    between atoms: C_1  and  O_2
REMARK    2  A    between atoms: O_2  and  C_3
REMARK    3  A    between atoms: C_9  and  C_10
REMARK    4  A    between atoms: C_18  and  S_19
REMARK    5  A    between atoms: S_19  and  N_20
REMARK    6  A    between atoms: N_26  and  C_27
REMARK    7  A    between atoms: C_27  and  C_28
REMARK    8  A    between atoms: C_28  and  C_29
REMARK    9  A    between atoms: C_29  and  C_30
REMARK   10  A    between atoms: C_30  and  O_32
REMARK                            x       y       z     vdW  Elec       q    Type
REMARK                         _______ _______ _______ _____ _____    ______ ____
ROOT
ATOM      1  C   UNL     1      -3.465  11.403  17.931  0.00  0.00    +0.000 A 
ATOM      2  C   UNL     1      -2.908  10.544  16.992  0.00  0.00    +0.000 A 
ATOM      3  C   UNL     1      -1.626  10.033  17.163  0.00  0.00    +0.000 A 
ATOM      4  C   UNL     1      -0.893  10.411  18.297  0.00  0.00    +0.000 A 
ATOM      5  C   UNL     1      -1.410  11.268  19.288  0.00  0.00    +0.000 A 
ATOM      6  C   UNL     1      -2.731  11.787  19.075  0.00  0.00    +0.000 A 
ATOM      7  C   UNL     1      -0.332  11.421  20.259  0.00  0.00    +0.000 A 
ATOM      8  C   UNL     1       0.710  10.654  19.861  0.00  0.00    +0.000 A 
ATOM      9  N   UNL     1       0.404  10.114  18.641  0.00  0.00    +0.000 N 
ENDROOT
BRANCH   7  10
ATOM     10  C   UNL     1      -0.247  12.333  21.373  0.00  0.00    +0.000 C 
ATOM     11  C   UNL     1      -0.168  13.687  21.265  0.00  0.00    +0.000 C 
ATOM     12  C   UNL     1      -1.576  14.180  21.616  0.00  0.00    +0.000 C 
ATOM     13  O   UNL     1      -2.531  13.523  21.999  0.00  0.00    +0.000 OA
ATOM     14  N   UNL     1      -1.680  15.460  21.118  0.00  0.00    +0.000 N 
ATOM     15  C   UNL     1      -0.657  15.642  20.183  0.00  0.00    +0.000 A 
ATOM     16  C   UNL     1      -0.732  16.577  19.174  0.00  0.00    +0.000 A 
ATOM     17  C   UNL     1       0.357  16.698  18.337  0.00  0.00    +0.000 A 
ATOM     18  C   UNL     1       1.545  16.022  18.649  0.00  0.00    +0.000 A 
ATOM     19  C   UNL     1       1.575  15.014  19.656  0.00  0.00    +0.000 A 
ATOM     20  C   UNL     1       0.379  14.715  20.318  0.00  0.00    +0.000 A 
ATOM     21  H   UNL     1      -1.577  16.113  21.891  0.00  0.00    +0.000 HD
BRANCH  18  22
ATOM     22  S   UNL     1       2.995  16.671  17.831  0.00  0.00    +0.000 S 
ATOM     23  O   UNL     1       2.601  17.524  16.737  0.00  0.00    +0.000 OA
ATOM     24  O   UNL     1       3.928  17.120  18.843  0.00  0.00    +0.000 OA
BRANCH  22  25
ATOM     25  N   UNL     1       3.681  15.323  17.115  0.00  0.00    +0.000 NA
ATOM     26  H   UNL     1       4.169  14.763  17.818  0.00  0.00    +0.000 HD
ATOM     27  H   UNL     1       2.962  14.796  16.616  0.00  0.00    +0.000 HD
ENDBRANCH  22  25
ENDBRANCH  18  22
ENDBRANCH   7  10
BRANCH   1  29
ATOM     28  C   UNL     1      -5.820  11.192  18.138  0.00  0.00    +0.000 C 
ATOM     29  O   UNL     1      -4.706  11.859  17.567  0.00  0.00    +0.000 OA
ENDBRANCH   1  29
BRANCH   9  30
ATOM     30  C   UNL     1       1.378   9.388  17.856  0.00  0.00    +0.000 C 
BRANCH  30  31
ATOM     31  C   UNL     1       2.003   8.177  18.550  0.00  0.00    +0.000 C 
BRANCH  31  32
ATOM     32  C   UNL     1       3.197   7.547  17.832  0.00  0.00    +0.000 C 
BRANCH  32  33
ATOM     33  C   UNL     1       3.280   6.056  18.044  0.00  0.00    +0.000 C 
ATOM     34  O   UNL     1       2.668   5.439  18.891  0.00  0.00    +0.000 OA
BRANCH  33  35
ATOM     35  O   UNL     1       4.085   5.451  17.139  0.00  0.00    +0.000 OA
ATOM     36  H   UNL     1       4.637   6.058  16.614  0.00  0.00    +0.000 HD
ENDBRANCH  33  35
ENDBRANCH  32  33
ENDBRANCH  31  32
ENDBRANCH  30  31
ENDBRANCH   9  30
TORSDOF 9
ENDMDL
MODEL 4
REMARK VINA RESULT:      -6.6      1.517      1.779
REMARK  Name = 
REMARK  10 active torsions:
REMARK  status: ('A' for Active; 'I' for Inactive)
REMARK    1  A    between atoms: C_1  and  O_2
REMARK    2  A    between atoms: O_2  and  C_3
REMARK    3  A    between atoms: C_9  and  C_10
REMARK    4  A    between atoms: C_18  and  S_19
REMARK    5  A    between atoms: S_19  and  N_20
REMARK    6  A    between atoms: N_26  and  C_27
REMARK    7  A    between atoms: C_27  and  C_28
REMARK    8  A    between atoms: C_28  and  C_29
REMARK    9  A    between atoms: C_29  and  C_30
REMARK   10  A    between atoms: C_30  and  O_32
REMARK                            x       y       z     vdW  Elec       q    Type
REMARK                         _______ _______ _______ _____ _____    ______ ____
ROOT
ATOM      1  C   UNL     1      -4.959  11.160  18.111  0.00  0.00    +0.000 A 
ATOM      2  C   UNL     1      -4.342  10.067  17.516  0.00  0.00    +0.000 A 
ATOM      3  C   UNL     1      -2.983   9.830  17.694  0.00  0.00    +0.000 A 
ATOM      4  C   UNL     1      -2.238  10.723  18.476  0.00  0.00    +0.000 A 
ATOM      5  C   UNL     1      -2.811  11.841  19.113  0.00  0.00    +0.000 A 
ATOM      6  C   UNL     1      -4.213  12.063  18.899  0.00  0.00    +0.000 A 
ATOM      7  C   UNL     1      -1.702  12.506  19.787  0.00  0.00    +0.000 A 
ATOM      8  C   UNL     1      -0.581  11.776  19.581  0.00  0.00    +0.000 A 
ATOM      9  N   UNL     1      -0.886  10.752  18.726  0.00  0.00    +0.000 N 
ENDROOT
BRANCH   7  10
ATOM     10  C   UNL     1      -1.684  13.796  20.431  0.00  0.00    +0.000 C 
ATOM     11  C   UNL     1      -2.275  14.079  21.624  0.00  0.00    +0.000 C 
ATOM     12  C   UNL     1      -1.113  14.123  22.623  0.00  0.00    +0.000 C 
ATOM     13  O   UNL     1       0.081  14.024  22.394  0.00  0.00    +0.000 OA
ATOM     14  N   UNL     1      -1.667  13.975  23.875  0.00  0.00    +0.000 N 
ATOM     15  C   UNL     1      -2.957  13.461  23.717  0.00  0.00    +0.000 A 
ATOM     16  C   UNL     1      -3.604  12.759  24.711  0.00  0.00    +0.000 A 
ATOM     17  C   UNL     1      -4.892  12.339  24.458  0.00  0.00    +0.000 A 
ATOM     18  C   UNL     1      -5.552  12.792  23.307  0.00  0.00    +0.000 A 
ATOM     19  C   UNL     1      -4.842  13.459  22.267  0.00  0.00    +0.000 A 
ATOM     20  C   UNL     1      -3.464  13.640  22.428  0.00  0.00    +0.000 A 
ATOM     21  H   UNL     1      -1.700  14.889  24.321  0.00  0.00    +0.000 HD
BRANCH  18  22
ATOM     22  S   UNL     1      -7.331  12.633  23.371  0.00  0.00    +0.000 S 
ATOM     23  O   UNL     1      -7.917  13.209  22.186  0.00  0.00    +0.000 OA
ATOM     24  O   UNL     1      -7.655  11.289  23.799  0.00  0.00    +0.000 OA
BRANCH  22  25
ATOM     25  N   UNL     1      -7.773  13.653  24.622  0.00  0.00    +0.000 NA
ATOM     26  H   UNL     1      -8.573  14.224  24.343  0.00  0.00    +0.000 HD
ATOM     27  H   UNL     1      -7.950  13.104  25.465  0.00  0.00    +0.000 HD
ENDBRANCH  22  25
ENDBRANCH  18  22
ENDBRANCH   7  10
BRANCH   1  29
ATOM     28  C   UNL     1      -6.729  12.562  17.378  0.00  0.00    +0.000 C 
ATOM     29  O   UNL     1      -6.283  11.274  17.772  0.00  0.00    +0.000 OA
ENDBRANCH   1  29
BRANCH   9  30
ATOM     30  C   UNL     1       0.131   9.893  18.162  0.00  0.00    +0.000 C 
BRANCH  30  31
ATOM     31  C   UNL     1       1.271   9.522  19.110  0.00  0.00    +0.000 C 
BRANCH  31  32
ATOM     32  C   UNL     1       2.277   8.504  18.570  0.00  0.00    +0.000 C 
BRANCH  32  33
ATOM     33  C   UNL     1       2.328   7.245  19.398  0.00  0.00    +0.000 C 
ATOM     34  O   UNL     1       1.693   7.055  20.415  0.00  0.00    +0.000 OA
BRANCH  33  35
ATOM     35  O   UNL     1       3.132   6.302  18.853  0.00  0.00    +0.000 OA
ATOM     36  H   UNL     1       2.679   5.480  18.591  0.00  0.00    +0.000 HD
ENDBRANCH  33  35
ENDBRANCH  32  33
ENDBRANCH  31  32
ENDBRANCH  30  31
ENDBRANCH   9  30
TORSDOF 9
ENDMDL
MODEL 5
REMARK VINA RESULT:      -6.6      3.409      5.553
REMARK  Name = 
REMARK  10 active torsions:
REMARK  status: ('A' for Active; 'I' for Inactive)
REMARK    1  A    between atoms: C_1  and  O_2
REMARK    2  A    between atoms: O_2  and  C_3
REMARK    3  A    between atoms: C_9  and  C_10
REMARK    4  A    between atoms: C_18  and  S_19
REMARK    5  A    between atoms: S_19  and  N_20
REMARK    6  A    between atoms: N_26  and  C_27
REMARK    7  A    between atoms: C_27  and  C_28
REMARK    8  A    between atoms: C_28  and  C_29
REMARK    9  A    between atoms: C_29  and  C_30
REMARK   10  A    between atoms: C_30  and  O_32
REMARK                            x       y       z     vdW  Elec       q    Type
REMARK                         _______ _______ _______ _____ _____    ______ ____
ROOT
ATOM      1  C   UNL     1       0.478   9.720  22.171  0.00  0.00    +0.000 A 
ATOM      2  C   UNL     1       0.665   8.345  22.122  0.00  0.00    +0.000 A 
ATOM      3  C   UNL     1       1.223   7.738  21.003  0.00  0.00    +0.000 A 
ATOM      4  C   UNL     1       1.585   8.539  19.910  0.00  0.00    +0.000 A 
ATOM      5  C   UNL     1       1.431   9.939  19.906  0.00  0.00    +0.000 A 
ATOM      6  C   UNL     1       0.841  10.531  21.073  0.00  0.00    +0.000 A 
ATOM      7  C   UNL     1       1.896  10.370  18.593  0.00  0.00    +0.000 A 
ATOM      8  C   UNL     1       2.331   9.280  17.918  0.00  0.00    +0.000 A 
ATOM      9  N   UNL     1       2.067   8.172  18.676  0.00  0.00    +0.000 N 
ENDROOT
BRANCH   7  10
ATOM     10  C   UNL     1       1.787  11.672  17.983  0.00  0.00    +0.000 C 
ATOM     11  C   UNL     1       0.776  12.554  18.208  0.00  0.00    +0.000 C 
ATOM     12  C   UNL     1       1.385  13.600  19.148  0.00  0.00    +0.000 C 
ATOM     13  O   UNL     1       2.539  13.683  19.536  0.00  0.00    +0.000 OA
ATOM     14  N   UNL     1       0.330  14.255  19.744  0.00  0.00    +0.000 N 
ATOM     15  C   UNL     1      -0.816  13.472  19.570  0.00  0.00    +0.000 A 
ATOM     16  C   UNL     1      -1.908  13.559  20.406  0.00  0.00    +0.000 A 
ATOM     17  C   UNL     1      -2.999  12.769  20.111  0.00  0.00    +0.000 A 
ATOM     18  C   UNL     1      -3.035  12.069  18.897  0.00  0.00    +0.000 A 
ATOM     19  C   UNL     1      -1.870  11.942  18.086  0.00  0.00    +0.000 A 
ATOM     20  C   UNL     1      -0.688  12.535  18.543  0.00  0.00    +0.000 A 
ATOM     21  H   UNL     1       0.216  15.158  19.289  0.00  0.00    +0.000 HD
BRANCH  18  22
ATOM     22  S   UNL     1      -4.670  11.548  18.399  0.00  0.00    +0.000 S 
ATOM     23  O   UNL     1      -4.661  10.141  18.082  0.00  0.00    +0.000 OA
ATOM     24  O   UNL     1      -5.631  12.110  19.325  0.00  0.00    +0.000 OA
BRANCH  22  25
ATOM     25  N   UNL     1      -4.904  12.328  16.937  0.00  0.00    +0.000 NA
ATOM     26  H   UNL     1      -4.013  12.681  16.582  0.00  0.00    +0.000 HD
ATOM     27  H   UNL     1      -5.373  11.699  16.283  0.00  0.00    +0.000 HD
ENDBRANCH  22  25
ENDBRANCH  18  22
ENDBRANCH   7  10
BRANCH   1  29
ATOM     28  C   UNL     1      -1.242  11.020  23.164  0.00  0.00    +0.000 C 
ATOM     29  O   UNL     1      -0.144  10.134  23.320  0.00  0.00    +0.000 OA
ENDBRANCH   1  29
BRANCH   9  30
ATOM     30  C   UNL     1       2.246   6.831  18.165  0.00  0.00    +0.000 C 
BRANCH  30  31
ATOM     31  C   UNL     1       3.691   6.334  18.129  0.00  0.00    +0.000 C 
BRANCH  31  32
ATOM     32  C   UNL     1       4.163   5.580  19.373  0.00  0.00    +0.000 C 
BRANCH  32  33
ATOM     33  C   UNL     1       5.502   4.915  19.175  0.00  0.00    +0.000 C 
ATOM     34  O   UNL     1       6.521   5.216  19.763  0.00  0.00    +0.000 OA
BRANCH  33  35
ATOM     35  O   UNL     1       5.442   3.889  18.295  0.00  0.00    +0.000 OA
ATOM     36  H   UNL     1       4.795   3.196  18.519  0.00  0.00    +0.000 HD
ENDBRANCH  33  35
ENDBRANCH  32  33
ENDBRANCH  31  32
ENDBRANCH  30  31
ENDBRANCH   9  30
TORSDOF 9
ENDMDL
MODEL 6
REMARK VINA RESULT:      -6.6      2.003      2.309
REMARK  Name = 
REMARK  10 active torsions:
REMARK  status: ('A' for Active; 'I' for Inactive)
REMARK    1  A    between atoms: C_1  and  O_2
REMARK    2  A    between atoms: O_2  and  C_3
REMARK    3  A    between atoms: C_9  and  C_10
REMARK    4  A    between atoms: C_18  and  S_19
REMARK    5  A    between atoms: S_19  and  N_20
REMARK    6  A    between atoms: N_26  and  C_27
REMARK    7  A    between atoms: C_27  and  C_28
REMARK    8  A    between atoms: C_28  and  C_29
REMARK    9  A    between atoms: C_29  and  C_30
REMARK   10  A    between atoms: C_30  and  O_32
REMARK                            x       y       z     vdW  Elec       q    Type
REMARK                         _______ _______ _______ _____ _____    ______ ____
ROOT
ATOM      1  C   UNL     1      -3.531  11.041  17.713  0.00  0.00    +0.000 A 
ATOM      2  C   UNL     1      -2.791   9.981  17.205  0.00  0.00    +0.000 A 
ATOM      3  C   UNL     1      -1.439   9.848  17.499  0.00  0.00    +0.000 A 
ATOM      4  C   UNL     1      -0.825  10.814  18.310  0.00  0.00    +0.000 A 
ATOM      5  C   UNL     1      -1.526  11.903  18.863  0.00  0.00    +0.000 A 
ATOM      6  C   UNL     1      -2.918  12.016  18.530  0.00  0.00    +0.000 A 
ATOM      7  C   UNL     1      -0.526  12.664  19.603  0.00  0.00    +0.000 A 
ATOM      8  C   UNL     1       0.657  12.013  19.510  0.00  0.00    +0.000 A 
ATOM      9  N   UNL     1       0.496  10.948  18.666  0.00  0.00    +0.000 N 
ENDROOT
BRANCH   7  10
ATOM     10  C   UNL     1      -0.652  13.968  20.204  0.00  0.00    +0.000 C 
ATOM     11  C   UNL     1      -1.420  14.253  21.292  0.00  0.00    +0.000 C 
ATOM     12  C   UNL     1      -0.417  14.370  22.445  0.00  0.00    +0.000 C 
ATOM     13  O   UNL     1       0.800  14.317  22.393  0.00  0.00    +0.000 OA
ATOM     14  N   UNL     1      -1.140  14.226  23.609  0.00  0.00    +0.000 N 
ATOM     15  C   UNL     1      -2.373  13.653  23.283  0.00  0.00    +0.000 A 
ATOM     16  C   UNL     1      -3.128  12.947  24.194  0.00  0.00    +0.000 A 
ATOM     17  C   UNL     1      -4.348  12.466  23.771  0.00  0.00    +0.000 A 
ATOM     18  C   UNL     1      -4.852  12.863  22.525  0.00  0.00    +0.000 A 
ATOM     19  C   UNL     1      -4.027  13.536  21.578  0.00  0.00    +0.000 A 
ATOM     20  C   UNL     1      -2.694  13.781  21.930  0.00  0.00    +0.000 A 
ATOM     21  H   UNL     1      -1.273  15.148  24.019  0.00  0.00    +0.000 HD
BRANCH  18  22
ATOM     22  S   UNL     1      -6.614  12.629  22.337  0.00  0.00    +0.000 S 
ATOM     23  O   UNL     1      -7.263  13.906  22.173  0.00  0.00    +0.000 OA
ATOM     24  O   UNL     1      -6.834  11.543  21.405  0.00  0.00    +0.000 OA
BRANCH  22  25
ATOM     25  N   UNL     1      -7.100  12.075  23.839  0.00  0.00    +0.000 NA
ATOM     26  H   UNL     1      -7.653  11.221  23.736  0.00  0.00    +0.000 HD
ATOM     27  H   UNL     1      -6.284  11.951  24.440  0.00  0.00    +0.000 HD
ENDBRANCH  22  25
ENDBRANCH  18  22
ENDBRANCH   7  10
BRANCH   1  29
ATOM     28  C   UNL     1      -5.711  11.963  17.897  0.00  0.00    +0.000 C 
ATOM     29  O   UNL     1      -4.828  11.049  17.266  0.00  0.00    +0.000 OA
ENDBRANCH   1  29
BRANCH   9  30
ATOM     30  C   UNL     1       1.614  10.151  18.213  0.00  0.00    +0.000 C 
BRANCH  30  31
ATOM     31  C   UNL     1       1.732   8.767  18.853  0.00  0.00    +0.000 C 
BRANCH  31  32
ATOM     32  C   UNL     1       2.318   7.672  17.961  0.00  0.00    +0.000 C 
BRANCH  32  33
ATOM     33  C   UNL     1       2.786   6.473  18.746  0.00  0.00    +0.000 C 
ATOM     34  O   UNL     1       2.455   6.216  19.885  0.00  0.00    +0.000 OA
BRANCH  33  35
ATOM     35  O   UNL     1       3.589   5.663  18.019  0.00  0.00    +0.000 OA
ATOM     36  H   UNL     1       4.428   5.423  18.453  0.00  0.00    +0.000 HD
ENDBRANCH  33  35
ENDBRANCH  32  33
ENDBRANCH  31  32
ENDBRANCH  30  31
ENDBRANCH   9  30
TORSDOF 9
ENDMDL
MODEL 7
REMARK VINA RESULT:      -6.6      1.900      2.142
REMARK  Name = 
REMARK  10 active torsions:
REMARK  status: ('A' for Active; 'I' for Inactive)
REMARK    1  A    between atoms: C_1  and  O_2
REMARK    2  A    between atoms: O_2  and  C_3
REMARK    3  A    between atoms: C_9  and  C_10
REMARK    4  A    between atoms: C_18  and  S_19
REMARK    5  A    between atoms: S_19  and  N_20
REMARK    6  A    between atoms: N_26  and  C_27
REMARK    7  A    between atoms: C_27  and  C_28
REMARK    8  A    between atoms: C_28  and  C_29
REMARK    9  A    between atoms: C_29  and  C_30
REMARK   10  A    between atoms: C_30  and  O_32
REMARK                            x       y       z     vdW  Elec       q    Type
REMARK                         _______ _______ _______ _____ _____    ______ ____
ROOT
ATOM      1  C   UNL     1      -3.717  10.965  17.774  0.00  0.00    +0.000 A 
ATOM      2  C   UNL     1      -3.044   9.870  17.247  0.00  0.00    +0.000 A 
ATOM      3  C   UNL     1      -1.685   9.690  17.473  0.00  0.00    +0.000 A 
ATOM      4  C   UNL     1      -0.994  10.643  18.235  0.00  0.00    +0.000 A 
ATOM      5  C   UNL     1      -1.625  11.766  18.805  0.00  0.00    +0.000 A 
ATOM      6  C   UNL     1      -3.026  11.928  18.542  0.00  0.00    +0.000 A 
ATOM      7  C   UNL     1      -0.560  12.499  19.480  0.00  0.00    +0.000 A 
ATOM      8  C   UNL     1       0.592  11.802  19.338  0.00  0.00    +0.000 A 
ATOM      9  N   UNL     1       0.348  10.731  18.521  0.00  0.00    +0.000 N 
ENDROOT
BRANCH   7  10
ATOM     10  C   UNL     1      -0.605  13.816  20.066  0.00  0.00    +0.000 C 
ATOM     11  C   UNL     1      -1.328  14.153  21.169  0.00  0.00    +0.000 C 
ATOM     12  C   UNL     1      -0.289  14.236  22.293  0.00  0.00    +0.000 C 
ATOM     13  O   UNL     1       0.923  14.123  22.209  0.00  0.00    +0.000 OA
ATOM     14  N   UNL     1      -0.985  14.144  23.478  0.00  0.00    +0.000 N 
ATOM     15  C   UNL     1      -2.253  13.628  23.194  0.00  0.00    +0.000 A 
ATOM     16  C   UNL     1      -3.016  12.972  24.135  0.00  0.00    +0.000 A 
ATOM     17  C   UNL     1      -4.270  12.545  23.752  0.00  0.00    +0.000 A 
ATOM     18  C   UNL     1      -4.788  12.950  22.514  0.00  0.00    +0.000 A 
ATOM     19  C   UNL     1      -3.958  13.569  21.536  0.00  0.00    +0.000 A 
ATOM     20  C   UNL     1      -2.606  13.753  21.848  0.00  0.00    +0.000 A 
ATOM     21  H   UNL     1      -1.062  15.076  23.878  0.00  0.00    +0.000 HD
BRANCH  18  22
ATOM     22  S   UNL     1      -6.564  12.801  22.377  0.00  0.00    +0.000 S 
ATOM     23  O   UNL     1      -6.899  11.665  21.556  0.00  0.00    +0.000 OA
ATOM     24  O   UNL     1      -7.141  12.980  23.694  0.00  0.00    +0.000 OA
BRANCH  22  25
ATOM     25  N   UNL     1      -7.004  14.141  21.478  0.00  0.00    +0.000 NA
ATOM     26  H   UNL     1      -7.423  13.848  20.593  0.00  0.00    +0.000 HD
ATOM     27  H   UNL     1      -7.621  14.738  22.031  0.00  0.00    +0.000 HD
ENDBRANCH  22  25
ENDBRANCH  18  22
ENDBRANCH   7  10
BRANCH   1  29
ATOM     28  C   UNL     1      -5.719  12.234  17.641  0.00  0.00    +0.000 C 
ATOM     29  O   UNL     1      -5.034  11.017  17.394  0.00  0.00    +0.000 OA
ENDBRANCH   1  29
BRANCH   9  30
ATOM     30  C   UNL     1       1.410   9.885  18.025  0.00  0.00    +0.000 C 
BRANCH  30  31
ATOM     31  C   UNL     1       1.692   8.635  18.859  0.00  0.00    +0.000 C 
BRANCH  31  32
ATOM     32  C   UNL     1       2.771   7.702  18.308  0.00  0.00    +0.000 C 
BRANCH  32  33
ATOM     33  C   UNL     1       2.625   6.287  18.809  0.00  0.00    +0.000 C 
ATOM     34  O   UNL     1       2.105   5.381  18.190  0.00  0.00    +0.000 OA
BRANCH  33  35
ATOM     35  O   UNL     1       3.193   6.109  20.024  0.00  0.00    +0.000 OA
ATOM     36  H   UNL     1       3.016   6.821  20.665  0.00  0.00    +0.000 HD
ENDBRANCH  33  35
ENDBRANCH  32  33
ENDBRANCH  31  32
ENDBRANCH  30  31
ENDBRANCH   9  30
TORSDOF 9
ENDMDL
MODEL 8
REMARK VINA RESULT:      -6.4      4.057      6.084
REMARK  Name = 
REMARK  10 active torsions:
REMARK  status: ('A' for Active; 'I' for Inactive)
REMARK    1  A    between atoms: C_1  and  O_2
REMARK    2  A    between atoms: O_2  and  C_3
REMARK    3  A    between atoms: C_9  and  C_10
REMARK    4  A    between atoms: C_18  and  S_19
REMARK    5  A    between atoms: S_19  and  N_20
REMARK    6  A    between atoms: N_26  and  C_27
REMARK    7  A    between atoms: C_27  and  C_28
REMARK    8  A    between atoms: C_28  and  C_29
REMARK    9  A    between atoms: C_29  and  C_30
REMARK   10  A    between atoms: C_30  and  O_32
REMARK                            x       y       z     vdW  Elec       q    Type
REMARK                         _______ _______ _______ _____ _____    ______ ____
ROOT
ATOM      1  C   UNL     1      -3.270  11.336  17.827  0.00  0.00    +0.000 A 
ATOM      2  C   UNL     1      -2.700  10.464  16.909  0.00  0.00    +0.000 A 
ATOM      3  C   UNL     1      -1.450   9.901  17.138  0.00  0.00    +0.000 A 
ATOM      4  C   UNL     1      -0.761  10.240  18.311  0.00  0.00    +0.000 A 
ATOM      5  C   UNL     1      -1.293  11.109  19.284  0.00  0.00    +0.000 A 
ATOM      6  C   UNL     1      -2.581  11.681  19.011  0.00  0.00    +0.000 A 
ATOM      7  C   UNL     1      -0.261  11.209  20.310  0.00  0.00    +0.000 A 
ATOM      8  C   UNL     1       0.769  10.406  19.956  0.00  0.00    +0.000 A 
ATOM      9  N   UNL     1       0.504   9.889  18.717  0.00  0.00    +0.000 N 
ENDROOT
BRANCH   7  10
ATOM     10  C   UNL     1      -0.197  12.108  21.436  0.00  0.00    +0.000 C 
ATOM     11  C   UNL     1      -0.149  13.465  21.347  0.00  0.00    +0.000 C 
ATOM     12  C   UNL     1      -1.568  13.920  21.704  0.00  0.00    +0.000 C 
ATOM     13  O   UNL     1      -2.507  13.237  22.078  0.00  0.00    +0.000 OA
ATOM     14  N   UNL     1      -1.700  15.205  21.224  0.00  0.00    +0.000 N 
ATOM     15  C   UNL     1      -0.682  15.423  20.292  0.00  0.00    +0.000 A 
ATOM     16  C   UNL     1      -0.777  16.370  19.295  0.00  0.00    +0.000 A 
ATOM     17  C   UNL     1       0.309  16.527  18.461  0.00  0.00    +0.000 A 
ATOM     18  C   UNL     1       1.512  15.874  18.764  0.00  0.00    +0.000 A 
ATOM     19  C   UNL     1       1.565  14.853  19.757  0.00  0.00    +0.000 A 
ATOM     20  C   UNL     1       0.375  14.518  20.414  0.00  0.00    +0.000 A 
ATOM     21  H   UNL     1      -1.612  15.850  22.006  0.00  0.00    +0.000 HD
BRANCH  18  22
ATOM     22  S   UNL     1       2.947  16.567  17.956  0.00  0.00    +0.000 S 
ATOM     23  O   UNL     1       3.737  17.307  18.908  0.00  0.00    +0.000 OA
ATOM     24  O   UNL     1       3.536  15.545  17.115  0.00  0.00    +0.000 OA
BRANCH  22  25
ATOM     25  N   UNL     1       2.303  17.718  16.926  0.00  0.00    +0.000 NA
ATOM     26  H   UNL     1       2.848  18.581  16.980  0.00  0.00    +0.000 HD
ATOM     27  H   UNL     1       2.248  17.340  15.980  0.00  0.00    +0.000 HD
ENDBRANCH  22  25
ENDBRANCH  18  22
ENDBRANCH   7  10
BRANCH   1  29
ATOM     28  C   UNL     1      -5.580  11.656  18.272  0.00  0.00    +0.000 C 
ATOM     29  O   UNL     1      -4.472  11.845  17.406  0.00  0.00    +0.000 OA
ENDBRANCH   1  29
BRANCH   9  30
ATOM     30  C   UNL     1       1.487   9.131  17.974  0.00  0.00    +0.000 C 
BRANCH  30  31
ATOM     31  C   UNL     1       2.231   8.064  18.777  0.00  0.00    +0.000 C 
BRANCH  31  32
ATOM     32  C   UNL     1       2.373   6.702  18.096  0.00  0.00    +0.000 C 
BRANCH  32  33
ATOM     33  C   UNL     1       3.808   6.357  17.782  0.00  0.00    +0.000 C 
ATOM     34  O   UNL     1       4.608   7.112  17.270  0.00  0.00    +0.000 OA
BRANCH  33  35
ATOM     35  O   UNL     1       4.137   5.109  18.188  0.00  0.00    +0.000 OA
ATOM     36  H   UNL     1       3.530   4.719  18.843  0.00  0.00    +0.000 HD
ENDBRANCH  33  35
ENDBRANCH  32  33
ENDBRANCH  31  32
ENDBRANCH  30  31
ENDBRANCH   9  30
TORSDOF 9
ENDMDL
MODEL 9
REMARK VINA RESULT:      -6.4      3.219      5.367
REMARK  Name = 
REMARK  10 active torsions:
REMARK  status: ('A' for Active; 'I' for Inactive)
REMARK    1  A    between atoms: C_1  and  O_2
REMARK    2  A    between atoms: O_2  and  C_3
REMARK    3  A    between atoms: C_9  and  C_10
REMARK    4  A    between atoms: C_18  and  S_19
REMARK    5  A    between atoms: S_19  and  N_20
REMARK    6  A    between atoms: N_26  and  C_27
REMARK    7  A    between atoms: C_27  and  C_28
REMARK    8  A    between atoms: C_28  and  C_29
REMARK    9  A    between atoms: C_29  and  C_30
REMARK   10  A    between atoms: C_30  and  O_32
REMARK                            x       y       z     vdW  Elec       q    Type
REMARK                         _______ _______ _______ _____ _____    ______ ____
ROOT
ATOM      1  C   UNL     1       0.215   9.424  22.070  0.00  0.00    +0.000 A 
ATOM      2  C   UNL     1       0.476   8.080  21.833  0.00  0.00    +0.000 A 
ATOM      3  C   UNL     1       1.119   7.671  20.670  0.00  0.00    +0.000 A 
ATOM      4  C   UNL     1       1.491   8.640  19.727  0.00  0.00    +0.000 A 
ATOM      5  C   UNL     1       1.263  10.017  19.918  0.00  0.00    +0.000 A 
ATOM      6  C   UNL     1       0.587  10.403  21.123  0.00  0.00    +0.000 A 
ATOM      7  C   UNL     1       1.768  10.658  18.709  0.00  0.00    +0.000 A 
ATOM      8  C   UNL     1       2.292   9.700  17.908  0.00  0.00    +0.000 A 
ATOM      9  N   UNL     1       2.051   8.481  18.482  0.00  0.00    +0.000 N 
ENDROOT
BRANCH   7  10
ATOM     10  C   UNL     1       1.619  12.029  18.288  0.00  0.00    +0.000 C 
ATOM     11  C   UNL     1       0.500  12.781  18.468  0.00  0.00    +0.000 C 
ATOM     12  C   UNL     1       0.845  13.704  19.642  0.00  0.00    +0.000 C 
ATOM     13  O   UNL     1       1.911  13.813  20.226  0.00  0.00    +0.000 OA
ATOM     14  N   UNL     1      -0.351  14.168  20.142  0.00  0.00    +0.000 N 
ATOM     15  C   UNL     1      -1.369  13.337  19.665  0.00  0.00    +0.000 A 
ATOM     16  C   UNL     1      -2.580  13.201  20.308  0.00  0.00    +0.000 A 
ATOM     17  C   UNL     1      -3.524  12.386  19.720  0.00  0.00    +0.000 A 
ATOM     18  C   UNL     1      -3.300  11.892  18.427  0.00  0.00    +0.000 A 
ATOM     19  C   UNL     1      -2.018  11.992  17.814  0.00  0.00    +0.000 A 
ATOM     20  C   UNL     1      -0.988  12.593  18.546  0.00  0.00    +0.000 A 
ATOM     21  H   UNL     1      -0.487  15.121  19.814  0.00  0.00    +0.000 HD
BRANCH  18  22
ATOM     22  S   UNL     1      -4.777  11.333  17.589  0.00  0.00    +0.000 S 
ATOM     23  O   UNL     1      -4.446  10.888  16.259  0.00  0.00    +0.000 OA
ATOM     24  O   UNL     1      -5.531  10.499  18.501  0.00  0.00    +0.000 OA
BRANCH  22  25
ATOM     25  N   UNL     1      -5.665  12.735  17.379  0.00  0.00    +0.000 NA
ATOM     26  H   UNL     1      -6.402  12.793  18.085  0.00  0.00    +0.000 HD
ATOM     27  H   UNL     1      -5.040  13.542  17.389  0.00  0.00    +0.000 HD
ENDBRANCH  22  25
ENDBRANCH  18  22
ENDBRANCH   7  10
BRANCH   1  29
ATOM     28  C   UNL     1      -1.308  10.788  23.275  0.00  0.00    +0.000 C 
ATOM     29  O   UNL     1      -0.484   9.634  23.231  0.00  0.00    +0.000 OA
ENDBRANCH   1  29
BRANCH   9  30
ATOM     30  C   UNL     1       2.326   7.240  17.793  0.00  0.00    +0.000 C 
BRANCH  30  31
ATOM     31  C   UNL     1       3.463   6.405  18.381  0.00  0.00    +0.000 C 
BRANCH  31  32
ATOM     32  C   UNL     1       3.318   4.890  18.232  0.00  0.00    +0.000 C 
BRANCH  32  33
ATOM     33  C   UNL     1       1.881   4.436  18.305  0.00  0.00    +0.000 C 
ATOM     34  O   UNL     1       1.198   4.135  17.348  0.00  0.00    +0.000 OA
BRANCH  33  35
ATOM     35  O   UNL     1       1.435   4.343  19.579  0.00  0.00    +0.000 OA
ATOM     36  H   UNL     1       1.987   3.797  20.167  0.00  0.00    +0.000 HD
ENDBRANCH  33  35
ENDBRANCH  32  33
ENDBRANCH  31  32
ENDBRANCH  30  31
ENDBRANCH   9  30
TORSDOF 9
ENDMDL
