MODEL 1
REMARK VINA RESULT:      -8.2      0.000      0.000
REMARK  Name = 
REMARK  2 active torsions:
REMARK  status: ('A' for Active; 'I' for Inactive)
REMARK    1  A    between atoms: C_1  and  N_2
REMARK    2  A    between atoms: C_6  and  N_7
REMARK                            x       y       z     vdW  Elec       q    Type
REMARK                         _______ _______ _______ _____ _____    ______ ____
ROOT
ATOM      1  C   UNL     1       4.608   3.921  16.795  0.00  0.00    +0.000 C 
ATOM      2  N   UNL     1       4.196   5.193  17.347  0.00  0.00    +0.000 N 
ATOM      3  C   UNL     1       4.457   6.400  16.742  0.00  0.00    +0.000 A 
ATOM      4  C   UNL     1       3.861   7.393  17.491  0.00  0.00    +0.000 A 
ATOM      5  C   UNL     1       3.131   6.785  18.553  0.00  0.00    +0.000 A 
ATOM      6  C   UNL     1       2.225   7.260  19.570  0.00  0.00    +0.000 A 
ATOM      7  C   UNL     1       1.597   6.314  20.429  0.00  0.00    +0.000 A 
ATOM      8  C   UNL     1       1.869   4.980  20.203  0.00  0.00    +0.000 A 
ATOM      9  C   UNL     1       2.847   4.507  19.304  0.00  0.00    +0.000 A 
ATOM     10  C   UNL     1       3.418   5.409  18.453  0.00  0.00    +0.000 A 
ATOM     11  C   UNL     1       2.735   3.007  19.289  0.00  0.00    +0.000 C 
ATOM     12  C   UNL     1       3.056   2.459  20.712  0.00  0.00    +0.000 C 
ATOM     13  C   UNL     1       1.837   2.903  21.574  0.00  0.00    +0.000 C 
ATOM     14  C   UNL     1       1.033   3.788  20.613  0.00  0.00    +0.000 C 
ATOM     15  C   UNL     1       1.186   2.921  19.318  0.00  0.00    +0.000 C 
ENDROOT
BRANCH   6  16
ATOM     16  N   UNL     1       1.783   8.588  19.737  0.00  0.00    +0.000 N 
ATOM     17  C   UNL     1       1.086   9.018  20.944  0.00  0.00    +0.000 C 
ATOM     18  C   UNL     1      -0.220   9.618  20.443  0.00  0.00    +0.000 C 
ATOM     19  C   UNL     1       0.165  10.197  19.091  0.00  0.00    +0.000 C 
ATOM     20  C   UNL     1       1.192   9.206  18.546  0.00  0.00    +0.000 C 
ENDBRANCH   6  16
TORSDOF 1
ENDMDL
MODEL 2
REMARK VINA RESULT:      -8.0      1.650      5.076
REMARK  Name = 
REMARK  2 active torsions:
REMARK  status: ('A' for Active; 'I' for Inactive)
REMARK    1  A    between atoms: C_1  and  N_2
REMARK    2  A    between atoms: C_6  and  N_7
REMARK                            x       y       z     vdW  Elec       q    Type
REMARK                         _______ _______ _______ _____ _____    ______ ____
ROOT
ATOM      1  C   UNL     1       2.069   7.627  19.550  0.00  0.00    +0.000 C 
ATOM      2  N   UNL     1       2.896   7.023  18.528  0.00  0.00    +0.000 N 
ATOM      3  C   UNL     1       3.718   7.745  17.696  0.00  0.00    +0.000 A 
ATOM      4  C   UNL     1       4.414   6.857  16.903  0.00  0.00    +0.000 A 
ATOM      5  C   UNL     1       4.083   5.531  17.308  0.00  0.00    +0.000 A 
ATOM      6  C   UNL     1       4.555   4.212  16.963  0.00  0.00    +0.000 A 
ATOM      7  C   UNL     1       4.032   3.089  17.666  0.00  0.00    +0.000 A 
ATOM      8  C   UNL     1       3.124   3.343  18.674  0.00  0.00    +0.000 A 
ATOM      9  C   UNL     1       2.555   4.606  18.935  0.00  0.00    +0.000 A 
ATOM     10  C   UNL     1       3.086   5.688  18.292  0.00  0.00    +0.000 A 
ATOM     11  C   UNL     1       1.714   4.457  20.174  0.00  0.00    +0.000 C 
ATOM     12  C   UNL     1       0.567   3.442  19.888  0.00  0.00    +0.000 C 
ATOM     13  C   UNL     1       1.293   2.068  19.778  0.00  0.00    +0.000 C 
ATOM     14  C   UNL     1       2.777   2.451  19.846  0.00  0.00    +0.000 C 
ATOM     15  C   UNL     1       2.683   3.542  20.966  0.00  0.00    +0.000 C 
ENDROOT
BRANCH   6  16
ATOM     16  N   UNL     1       5.597   3.909  16.064  0.00  0.00    +0.000 N 
ATOM     17  C   UNL     1       6.967   4.348  16.303  0.00  0.00    +0.000 C 
ATOM     18  C   UNL     1       7.348   5.123  15.050  0.00  0.00    +0.000 C 
ATOM     19  C   UNL     1       6.560   4.418  13.958  0.00  0.00    +0.000 C 
ATOM     20  C   UNL     1       5.252   4.026  14.644  0.00  0.00    +0.000 C 
ENDBRANCH   6  16
TORSDOF 1
ENDMDL
MODEL 3
REMARK VINA RESULT:      -7.7      1.235      3.728
REMARK  Name = 
REMARK  2 active torsions:
REMARK  status: ('A' for Active; 'I' for Inactive)
REMARK    1  A    between atoms: C_1  and  N_2
REMARK    2  A    between atoms: C_6  and  N_7
REMARK                            x       y       z     vdW  Elec       q    Type
REMARK                         _______ _______ _______ _____ _____    ______ ____
ROOT
ATOM      1  C   UNL     1       3.652   2.937  20.003  0.00  0.00    +0.000 C 
ATOM      2  N   UNL     1       2.956   4.205  19.964  0.00  0.00    +0.000 N 
ATOM      3  C   UNL     1       2.059   4.605  20.925  0.00  0.00    +0.000 A 
ATOM      4  C   UNL     1       1.646   5.885  20.621  0.00  0.00    +0.000 A 
ATOM      5  C   UNL     1       2.370   6.337  19.480  0.00  0.00    +0.000 A 
ATOM      6  C   UNL     1       2.478   7.589  18.771  0.00  0.00    +0.000 A 
ATOM      7  C   UNL     1       3.403   7.692  17.693  0.00  0.00    +0.000 A 
ATOM      8  C   UNL     1       4.176   6.583  17.419  0.00  0.00    +0.000 A 
ATOM      9  C   UNL     1       3.993   5.316  18.011  0.00  0.00    +0.000 A 
ATOM     10  C   UNL     1       3.137   5.228  19.072  0.00  0.00    +0.000 A 
ATOM     11  C   UNL     1       5.109   4.438  17.514  0.00  0.00    +0.000 C 
ATOM     12  C   UNL     1       4.987   4.289  15.967  0.00  0.00    +0.000 C 
ATOM     13  C   UNL     1       5.365   5.697  15.419  0.00  0.00    +0.000 C 
ATOM     14  C   UNL     1       5.503   6.542  16.692  0.00  0.00    +0.000 C 
ATOM     15  C   UNL     1       6.243   5.493  17.588  0.00  0.00    +0.000 C 
ENDROOT
BRANCH   6  16
ATOM     16  N   UNL     1       1.839   8.798  19.114  0.00  0.00    +0.000 N 
ATOM     17  C   UNL     1       1.182   8.979  20.404  0.00  0.00    +0.000 C 
ATOM     18  C   UNL     1      -0.242   9.391  20.057  0.00  0.00    +0.000 C 
ATOM     19  C   UNL     1      -0.071  10.159  18.757  0.00  0.00    +0.000 C 
ATOM     20  C   UNL     1       1.058   9.419  18.039  0.00  0.00    +0.000 C 
ENDBRANCH   6  16
TORSDOF 1
ENDMDL
MODEL 4
REMARK VINA RESULT:      -7.5      1.510      4.921
REMARK  Name = 
REMARK  2 active torsions:
REMARK  status: ('A' for Active; 'I' for Inactive)
REMARK    1  A    between atoms: C_1  and  N_2
REMARK    2  A    between atoms: C_6  and  N_7
REMARK                            x       y       z     vdW  Elec       q    Type
REMARK                         _______ _______ _______ _____ _____    ______ ____
ROOT
ATOM      1  C   UNL     1       1.310   7.327  20.562  0.00  0.00    +0.000 C 
ATOM      2  N   UNL     1       2.124   7.181  19.376  0.00  0.00    +0.000 N 
ATOM      3  C   UNL     1       2.676   8.244  18.702  0.00  0.00    +0.000 A 
ATOM      4  C   UNL     1       3.449   7.746  17.674  0.00  0.00    +0.000 A 
ATOM      5  C   UNL     1       3.453   6.324  17.756  0.00  0.00    +0.000 A 
ATOM      6  C   UNL     1       4.150   5.264  17.067  0.00  0.00    +0.000 A 
ATOM      7  C   UNL     1       3.958   3.921  17.499  0.00  0.00    +0.000 A 
ATOM      8  C   UNL     1       3.137   3.721  18.589  0.00  0.00    +0.000 A 
ATOM      9  C   UNL     1       2.348   4.723  19.190  0.00  0.00    +0.000 A 
ATOM     10  C   UNL     1       2.563   6.016  18.805  0.00  0.00    +0.000 A 
ATOM     11  C   UNL     1       1.703   4.105  20.399  0.00  0.00    +0.000 C 
ATOM     12  C   UNL     1       0.770   2.944  19.938  0.00  0.00    +0.000 C 
ATOM     13  C   UNL     1       1.753   1.839  19.449  0.00  0.00    +0.000 C 
ATOM     14  C   UNL     1       3.121   2.529  19.522  0.00  0.00    +0.000 C 
ATOM     15  C   UNL     1       2.927   3.283  20.881  0.00  0.00    +0.000 C 
ENDROOT
BRANCH   6  16
ATOM     16  N   UNL     1       5.124   5.425  16.061  0.00  0.00    +0.000 N 
ATOM     17  C   UNL     1       5.053   4.693  14.801  0.00  0.00    +0.000 C 
ATOM     18  C   UNL     1       6.389   3.971  14.699  0.00  0.00    +0.000 C 
ATOM     19  C   UNL     1       7.346   4.918  15.405  0.00  0.00    +0.000 C 
ATOM     20  C   UNL     1       6.508   5.509  16.539  0.00  0.00    +0.000 C 
ENDBRANCH   6  16
TORSDOF 1
ENDMDL
MODEL 5
REMARK VINA RESULT:      -7.4      1.616      4.041
REMARK  Name = 
REMARK  2 active torsions:
REMARK  status: ('A' for Active; 'I' for Inactive)
REMARK    1  A    between atoms: C_1  and  N_2
REMARK    2  A    between atoms: C_6  and  N_7
REMARK                            x       y       z     vdW  Elec       q    Type
REMARK                         _______ _______ _______ _____ _____    ______ ____
ROOT
ATOM      1  C   UNL     1       4.421   2.524  20.043  0.00  0.00    +0.000 C 
ATOM      2  N   UNL     1       3.503   3.615  19.800  0.00  0.00    +0.000 N 
ATOM      3  C   UNL     1       2.313   3.765  20.471  0.00  0.00    +0.000 A 
ATOM      4  C   UNL     1       1.729   4.942  20.051  0.00  0.00    +0.000 A 
ATOM      5  C   UNL     1       2.620   5.596  19.152  0.00  0.00    +0.000 A 
ATOM      6  C   UNL     1       2.641   6.877  18.489  0.00  0.00    +0.000 A 
ATOM      7  C   UNL     1       3.780   7.229  17.710  0.00  0.00    +0.000 A 
ATOM      8  C   UNL     1       4.821   6.326  17.672  0.00  0.00    +0.000 A 
ATOM      9  C   UNL     1       4.765   5.020  18.201  0.00  0.00    +0.000 A 
ATOM     10  C   UNL     1       3.693   4.697  18.983  0.00  0.00    +0.000 A 
ATOM     11  C   UNL     1       6.138   4.426  18.043  0.00  0.00    +0.000 C 
ATOM     12  C   UNL     1       6.479   4.335  16.525  0.00  0.00    +0.000 C 
ATOM     13  C   UNL     1       6.675   5.818  16.090  0.00  0.00    +0.000 C 
ATOM     14  C   UNL     1       6.272   6.606  17.343  0.00  0.00    +0.000 C 
ATOM     15  C   UNL     1       6.950   5.693  18.419  0.00  0.00    +0.000 C 
ENDROOT
BRANCH   6  16
ATOM     16  N   UNL     1       1.685   7.903  18.629  0.00  0.00    +0.000 N 
ATOM     17  C   UNL     1       1.533   8.951  17.625  0.00  0.00    +0.000 C 
ATOM     18  C   UNL     1       1.693  10.252  18.399  0.00  0.00    +0.000 C 
ATOM     19  C   UNL     1       1.133   9.907  19.770  0.00  0.00    +0.000 C 
ATOM     20  C   UNL     1       1.549   8.452  19.982  0.00  0.00    +0.000 C 
ENDBRANCH   6  16
TORSDOF 1
ENDMDL
MODEL 6
REMARK VINA RESULT:      -7.2      1.436      4.029
REMARK  Name = 
REMARK  2 active torsions:
REMARK  status: ('A' for Active; 'I' for Inactive)
REMARK    1  A    between atoms: C_1  and  N_2
REMARK    2  A    between atoms: C_6  and  N_7
REMARK                            x       y       z     vdW  Elec       q    Type
REMARK                         _______ _______ _______ _____ _____    ______ ____
ROOT
ATOM      1  C   UNL     1       3.117   1.975  17.968  0.00  0.00    +0.000 C 
ATOM      2  N   UNL     1       2.669   3.324  18.237  0.00  0.00    +0.000 N 
ATOM      3  C   UNL     1       1.666   3.624  19.127  0.00  0.00    +0.000 A 
ATOM      4  C   UNL     1       1.549   4.996  19.196  0.00  0.00    +0.000 A 
ATOM      5  C   UNL     1       2.569   5.580  18.389  0.00  0.00    +0.000 A 
ATOM      6  C   UNL     1       3.036   6.924  18.151  0.00  0.00    +0.000 A 
ATOM      7  C   UNL     1       4.176   7.118  17.319  0.00  0.00    +0.000 A 
ATOM      8  C   UNL     1       4.792   5.989  16.821  0.00  0.00    +0.000 A 
ATOM      9  C   UNL     1       4.276   4.682  16.934  0.00  0.00    +0.000 A 
ATOM     10  C   UNL     1       3.208   4.490  17.764  0.00  0.00    +0.000 A 
ATOM     11  C   UNL     1       5.308   3.754  16.356  0.00  0.00    +0.000 C 
ATOM     12  C   UNL     1       5.500   4.087  14.845  0.00  0.00    +0.000 C 
ATOM     13  C   UNL     1       6.220   5.468  14.849  0.00  0.00    +0.000 C 
ATOM     14  C   UNL     1       6.219   5.858  16.333  0.00  0.00    +0.000 C 
ATOM     15  C   UNL     1       6.560   4.457  16.941  0.00  0.00    +0.000 C 
ENDROOT
BRANCH   6  16
ATOM     16  N   UNL     1       2.551   8.095  18.765  0.00  0.00    +0.000 N 
ATOM     17  C   UNL     1       1.918   8.066  20.079  0.00  0.00    +0.000 C 
ATOM     18  C   UNL     1       0.557   8.714  19.867  0.00  0.00    +0.000 C 
ATOM     19  C   UNL     1       0.825   9.723  18.762  0.00  0.00    +0.000 C 
ATOM     20  C   UNL     1       1.855   9.028  17.872  0.00  0.00    +0.000 C 
ENDBRANCH   6  16
TORSDOF 1
ENDMDL
MODEL 7
REMARK VINA RESULT:      -7.1      1.148      1.449
REMARK  Name = 
REMARK  2 active torsions:
REMARK  status: ('A' for Active; 'I' for Inactive)
REMARK    1  A    between atoms: C_1  and  N_2
REMARK    2  A    between atoms: C_6  and  N_7
REMARK                            x       y       z     vdW  Elec       q    Type
REMARK                         _______ _______ _______ _____ _____    ______ ____
ROOT
ATOM      1  C   UNL     1       4.270   4.898  16.847  0.00  0.00    +0.000 C 
ATOM      2  N   UNL     1       3.710   5.954  17.662  0.00  0.00    +0.000 N 
ATOM      3  C   UNL     1       3.688   7.274  17.278  0.00  0.00    +0.000 A 
ATOM      4  C   UNL     1       3.018   7.991  18.247  0.00  0.00    +0.000 A 
ATOM      5  C   UNL     1       2.529   7.082  19.230  0.00  0.00    +0.000 A 
ATOM      6  C   UNL     1       1.677   7.194  20.388  0.00  0.00    +0.000 A 
ATOM      7  C   UNL     1       1.324   6.012  21.100  0.00  0.00    +0.000 A 
ATOM      8  C   UNL     1       1.795   4.814  20.603  0.00  0.00    +0.000 A 
ATOM      9  C   UNL     1       2.732   4.697  19.555  0.00  0.00    +0.000 A 
ATOM     10  C   UNL     1       3.037   5.824  18.847  0.00  0.00    +0.000 A 
ATOM     11  C   UNL     1       2.879   3.228  19.264  0.00  0.00    +0.000 C 
ATOM     12  C   UNL     1       3.450   2.516  20.528  0.00  0.00    +0.000 C 
ATOM     13  C   UNL     1       2.278   2.565  21.554  0.00  0.00    +0.000 C 
ATOM     14  C   UNL     1       1.229   3.431  20.845  0.00  0.00    +0.000 C 
ATOM     15  C   UNL     1       1.382   2.846  19.401  0.00  0.00    +0.000 C 
ENDROOT
BRANCH   6  16
ATOM     16  N   UNL     1       1.034   8.365  20.839  0.00  0.00    +0.000 N 
ATOM     17  C   UNL     1       1.704   9.316  21.720  0.00  0.00    +0.000 C 
ATOM     18  C   UNL     1       0.778   9.446  22.922  0.00  0.00    +0.000 C 
ATOM     19  C   UNL     1      -0.601   9.241  22.316  0.00  0.00    +0.000 C 
ATOM     20  C   UNL     1      -0.371   8.199  21.222  0.00  0.00    +0.000 C 
ENDBRANCH   6  16
TORSDOF 1
ENDMDL
MODEL 8
REMARK VINA RESULT:      -6.9      1.743      5.409
REMARK  Name = 
REMARK  2 active torsions:
REMARK  status: ('A' for Active; 'I' for Inactive)
REMARK    1  A    between atoms: C_1  and  N_2
REMARK    2  A    between atoms: C_6  and  N_7
REMARK                            x       y       z     vdW  Elec       q    Type
REMARK                         _______ _______ _______ _____ _____    ______ ____
ROOT
ATOM      1  C   UNL     1       3.538   8.567  17.384  0.00  0.00    +0.000 C 
ATOM      2  N   UNL     1       3.227   7.414  18.200  0.00  0.00    +0.000 N 
ATOM      3  C   UNL     1       2.192   7.384  19.104  0.00  0.00    +0.000 A 
ATOM      4  C   UNL     1       2.133   6.117  19.647  0.00  0.00    +0.000 A 
ATOM      5  C   UNL     1       3.107   5.300  19.001  0.00  0.00    +0.000 A 
ATOM      6  C   UNL     1       3.444   3.898  19.034  0.00  0.00    +0.000 A 
ATOM      7  C   UNL     1       4.453   3.413  18.154  0.00  0.00    +0.000 A 
ATOM      8  C   UNL     1       5.021   4.321  17.285  0.00  0.00    +0.000 A 
ATOM      9  C   UNL     1       4.800   5.713  17.329  0.00  0.00    +0.000 A 
ATOM     10  C   UNL     1       3.804   6.173  18.142  0.00  0.00    +0.000 A 
ATOM     11  C   UNL     1       5.519   6.306  16.148  0.00  0.00    +0.000 C 
ATOM     12  C   UNL     1       7.047   6.038  16.298  0.00  0.00    +0.000 C 
ATOM     13  C   UNL     1       7.188   4.503  16.072  0.00  0.00    +0.000 C 
ATOM     14  C   UNL     1       5.731   4.029  15.981  0.00  0.00    +0.000 C 
ATOM     15  C   UNL     1       5.159   5.203  15.119  0.00  0.00    +0.000 C 
ENDROOT
BRANCH   6  16
ATOM     16  N   UNL     1       2.783   2.899  19.777  0.00  0.00    +0.000 N 
ATOM     17  C   UNL     1       1.396   2.535  19.508  0.00  0.00    +0.000 C 
ATOM     18  C   UNL     1       0.686   2.708  20.843  0.00  0.00    +0.000 C 
ATOM     19  C   UNL     1       1.769   2.369  21.854  0.00  0.00    +0.000 C 
ATOM     20  C   UNL     1       3.048   2.914  21.219  0.00  0.00    +0.000 C 
ENDBRANCH   6  16
TORSDOF 1
ENDMDL
MODEL 9
REMARK VINA RESULT:      -6.8      0.755      1.186
REMARK  Name = 
REMARK  2 active torsions:
REMARK  status: ('A' for Active; 'I' for Inactive)
REMARK    1  A    between atoms: C_1  and  N_2
REMARK    2  A    between atoms: C_6  and  N_7
REMARK                            x       y       z     vdW  Elec       q    Type
REMARK                         _______ _______ _______ _____ _____    ______ ____
ROOT
ATOM      1  C   UNL     1       4.598   4.686  16.994  0.00  0.00    +0.000 C 
ATOM      2  N   UNL     1       3.946   5.810  17.629  0.00  0.00    +0.000 N 
ATOM      3  C   UNL     1       3.961   7.084  17.111  0.00  0.00    +0.000 A 
ATOM      4  C   UNL     1       3.185   7.886  17.921  0.00  0.00    +0.000 A 
ATOM      5  C   UNL     1       2.593   7.074  18.931  0.00  0.00    +0.000 A 
ATOM      6  C   UNL     1       1.616   7.290  19.971  0.00  0.00    +0.000 A 
ATOM      7  C   UNL     1       1.191   6.181  20.756  0.00  0.00    +0.000 A 
ATOM      8  C   UNL     1       1.719   4.946  20.441  0.00  0.00    +0.000 A 
ATOM      9  C   UNL     1       2.767   4.738  19.522  0.00  0.00    +0.000 A 
ATOM     10  C   UNL     1       3.145   5.791  18.739  0.00  0.00    +0.000 A 
ATOM     11  C   UNL     1       2.952   3.250  19.401  0.00  0.00    +0.000 C 
ATOM     12  C   UNL     1       3.381   2.679  20.787  0.00  0.00    +0.000 C 
ATOM     13  C   UNL     1       2.102   2.813  21.666  0.00  0.00    +0.000 C 
ATOM     14  C   UNL     1       1.135   3.587  20.760  0.00  0.00    +0.000 C 
ATOM     15  C   UNL     1       1.451   2.860  19.410  0.00  0.00    +0.000 C 
ENDROOT
BRANCH   6  16
ATOM     16  N   UNL     1       0.922   8.490  20.225  0.00  0.00    +0.000 N 
ATOM     17  C   UNL     1       0.705   9.486  19.181  0.00  0.00    +0.000 C 
ATOM     18  C   UNL     1       1.283  10.774  19.750  0.00  0.00    +0.000 C 
ATOM     19  C   UNL     1       1.040  10.629  21.244  0.00  0.00    +0.000 C 
ATOM     20  C   UNL     1       1.235   9.135  21.504  0.00  0.00    +0.000 C 
ENDBRANCH   6  16
TORSDOF 1
ENDMDL
