MODEL 1
REMARK VINA RESULT:      -8.0      0.000      0.000
REMARK  Name = 
REMARK  6 active torsions:
REMARK  status: ('A' for Active; 'I' for Inactive)
REMARK    1  A    between atoms: C_1  and  C_2
REMARK    2  A    between atoms: C_7  and  C_8
REMARK    3  A    between atoms: C_8  and  S_9
REMARK    4  A    between atoms: S_9  and  C_10
REMARK    5  A    between atoms: N_12  and  C_13
REMARK    6  A    between atoms: C_13  and  C_14
REMARK                            x       y       z     vdW  Elec       q    Type
REMARK                         _______ _______ _______ _____ _____    ______ ____
ROOT
ATOM      1  C   UNL     1       5.162   5.009  17.731  0.00  0.00    +0.000 A 
ATOM      2  C   UNL     1       4.795   6.231  18.248  0.00  0.00    +0.000 A 
ATOM      3  N   UNL     1       3.476   6.146  18.634  0.00  0.00    +0.000 N 
ATOM      4  C   UNL     1       2.978   4.885  18.366  0.00  0.00    +0.000 A 
ATOM      5  C   UNL     1       1.700   4.332  18.567  0.00  0.00    +0.000 A 
ATOM      6  C   UNL     1       1.492   2.999  18.203  0.00  0.00    +0.000 A 
ATOM      7  C   UNL     1       2.521   2.238  17.661  0.00  0.00    +0.000 A 
ATOM      8  C   UNL     1       3.788   2.797  17.460  0.00  0.00    +0.000 A 
ATOM      9  C   UNL     1       4.028   4.145  17.811  0.00  0.00    +0.000 A 
ENDROOT
BRANCH   1  10
ATOM     10  S   UNL     1       6.699   4.539  17.034  0.00  0.00    +0.000 S 
BRANCH  10  11
ATOM     11  C   UNL     1       6.866   5.601  15.573  0.00  0.00    +0.000 C 
BRANCH  11  18
ATOM     12  C   UNL     1       8.678   5.778  13.138  0.00  0.00    +0.000 C 
ATOM     13  C   UNL     1       7.446   4.914  13.159  0.00  0.00    +0.000 A 
ATOM     14  C   UNL     1       7.123   4.181  12.002  0.00  0.00    +0.000 A 
ATOM     15  C   UNL     1       5.986   3.375  11.956  0.00  0.00    +0.000 A 
ATOM     16  C   UNL     1       5.152   3.294  13.065  0.00  0.00    +0.000 A 
ATOM     17  C   UNL     1       5.458   4.013  14.220  0.00  0.00    +0.000 A 
ATOM     18  C   UNL     1       6.607   4.826  14.293  0.00  0.00    +0.000 A 
ENDBRANCH  11  18
ENDBRANCH  10  11
ENDBRANCH   1  10
BRANCH   3  19
ATOM     19  C   UNL     1       2.766   7.180  19.376  0.00  0.00    +0.000 C 
BRANCH  19  20
ATOM     20  C   UNL     1       2.148   8.268  18.510  0.00  0.00    +0.000 C 
ATOM     21  O   UNL     1       2.494   8.455  17.343  0.00  0.00    +0.000 OA
ATOM     22  N   UNL     1       1.185   9.080  19.136  0.00  0.00    +0.000 N 
ATOM     23  C   UNL     1       0.488  10.082  18.326  0.00  0.00    +0.000 C 
ATOM     24  C   UNL     1       1.109  11.468  18.484  0.00  0.00    +0.000 C 
ATOM     25  C   UNL     1       0.678  12.195  19.757  0.00  0.00    +0.000 C 
ATOM     26  C   UNL     1       1.013  11.468  21.057  0.00  0.00    +0.000 C 
ATOM     27  C   UNL     1       0.223  10.173  21.234  0.00  0.00    +0.000 C 
ATOM     28  C   UNL     1       0.877   8.970  20.561  0.00  0.00    +0.000 C 
ENDBRANCH  19  20
ENDBRANCH   3  19
TORSDOF 5
ENDMDL
MODEL 2
REMARK VINA RESULT:      -7.7      3.725      6.913
REMARK  Name = 
REMARK  6 active torsions:
REMARK  status: ('A' for Active; 'I' for Inactive)
REMARK    1  A    between atoms: C_1  and  C_2
REMARK    2  A    between atoms: C_7  and  C_8
REMARK    3  A    between atoms: C_8  and  S_9
REMARK    4  A    between atoms: S_9  and  C_10
REMARK    5  A    between atoms: N_12  and  C_13
REMARK    6  A    between atoms: C_13  and  C_14
REMARK                            x       y       z     vdW  Elec       q    Type
REMARK                         _______ _______ _______ _____ _____    ______ ____
ROOT
ATOM      1  C   UNL     1       1.099   9.389  19.006  0.00  0.00    +0.000 A 
ATOM      2  C   UNL     1       0.305  10.234  18.265  0.00  0.00    +0.000 A 
ATOM      3  N   UNL     1      -0.539  10.890  19.133  0.00  0.00    +0.000 N 
ATOM      4  C   UNL     1      -0.309  10.475  20.431  0.00  0.00    +0.000 A 
ATOM      5  C   UNL     1      -0.922  10.842  21.643  0.00  0.00    +0.000 A 
ATOM      6  C   UNL     1      -0.459  10.252  22.822  0.00  0.00    +0.000 A 
ATOM      7  C   UNL     1       0.581   9.330  22.799  0.00  0.00    +0.000 A 
ATOM      8  C   UNL     1       1.182   8.967  21.588  0.00  0.00    +0.000 A 
ATOM      9  C   UNL     1       0.731   9.540  20.378  0.00  0.00    +0.000 A 
ENDROOT
BRANCH   1  10
ATOM     10  S   UNL     1       2.319   8.267  18.441  0.00  0.00    +0.000 S 
BRANCH  10  11
ATOM     11  C   UNL     1       2.166   6.848  19.561  0.00  0.00    +0.000 C 
BRANCH  11  18
ATOM     12  C   UNL     1       0.888   4.198  20.328  0.00  0.00    +0.000 C 
ATOM     13  C   UNL     1       1.888   4.311  19.210  0.00  0.00    +0.000 A 
ATOM     14  C   UNL     1       2.248   3.142  18.513  0.00  0.00    +0.000 A 
ATOM     15  C   UNL     1       3.181   3.182  17.478  0.00  0.00    +0.000 A 
ATOM     16  C   UNL     1       3.772   4.390  17.126  0.00  0.00    +0.000 A 
ATOM     17  C   UNL     1       3.425   5.558  17.805  0.00  0.00    +0.000 A 
ATOM     18  C   UNL     1       2.477   5.544  18.848  0.00  0.00    +0.000 A 
ENDBRANCH  11  18
ENDBRANCH  10  11
ENDBRANCH   1  10
BRANCH   3  19
ATOM     19  C   UNL     1      -1.421  11.987  18.755  0.00  0.00    +0.000 C 
BRANCH  19  20
ATOM     20  C   UNL     1      -2.632  11.569  17.932  0.00  0.00    +0.000 C 
ATOM     21  O   UNL     1      -2.535  11.195  16.763  0.00  0.00    +0.000 OA
ATOM     22  N   UNL     1      -3.879  11.677  18.575  0.00  0.00    +0.000 N 
ATOM     23  C   UNL     1      -5.069  11.202  17.866  0.00  0.00    +0.000 C 
ATOM     24  C   UNL     1      -5.820  12.345  17.190  0.00  0.00    +0.000 C 
ATOM     25  C   UNL     1      -6.706  13.149  18.141  0.00  0.00    +0.000 C 
ATOM     26  C   UNL     1      -5.969  13.803  19.307  0.00  0.00    +0.000 C 
ATOM     27  C   UNL     1      -5.403  12.787  20.297  0.00  0.00    +0.000 C 
ATOM     28  C   UNL     1      -4.024  12.265  19.906  0.00  0.00    +0.000 C 
ENDBRANCH  19  20
ENDBRANCH   3  19
TORSDOF 5
ENDMDL
MODEL 3
REMARK VINA RESULT:      -7.5      3.690      7.003
REMARK  Name = 
REMARK  6 active torsions:
REMARK  status: ('A' for Active; 'I' for Inactive)
REMARK    1  A    between atoms: C_1  and  C_2
REMARK    2  A    between atoms: C_7  and  C_8
REMARK    3  A    between atoms: C_8  and  S_9
REMARK    4  A    between atoms: S_9  and  C_10
REMARK    5  A    between atoms: N_12  and  C_13
REMARK    6  A    between atoms: C_13  and  C_14
REMARK                            x       y       z     vdW  Elec       q    Type
REMARK                         _______ _______ _______ _____ _____    ______ ____
ROOT
ATOM      1  C   UNL     1       1.250   9.566  19.167  0.00  0.00    +0.000 A 
ATOM      2  C   UNL     1       1.369  10.879  18.773  0.00  0.00    +0.000 A 
ATOM      3  N   UNL     1       0.811  11.667  19.754  0.00  0.00    +0.000 N 
ATOM      4  C   UNL     1       0.321  10.881  20.780  0.00  0.00    +0.000 A 
ATOM      5  C   UNL     1      -0.339  11.222  21.974  0.00  0.00    +0.000 A 
ATOM      6  C   UNL     1      -0.711  10.192  22.842  0.00  0.00    +0.000 A 
ATOM      7  C   UNL     1      -0.433   8.865  22.535  0.00  0.00    +0.000 A 
ATOM      8  C   UNL     1       0.219   8.534  21.341  0.00  0.00    +0.000 A 
ATOM      9  C   UNL     1       0.601   9.552  20.440  0.00  0.00    +0.000 A 
ENDROOT
BRANCH   1  10
ATOM     10  S   UNL     1       1.730   8.121  18.302  0.00  0.00    +0.000 S 
BRANCH  10  11
ATOM     11  C   UNL     1       2.686   7.175  19.519  0.00  0.00    +0.000 C 
BRANCH  11  18
ATOM     12  C   UNL     1       3.713   5.248  17.404  0.00  0.00    +0.000 C 
ATOM     13  C   UNL     1       2.786   4.809  18.505  0.00  0.00    +0.000 A 
ATOM     14  C   UNL     1       2.376   3.463  18.537  0.00  0.00    +0.000 A 
ATOM     15  C   UNL     1       1.506   3.002  19.524  0.00  0.00    +0.000 A 
ATOM     16  C   UNL     1       1.030   3.879  20.491  0.00  0.00    +0.000 A 
ATOM     17  C   UNL     1       1.428   5.216  20.474  0.00  0.00    +0.000 A 
ATOM     18  C   UNL     1       2.315   5.702  19.492  0.00  0.00    +0.000 A 
ENDBRANCH  11  18
ENDBRANCH  10  11
ENDBRANCH   1  10
BRANCH   3  19
ATOM     19  C   UNL     1       0.885  13.122  19.784  0.00  0.00    +0.000 C 
BRANCH  19  20
ATOM     20  C   UNL     1       2.103  13.678  20.509  0.00  0.00    +0.000 C 
ATOM     21  O   UNL     1       2.173  13.725  21.737  0.00  0.00    +0.000 OA
ATOM     22  N   UNL     1       3.131  14.178  19.688  0.00  0.00    +0.000 N 
ATOM     23  C   UNL     1       4.366  14.639  20.326  0.00  0.00    +0.000 C 
ATOM     24  C   UNL     1       4.380  16.155  20.504  0.00  0.00    +0.000 C 
ATOM     25  C   UNL     1       4.747  16.921  19.235  0.00  0.00    +0.000 C 
ATOM     26  C   UNL     1       3.822  16.677  18.045  0.00  0.00    +0.000 C 
ATOM     27  C   UNL     1       3.911  15.251  17.507  0.00  0.00    +0.000 C 
ATOM     28  C   UNL     1       2.996  14.271  18.235  0.00  0.00    +0.000 C 
ENDBRANCH  19  20
ENDBRANCH   3  19
TORSDOF 5
ENDMDL
MODEL 4
REMARK VINA RESULT:      -7.4      3.694      6.833
REMARK  Name = 
REMARK  6 active torsions:
REMARK  status: ('A' for Active; 'I' for Inactive)
REMARK    1  A    between atoms: C_1  and  C_2
REMARK    2  A    between atoms: C_7  and  C_8
REMARK    3  A    between atoms: C_8  and  S_9
REMARK    4  A    between atoms: S_9  and  C_10
REMARK    5  A    between atoms: N_12  and  C_13
REMARK    6  A    between atoms: C_13  and  C_14
REMARK                            x       y       z     vdW  Elec       q    Type
REMARK                         _______ _______ _______ _____ _____    ______ ____
ROOT
ATOM      1  C   UNL     1       0.699   9.695  18.821  0.00  0.00    +0.000 A 
ATOM      2  C   UNL     1       0.859  10.100  20.127  0.00  0.00    +0.000 A 
ATOM      3  N   UNL     1      -0.267  10.802  20.491  0.00  0.00    +0.000 N 
ATOM      4  C   UNL     1      -1.156  10.868  19.435  0.00  0.00    +0.000 A 
ATOM      5  C   UNL     1      -2.416  11.482  19.322  0.00  0.00    +0.000 A 
ATOM      6  C   UNL     1      -3.101  11.365  18.109  0.00  0.00    +0.000 A 
ATOM      7  C   UNL     1      -2.553  10.660  17.044  0.00  0.00    +0.000 A 
ATOM      8  C   UNL     1      -1.296  10.056  17.164  0.00  0.00    +0.000 A 
ATOM      9  C   UNL     1      -0.575  10.162  18.375  0.00  0.00    +0.000 A 
ENDROOT
BRANCH   1  10
ATOM     10  S   UNL     1       1.824   8.815  17.807  0.00  0.00    +0.000 S 
BRANCH  10  11
ATOM     11  C   UNL     1       2.400   7.457  18.862  0.00  0.00    +0.000 C 
BRANCH  11  18
ATOM     12  C   UNL     1       1.730   4.491  18.886  0.00  0.00    +0.000 C 
ATOM     13  C   UNL     1       2.873   5.048  18.081  0.00  0.00    +0.000 A 
ATOM     14  C   UNL     1       3.659   4.155  17.330  0.00  0.00    +0.000 A 
ATOM     15  C   UNL     1       4.741   4.610  16.576  0.00  0.00    +0.000 A 
ATOM     16  C   UNL     1       5.054   5.964  16.565  0.00  0.00    +0.000 A 
ATOM     17  C   UNL     1       4.284   6.863  17.303  0.00  0.00    +0.000 A 
ATOM     18  C   UNL     1       3.180   6.427  18.064  0.00  0.00    +0.000 A 
ENDBRANCH  11  18
ENDBRANCH  10  11
ENDBRANCH   1  10
BRANCH   3  19
ATOM     19  C   UNL     1      -0.552  11.257  21.847  0.00  0.00    +0.000 C 
BRANCH  19  20
ATOM     20  C   UNL     1      -0.419  12.760  22.050  0.00  0.00    +0.000 C 
ATOM     21  O   UNL     1       0.658  13.345  21.939  0.00  0.00    +0.000 OA
ATOM     22  N   UNL     1      -1.596  13.438  22.417  0.00  0.00    +0.000 N 
ATOM     23  C   UNL     1      -1.549  14.897  22.534  0.00  0.00    +0.000 C 
ATOM     24  C   UNL     1      -1.372  15.343  23.984  0.00  0.00    +0.000 C 
ATOM     25  C   UNL     1      -2.664  15.317  24.799  0.00  0.00    +0.000 C 
ATOM     26  C   UNL     1      -3.339  13.950  24.891  0.00  0.00    +0.000 C 
ATOM     27  C   UNL     1      -3.884  13.465  23.550  0.00  0.00    +0.000 C 
ATOM     28  C   UNL     1      -2.846  12.735  22.704  0.00  0.00    +0.000 C 
ENDBRANCH  19  20
ENDBRANCH   3  19
TORSDOF 5
ENDMDL
MODEL 5
REMARK VINA RESULT:      -7.4      3.385      6.477
REMARK  Name = 
REMARK  6 active torsions:
REMARK  status: ('A' for Active; 'I' for Inactive)
REMARK    1  A    between atoms: C_1  and  C_2
REMARK    2  A    between atoms: C_7  and  C_8
REMARK    3  A    between atoms: C_8  and  S_9
REMARK    4  A    between atoms: S_9  and  C_10
REMARK    5  A    between atoms: N_12  and  C_13
REMARK    6  A    between atoms: C_13  and  C_14
REMARK                            x       y       z     vdW  Elec       q    Type
REMARK                         _______ _______ _______ _____ _____    ______ ____
ROOT
ATOM      1  C   UNL     1       0.880   9.661  18.796  0.00  0.00    +0.000 A 
ATOM      2  C   UNL     1      -0.150  10.438  18.317  0.00  0.00    +0.000 A 
ATOM      3  N   UNL     1      -0.915  10.834  19.391  0.00  0.00    +0.000 N 
ATOM      4  C   UNL     1      -0.400  10.316  20.564  0.00  0.00    +0.000 A 
ATOM      5  C   UNL     1      -0.836  10.428  21.897  0.00  0.00    +0.000 A 
ATOM      6  C   UNL     1      -0.090   9.793  22.893  0.00  0.00    +0.000 A 
ATOM      7  C   UNL     1       1.056   9.072  22.576  0.00  0.00    +0.000 A 
ATOM      8  C   UNL     1       1.480   8.960  21.247  0.00  0.00    +0.000 A 
ATOM      9  C   UNL     1       0.742   9.585  20.216  0.00  0.00    +0.000 A 
ENDROOT
BRANCH   1  10
ATOM     10  S   UNL     1       2.135   8.837  17.894  0.00  0.00    +0.000 S 
BRANCH  10  11
ATOM     11  C   UNL     1       2.298   7.234  18.726  0.00  0.00    +0.000 C 
BRANCH  11  18
ATOM     12  C   UNL     1       1.676   4.276  18.401  0.00  0.00    +0.000 C 
ATOM     13  C   UNL     1       2.896   4.910  17.790  0.00  0.00    +0.000 A 
ATOM     14  C   UNL     1       3.779   4.094  17.059  0.00  0.00    +0.000 A 
ATOM     15  C   UNL     1       4.933   4.621  16.482  0.00  0.00    +0.000 A 
ATOM     16  C   UNL     1       5.225   5.972  16.631  0.00  0.00    +0.000 A 
ATOM     17  C   UNL     1       4.360   6.796  17.352  0.00  0.00    +0.000 A 
ATOM     18  C   UNL     1       3.182   6.286  17.934  0.00  0.00    +0.000 A 
ENDBRANCH  11  18
ENDBRANCH  10  11
ENDBRANCH   1  10
BRANCH   3  19
ATOM     19  C   UNL     1      -2.003  11.800  19.317  0.00  0.00    +0.000 C 
BRANCH  19  20
ATOM     20  C   UNL     1      -1.722  13.124  20.014  0.00  0.00    +0.000 C 
ATOM     21  O   UNL     1      -0.716  13.793  19.774  0.00  0.00    +0.000 OA
ATOM     22  N   UNL     1      -2.662  13.520  20.983  0.00  0.00    +0.000 N 
ATOM     23  C   UNL     1      -2.494  14.829  21.619  0.00  0.00    +0.000 C 
ATOM     24  C   UNL     1      -1.806  14.715  22.977  0.00  0.00    +0.000 C 
ATOM     25  C   UNL     1      -2.740  14.284  24.107  0.00  0.00    +0.000 C 
ATOM     26  C   UNL     1      -3.420  12.933  23.899  0.00  0.00    +0.000 C 
ATOM     27  C   UNL     1      -4.418  12.941  22.743  0.00  0.00    +0.000 C 
ATOM     28  C   UNL     1      -3.776  12.664  21.388  0.00  0.00    +0.000 C 
ENDBRANCH  19  20
ENDBRANCH   3  19
TORSDOF 5
ENDMDL
MODEL 6
REMARK VINA RESULT:      -7.4      3.885      7.448
REMARK  Name = 
REMARK  6 active torsions:
REMARK  status: ('A' for Active; 'I' for Inactive)
REMARK    1  A    between atoms: C_1  and  C_2
REMARK    2  A    between atoms: C_7  and  C_8
REMARK    3  A    between atoms: C_8  and  S_9
REMARK    4  A    between atoms: S_9  and  C_10
REMARK    5  A    between atoms: N_12  and  C_13
REMARK    6  A    between atoms: C_13  and  C_14
REMARK                            x       y       z     vdW  Elec       q    Type
REMARK                         _______ _______ _______ _____ _____    ______ ____
ROOT
ATOM      1  C   UNL     1       0.666  10.520  18.821  0.00  0.00    +0.000 A 
ATOM      2  C   UNL     1       1.064  11.465  19.738  0.00  0.00    +0.000 A 
ATOM      3  N   UNL     1      -0.033  12.231  20.059  0.00  0.00    +0.000 N 
ATOM      4  C   UNL     1      -1.141  11.801  19.354  0.00  0.00    +0.000 A 
ATOM      5  C   UNL     1      -2.467  12.271  19.335  0.00  0.00    +0.000 A 
ATOM      6  C   UNL     1      -3.390  11.613  18.517  0.00  0.00    +0.000 A 
ATOM      7  C   UNL     1      -3.010  10.521  17.746  0.00  0.00    +0.000 A 
ATOM      8  C   UNL     1      -1.687  10.063  17.767  0.00  0.00    +0.000 A 
ATOM      9  C   UNL     1      -0.729  10.711  18.578  0.00  0.00    +0.000 A 
ENDROOT
BRANCH   1  10
ATOM     10  S   UNL     1       1.638   9.307  18.013  0.00  0.00    +0.000 S 
BRANCH  10  11
ATOM     11  C   UNL     1       1.970   8.076  19.302  0.00  0.00    +0.000 C 
BRANCH  11  18
ATOM     12  C   UNL     1       1.741   5.279  20.472  0.00  0.00    +0.000 C 
ATOM     13  C   UNL     1       2.627   5.585  19.295  0.00  0.00    +0.000 A 
ATOM     14  C   UNL     1       3.382   4.537  18.737  0.00  0.00    +0.000 A 
ATOM     15  C   UNL     1       4.233   4.763  17.655  0.00  0.00    +0.000 A 
ATOM     16  C   UNL     1       4.346   6.040  17.119  0.00  0.00    +0.000 A 
ATOM     17  C   UNL     1       3.603   7.090  17.660  0.00  0.00    +0.000 A 
ATOM     18  C   UNL     1       2.729   6.883  18.747  0.00  0.00    +0.000 A 
ENDBRANCH  11  18
ENDBRANCH  10  11
ENDBRANCH   1  10
BRANCH   3  19
ATOM     19  C   UNL     1      -0.059  13.233  21.117  0.00  0.00    +0.000 C 
BRANCH  19  20
ATOM     20  C   UNL     1      -0.837  12.821  22.359  0.00  0.00    +0.000 C 
ATOM     21  O   UNL     1      -0.566  11.804  22.997  0.00  0.00    +0.000 OA
ATOM     22  N   UNL     1      -1.915  13.653  22.713  0.00  0.00    +0.000 N 
ATOM     23  C   UNL     1      -2.641  13.359  23.950  0.00  0.00    +0.000 C 
ATOM     24  C   UNL     1      -3.919  12.568  23.684  0.00  0.00    +0.000 C 
ATOM     25  C   UNL     1      -5.087  13.426  23.200  0.00  0.00    +0.000 C 
ATOM     26  C   UNL     1      -4.827  14.195  21.907  0.00  0.00    +0.000 C 
ATOM     27  C   UNL     1      -3.769  15.284  22.065  0.00  0.00    +0.000 C 
ATOM     28  C   UNL     1      -2.344  14.775  21.879  0.00  0.00    +0.000 C 
ENDBRANCH  19  20
ENDBRANCH   3  19
TORSDOF 5
ENDMDL
MODEL 7
REMARK VINA RESULT:      -7.4      3.443      6.584
REMARK  Name = 
REMARK  6 active torsions:
REMARK  status: ('A' for Active; 'I' for Inactive)
REMARK    1  A    between atoms: C_1  and  C_2
REMARK    2  A    between atoms: C_7  and  C_8
REMARK    3  A    between atoms: C_8  and  S_9
REMARK    4  A    between atoms: S_9  and  C_10
REMARK    5  A    between atoms: N_12  and  C_13
REMARK    6  A    between atoms: C_13  and  C_14
REMARK                            x       y       z     vdW  Elec       q    Type
REMARK                         _______ _______ _______ _____ _____    ______ ____
ROOT
ATOM      1  C   UNL     1       1.258   9.893  18.969  0.00  0.00    +0.000 A 
ATOM      2  C   UNL     1       1.337  11.243  18.712  0.00  0.00    +0.000 A 
ATOM      3  N   UNL     1       0.808  11.910  19.793  0.00  0.00    +0.000 N 
ATOM      4  C   UNL     1       0.377  11.010  20.749  0.00  0.00    +0.000 A 
ATOM      5  C   UNL     1      -0.236  11.209  21.999  0.00  0.00    +0.000 A 
ATOM      6  C   UNL     1      -0.552  10.085  22.767  0.00  0.00    +0.000 A 
ATOM      7  C   UNL     1      -0.265   8.804  22.309  0.00  0.00    +0.000 A 
ATOM      8  C   UNL     1       0.341   8.615  21.062  0.00  0.00    +0.000 A 
ATOM      9  C   UNL     1       0.665   9.731  20.258  0.00  0.00    +0.000 A 
ENDROOT
BRANCH   1  10
ATOM     10  S   UNL     1       1.726   8.558  17.937  0.00  0.00    +0.000 S 
BRANCH  10  11
ATOM     11  C   UNL     1       2.593   7.420  19.051  0.00  0.00    +0.000 C 
BRANCH  11  18
ATOM     12  C   UNL     1       5.039   6.826  17.346  0.00  0.00    +0.000 C 
ATOM     13  C   UNL     1       3.966   5.801  17.593  0.00  0.00    +0.000 A 
ATOM     14  C   UNL     1       4.103   4.533  16.997  0.00  0.00    +0.000 A 
ATOM     15  C   UNL     1       3.134   3.546  17.177  0.00  0.00    +0.000 A 
ATOM     16  C   UNL     1       2.012   3.814  17.952  0.00  0.00    +0.000 A 
ATOM     17  C   UNL     1       1.861   5.065  18.551  0.00  0.00    +0.000 A 
ATOM     18  C   UNL     1       2.833   6.073  18.392  0.00  0.00    +0.000 A 
ENDBRANCH  11  18
ENDBRANCH  10  11
ENDBRANCH   1  10
BRANCH   3  19
ATOM     19  C   UNL     1       0.858  13.356  19.975  0.00  0.00    +0.000 C 
BRANCH  19  20
ATOM     20  C   UNL     1       2.091  13.858  20.712  0.00  0.00    +0.000 C 
ATOM     21  O   UNL     1       2.139  13.929  21.940  0.00  0.00    +0.000 OA
ATOM     22  N   UNL     1       3.162  14.278  19.903  0.00  0.00    +0.000 N 
ATOM     23  C   UNL     1       4.409  14.683  20.557  0.00  0.00    +0.000 C 
ATOM     24  C   UNL     1       4.507  16.200  20.701  0.00  0.00    +0.000 C 
ATOM     25  C   UNL     1       4.943  16.914  19.423  0.00  0.00    +0.000 C 
ATOM     26  C   UNL     1       4.029  16.694  18.220  0.00  0.00    +0.000 C 
ATOM     27  C   UNL     1       4.047  15.254  17.715  0.00  0.00    +0.000 C 
ATOM     28  C   UNL     1       3.062  14.345  18.446  0.00  0.00    +0.000 C 
ENDBRANCH  19  20
ENDBRANCH   3  19
TORSDOF 5
ENDMDL
MODEL 8
REMARK VINA RESULT:      -7.4      3.972      9.085
REMARK  Name = 
REMARK  6 active torsions:
REMARK  status: ('A' for Active; 'I' for Inactive)
REMARK    1  A    between atoms: C_1  and  C_2
REMARK    2  A    between atoms: C_7  and  C_8
REMARK    3  A    between atoms: C_8  and  S_9
REMARK    4  A    between atoms: S_9  and  C_10
REMARK    5  A    between atoms: N_12  and  C_13
REMARK    6  A    between atoms: C_13  and  C_14
REMARK                            x       y       z     vdW  Elec       q    Type
REMARK                         _______ _______ _______ _____ _____    ______ ____
ROOT
ATOM      1  C   UNL     1       0.738  10.721  19.604  0.00  0.00    +0.000 A 
ATOM      2  C   UNL     1       1.320   9.480  19.487  0.00  0.00    +0.000 A 
ATOM      3  N   UNL     1       1.059   8.781  20.644  0.00  0.00    +0.000 N 
ATOM      4  C   UNL     1       0.322   9.556  21.518  0.00  0.00    +0.000 A 
ATOM      5  C   UNL     1      -0.166   9.288  22.810  0.00  0.00    +0.000 A 
ATOM      6  C   UNL     1      -0.908  10.280  23.456  0.00  0.00    +0.000 A 
ATOM      7  C   UNL     1      -1.160  11.499  22.838  0.00  0.00    +0.000 A 
ATOM      8  C   UNL     1      -0.667  11.760  21.554  0.00  0.00    +0.000 A 
ATOM      9  C   UNL     1       0.093  10.780  20.877  0.00  0.00    +0.000 A 
ENDROOT
BRANCH   1  10
ATOM     10  S   UNL     1       0.782  12.057  18.472  0.00  0.00    +0.000 S 
BRANCH  10  11
ATOM     11  C   UNL     1      -0.895  12.746  18.536  0.00  0.00    +0.000 C 
BRANCH  11  18
ATOM     12  C   UNL     1      -3.690  12.539  19.714  0.00  0.00    +0.000 C 
ATOM     13  C   UNL     1      -3.221  11.643  18.600  0.00  0.00    +0.000 A 
ATOM     14  C   UNL     1      -4.110  10.670  18.106  0.00  0.00    +0.000 A 
ATOM     15  C   UNL     1      -3.728   9.801  17.085  0.00  0.00    +0.000 A 
ATOM     16  C   UNL     1      -2.450   9.888  16.546  0.00  0.00    +0.000 A 
ATOM     17  C   UNL     1      -1.557  10.847  17.024  0.00  0.00    +0.000 A 
ATOM     18  C   UNL     1      -1.925  11.743  18.047  0.00  0.00    +0.000 A 
ENDBRANCH  11  18
ENDBRANCH  10  11
ENDBRANCH   1  10
BRANCH   3  19
ATOM     19  C   UNL     1       1.368   7.370  20.842  0.00  0.00    +0.000 C 
BRANCH  19  20
ATOM     20  C   UNL     1       2.226   6.751  19.748  0.00  0.00    +0.000 C 
ATOM     21  O   UNL     1       2.707   7.419  18.832  0.00  0.00    +0.000 OA
ATOM     22  N   UNL     1       2.404   5.357  19.820  0.00  0.00    +0.000 N 
ATOM     23  C   UNL     1       3.297   4.720  18.850  0.00  0.00    +0.000 C 
ATOM     24  C   UNL     1       2.523   4.111  17.683  0.00  0.00    +0.000 C 
ATOM     25  C   UNL     1       1.895   2.755  18.000  0.00  0.00    +0.000 C 
ATOM     26  C   UNL     1       0.907   2.760  19.163  0.00  0.00    +0.000 C 
ATOM     27  C   UNL     1       1.573   3.043  20.507  0.00  0.00    +0.000 C 
ATOM     28  C   UNL     1       1.714   4.531  20.810  0.00  0.00    +0.000 C 
ENDBRANCH  19  20
ENDBRANCH   3  19
TORSDOF 5
ENDMDL
MODEL 9
REMARK VINA RESULT:      -7.3      3.455      9.312
REMARK  Name = 
REMARK  6 active torsions:
REMARK  status: ('A' for Active; 'I' for Inactive)
REMARK    1  A    between atoms: C_1  and  C_2
REMARK    2  A    between atoms: C_7  and  C_8
REMARK    3  A    between atoms: C_8  and  S_9
REMARK    4  A    between atoms: S_9  and  C_10
REMARK    5  A    between atoms: N_12  and  C_13
REMARK    6  A    between atoms: C_13  and  C_14
REMARK                            x       y       z     vdW  Elec       q    Type
REMARK                         _______ _______ _______ _____ _____    ______ ____
ROOT
ATOM      1  C   UNL     1       0.500   9.898  19.023  0.00  0.00    +0.000 A 
ATOM      2  C   UNL     1       1.420   8.914  18.742  0.00  0.00    +0.000 A 
ATOM      3  N   UNL     1       1.763   8.306  19.928  0.00  0.00    +0.000 N 
ATOM      4  C   UNL     1       1.084   8.889  20.980  0.00  0.00    +0.000 A 
ATOM      5  C   UNL     1       1.112   8.625  22.362  0.00  0.00    +0.000 A 
ATOM      6  C   UNL     1       0.288   9.384  23.197  0.00  0.00    +0.000 A 
ATOM      7  C   UNL     1      -0.541  10.371  22.678  0.00  0.00    +0.000 A 
ATOM      8  C   UNL     1      -0.559  10.631  21.302  0.00  0.00    +0.000 A 
ATOM      9  C   UNL     1       0.268   9.886  20.432  0.00  0.00    +0.000 A 
ENDROOT
BRANCH   1  10
ATOM     10  S   UNL     1      -0.252  11.033  17.921  0.00  0.00    +0.000 S 
BRANCH  10  11
ATOM     11  C   UNL     1      -1.654  10.114  17.228  0.00  0.00    +0.000 C 
BRANCH  11  18
ATOM     12  C   UNL     1      -3.807  10.432  15.105  0.00  0.00    +0.000 C 
ATOM     13  C   UNL     1      -3.964  10.984  16.495  0.00  0.00    +0.000 A 
ATOM     14  C   UNL     1      -5.146  11.683  16.806  0.00  0.00    +0.000 A 
ATOM     15  C   UNL     1      -5.343  12.231  18.074  0.00  0.00    +0.000 A 
ATOM     16  C   UNL     1      -4.361  12.093  19.047  0.00  0.00    +0.000 A 
ATOM     17  C   UNL     1      -3.184  11.402  18.755  0.00  0.00    +0.000 A 
ATOM     18  C   UNL     1      -2.968  10.831  17.484  0.00  0.00    +0.000 A 
ENDBRANCH  11  18
ENDBRANCH  10  11
ENDBRANCH   1  10
BRANCH   3  19
ATOM     19  C   UNL     1       2.588   7.109  20.032  0.00  0.00    +0.000 C 
BRANCH  19  20
ATOM     20  C   UNL     1       1.826   5.800  19.877  0.00  0.00    +0.000 C 
ATOM     21  O   UNL     1       1.010   5.412  20.713  0.00  0.00    +0.000 OA
ATOM     22  N   UNL     1       2.142   5.036  18.739  0.00  0.00    +0.000 N 
ATOM     23  C   UNL     1       1.375   3.814  18.488  0.00  0.00    +0.000 C 
ATOM     24  C   UNL     1       2.113   2.571  18.978  0.00  0.00    +0.000 C 
ATOM     25  C   UNL     1       3.202   2.084  18.024  0.00  0.00    +0.000 C 
ATOM     26  C   UNL     1       4.303   3.102  17.733  0.00  0.00    +0.000 C 
ATOM     27  C   UNL     1       3.803   4.308  16.942  0.00  0.00    +0.000 C 
ATOM     28  C   UNL     1       3.218   5.408  17.822  0.00  0.00    +0.000 C 
ENDBRANCH  19  20
ENDBRANCH   3  19
TORSDOF 5
ENDMDL
