MODEL 1
REMARK VINA RESULT:      -8.9      0.000      0.000
REMARK  Name = 
REMARK  6 active torsions:
REMARK  status: ('A' for Active; 'I' for Inactive)
REMARK    1  A    between atoms: C_1  and  O_2
REMARK    2  A    between atoms: O_2  and  C_3
REMARK    3  A    between atoms: C_8  and  C_9
REMARK    4  A    between atoms: C_12  and  C_13
REMARK    5  A    between atoms: C_16  and  C_17
REMARK    6  A    between atoms: C_17  and  O_19
REMARK                            x       y       z     vdW  Elec       q    Type
REMARK                         _______ _______ _______ _____ _____    ______ ____
ROOT
ATOM      1  C   UNL     1       0.660   9.756  19.079  0.00  0.00    +0.000 A 
ATOM      2  C   UNL     1       1.195   9.474  17.825  0.00  0.00    +0.000 A 
ATOM      3  C   UNL     1       2.001   8.358  17.638  0.00  0.00    +0.000 A 
ATOM      4  C   UNL     1       2.377   7.512  18.700  0.00  0.00    +0.000 A 
ATOM      5  C   UNL     1       1.862   7.826  19.964  0.00  0.00    +0.000 A 
ATOM      6  C   UNL     1       0.994   8.912  20.146  0.00  0.00    +0.000 A 
ENDROOT
BRANCH   4   7
ATOM      7  C   UNL     1       3.304   6.384  18.422  0.00  0.00    +0.000 A 
ATOM      8  C   UNL     1       4.689   6.658  18.535  0.00  0.00    +0.000 A 
ATOM      9  C   UNL     1       5.669   5.783  18.035  0.00  0.00    +0.000 A 
ATOM     10  C   UNL     1       7.073   5.919  17.771  0.00  0.00    +0.000 A 
ATOM     11  C   UNL     1       7.480   4.697  17.265  0.00  0.00    +0.000 A 
ATOM     12  N   UNL     1       6.391   3.859  17.213  0.00  0.00    +0.000 N 
ATOM     13  C   UNL     1       5.262   4.526  17.608  0.00  0.00    +0.000 A 
ATOM     14  C   UNL     1       3.917   4.142  17.598  0.00  0.00    +0.000 A 
ATOM     15  C   UNL     1       2.947   5.103  17.956  0.00  0.00    +0.000 A 
ATOM     16 CL   UNL     1       1.307   4.611  17.686  0.00  0.00    +0.000 Cl
ATOM     17  H   UNL     1       6.405   2.912  16.855  0.00  0.00    +0.000 HD
BRANCH  10  18
ATOM     18  C   UNL     1       7.857   7.148  17.930  0.00  0.00    +0.000 C 
ATOM     19  O   UNL     1       7.868   8.055  17.113  0.00  0.00    +0.000 OA
BRANCH  18  20
ATOM     20  O   UNL     1       8.614   7.215  19.055  0.00  0.00    +0.000 OA
ATOM     21  H   UNL     1       8.458   8.026  19.564  0.00  0.00    +0.000 HD
ENDBRANCH  18  20
ENDBRANCH  10  18
ENDBRANCH   4   7
BRANCH   1  27
ATOM     22  C   UNL     1      -0.994  12.195  22.696  0.00  0.00    +0.000 C 
ATOM     23  O   UNL     1      -1.948  11.596  23.179  0.00  0.00    +0.000 OA
ATOM     24  N   UNL     1      -0.459  11.904  21.469  0.00  0.00    +0.000 N 
ATOM     25  C   UNL     1       0.678  12.558  20.857  0.00  0.00    +0.000 C 
ATOM     26  C   UNL     1       0.510  12.278  19.371  0.00  0.00    +0.000 C 
ATOM     27  C   UNL     1      -0.252  10.943  19.297  0.00  0.00    +0.000 C 
ATOM     28  C   UNL     1      -1.030  10.877  20.620  0.00  0.00    +0.000 C 
BRANCH  22  30
ATOM     29  C   UNL     1      -1.241  14.249  23.803  0.00  0.00    +0.000 C 
ATOM     30  O   UNL     1      -0.366  13.244  23.291  0.00  0.00    +0.000 OA
ENDBRANCH  22  30
ENDBRANCH   1  27
TORSDOF 5
ENDMDL
MODEL 2
REMARK VINA RESULT:      -8.9      2.956      3.731
REMARK  Name = 
REMARK  6 active torsions:
REMARK  status: ('A' for Active; 'I' for Inactive)
REMARK    1  A    between atoms: C_1  and  O_2
REMARK    2  A    between atoms: O_2  and  C_3
REMARK    3  A    between atoms: C_8  and  C_9
REMARK    4  A    between atoms: C_12  and  C_13
REMARK    5  A    between atoms: C_16  and  C_17
REMARK    6  A    between atoms: C_17  and  O_19
REMARK                            x       y       z     vdW  Elec       q    Type
REMARK                         _______ _______ _______ _____ _____    ______ ____
ROOT
ATOM      1  C   UNL     1       0.930  10.013  19.041  0.00  0.00    +0.000 A 
ATOM      2  C   UNL     1       1.059   9.105  20.088  0.00  0.00    +0.000 A 
ATOM      3  C   UNL     1       1.817   7.952  19.930  0.00  0.00    +0.000 A 
ATOM      4  C   UNL     1       2.419   7.606  18.704  0.00  0.00    +0.000 A 
ATOM      5  C   UNL     1       2.254   8.510  17.648  0.00  0.00    +0.000 A 
ATOM      6  C   UNL     1       1.545   9.708  17.821  0.00  0.00    +0.000 A 
ENDROOT
BRANCH   4   7
ATOM      7  C   UNL     1       3.149   6.315  18.604  0.00  0.00    +0.000 A 
ATOM      8  C   UNL     1       2.539   5.193  19.215  0.00  0.00    +0.000 A 
ATOM      9  C   UNL     1       3.235   3.992  19.442  0.00  0.00    +0.000 A 
ATOM     10  C   UNL     1       2.972   2.836  20.250  0.00  0.00    +0.000 A 
ATOM     11  C   UNL     1       4.053   1.992  20.060  0.00  0.00    +0.000 A 
ATOM     12  N   UNL     1       4.933   2.594  19.192  0.00  0.00    +0.000 N 
ATOM     13  C   UNL     1       4.488   3.848  18.862  0.00  0.00    +0.000 A 
ATOM     14  C   UNL     1       5.093   4.874  18.128  0.00  0.00    +0.000 A 
ATOM     15  C   UNL     1       4.433   6.119  18.058  0.00  0.00    +0.000 A 
ATOM     16 CL   UNL     1       5.364   7.391  17.334  0.00  0.00    +0.000 Cl
ATOM     17  H   UNL     1       5.821   2.205  18.904  0.00  0.00    +0.000 HD
BRANCH  10  18
ATOM     18  C   UNL     1       1.828   2.665  21.152  0.00  0.00    +0.000 C 
ATOM     19  O   UNL     1       1.935   2.426  22.344  0.00  0.00    +0.000 OA
BRANCH  18  20
ATOM     20  O   UNL     1       0.607   2.765  20.568  0.00  0.00    +0.000 OA
ATOM     21  H   UNL     1       0.660   2.883  19.607  0.00  0.00    +0.000 HD
ENDBRANCH  18  20
ENDBRANCH  10  18
ENDBRANCH   4   7
BRANCH   1  27
ATOM     22  C   UNL     1      -1.045  12.416  22.520  0.00  0.00    +0.000 C 
ATOM     23  O   UNL     1      -2.135  11.920  22.779  0.00  0.00    +0.000 OA
ATOM     24  N   UNL     1      -0.336  12.135  21.382  0.00  0.00    +0.000 N 
ATOM     25  C   UNL     1       0.963  12.669  21.031  0.00  0.00    +0.000 C 
ATOM     26  C   UNL     1       1.033  12.509  19.520  0.00  0.00    +0.000 C 
ATOM     27  C   UNL     1       0.142  11.295  19.202  0.00  0.00    +0.000 C 
ATOM     28  C   UNL     1      -0.864  11.249  20.362  0.00  0.00    +0.000 C 
BRANCH  22  30
ATOM     29  C   UNL     1      -1.255  14.373  23.798  0.00  0.00    +0.000 C 
ATOM     30  O   UNL     1      -0.413  13.332  23.301  0.00  0.00    +0.000 OA
ENDBRANCH  22  30
ENDBRANCH   1  27
TORSDOF 5
ENDMDL
MODEL 3
REMARK VINA RESULT:      -8.8      1.405      1.819
REMARK  Name = 
REMARK  6 active torsions:
REMARK  status: ('A' for Active; 'I' for Inactive)
REMARK    1  A    between atoms: C_1  and  O_2
REMARK    2  A    between atoms: O_2  and  C_3
REMARK    3  A    between atoms: C_8  and  C_9
REMARK    4  A    between atoms: C_12  and  C_13
REMARK    5  A    between atoms: C_16  and  C_17
REMARK    6  A    between atoms: C_17  and  O_19
REMARK                            x       y       z     vdW  Elec       q    Type
REMARK                         _______ _______ _______ _____ _____    ______ ____
ROOT
ATOM      1  C   UNL     1       0.712   9.612  19.511  0.00  0.00    +0.000 A 
ATOM      2  C   UNL     1       1.187   9.443  18.214  0.00  0.00    +0.000 A 
ATOM      3  C   UNL     1       1.960   8.335  17.886  0.00  0.00    +0.000 A 
ATOM      4  C   UNL     1       2.362   7.385  18.845  0.00  0.00    +0.000 A 
ATOM      5  C   UNL     1       1.907   7.584  20.154  0.00  0.00    +0.000 A 
ATOM      6  C   UNL     1       1.071   8.664  20.477  0.00  0.00    +0.000 A 
ENDROOT
BRANCH   4   7
ATOM      7  C   UNL     1       3.252   6.273  18.420  0.00  0.00    +0.000 A 
ATOM      8  C   UNL     1       4.646   6.506  18.510  0.00  0.00    +0.000 A 
ATOM      9  C   UNL     1       5.588   5.667  17.889  0.00  0.00    +0.000 A 
ATOM     10  C   UNL     1       6.985   5.801  17.590  0.00  0.00    +0.000 A 
ATOM     11  C   UNL     1       7.345   4.629  16.948  0.00  0.00    +0.000 A 
ATOM     12  N   UNL     1       6.236   3.823  16.850  0.00  0.00    +0.000 N 
ATOM     13  C   UNL     1       5.136   4.469  17.351  0.00  0.00    +0.000 A 
ATOM     14  C   UNL     1       3.783   4.115  17.351  0.00  0.00    +0.000 A 
ATOM     15  C   UNL     1       2.849   5.054  17.839  0.00  0.00    +0.000 A 
ATOM     16 CL   UNL     1       1.189   4.625  17.581  0.00  0.00    +0.000 Cl
ATOM     17  H   UNL     1       6.214   2.918  16.397  0.00  0.00    +0.000 HD
BRANCH  10  18
ATOM     18  C   UNL     1       7.803   6.992  17.844  0.00  0.00    +0.000 C 
ATOM     19  O   UNL     1       7.908   7.922  17.061  0.00  0.00    +0.000 OA
BRANCH  18  20
ATOM     20  O   UNL     1       8.478   6.993  19.021  0.00  0.00    +0.000 OA
ATOM     21  H   UNL     1       8.725   7.886  19.311  0.00  0.00    +0.000 HD
ENDBRANCH  18  20
ENDBRANCH  10  18
ENDBRANCH   4   7
BRANCH   1  27
ATOM     22  C   UNL     1       1.297  14.047  20.838  0.00  0.00    +0.000 C 
ATOM     23  O   UNL     1       1.542  14.075  22.038  0.00  0.00    +0.000 OA
ATOM     24  N   UNL     1       0.802  12.945  20.191  0.00  0.00    +0.000 N 
ATOM     25  C   UNL     1       0.515  12.843  18.776  0.00  0.00    +0.000 C 
ATOM     26  C   UNL     1      -0.484  11.699  18.683  0.00  0.00    +0.000 C 
ATOM     27  C   UNL     1      -0.165  10.788  19.882  0.00  0.00    +0.000 C 
ATOM     28  C   UNL     1       0.481  11.728  20.911  0.00  0.00    +0.000 C 
BRANCH  22  30
ATOM     29  C   UNL     1       2.387  16.086  20.440  0.00  0.00    +0.000 C 
ATOM     30  O   UNL     1       1.447  15.105  19.999  0.00  0.00    +0.000 OA
ENDBRANCH  22  30
ENDBRANCH   1  27
TORSDOF 5
ENDMDL
MODEL 4
REMARK VINA RESULT:      -8.5      1.717      2.212
REMARK  Name = 
REMARK  6 active torsions:
REMARK  status: ('A' for Active; 'I' for Inactive)
REMARK    1  A    between atoms: C_1  and  O_2
REMARK    2  A    between atoms: O_2  and  C_3
REMARK    3  A    between atoms: C_8  and  C_9
REMARK    4  A    between atoms: C_12  and  C_13
REMARK    5  A    between atoms: C_16  and  C_17
REMARK    6  A    between atoms: C_17  and  O_19
REMARK                            x       y       z     vdW  Elec       q    Type
REMARK                         _______ _______ _______ _____ _____    ______ ____
ROOT
ATOM      1  C   UNL     1       0.770   9.353  19.922  0.00  0.00    +0.000 A 
ATOM      2  C   UNL     1       1.273   9.332  18.625  0.00  0.00    +0.000 A 
ATOM      3  C   UNL     1       2.028   8.254  18.180  0.00  0.00    +0.000 A 
ATOM      4  C   UNL     1       2.384   7.182  19.024  0.00  0.00    +0.000 A 
ATOM      5  C   UNL     1       1.902   7.231  20.337  0.00  0.00    +0.000 A 
ATOM      6  C   UNL     1       1.083   8.284  20.772  0.00  0.00    +0.000 A 
ENDROOT
BRANCH   4   7
ATOM      7  C   UNL     1       3.258   6.108  18.484  0.00  0.00    +0.000 A 
ATOM      8  C   UNL     1       4.655   6.333  18.551  0.00  0.00    +0.000 A 
ATOM      9  C   UNL     1       5.575   5.547  17.836  0.00  0.00    +0.000 A 
ATOM     10  C   UNL     1       6.964   5.705  17.507  0.00  0.00    +0.000 A 
ATOM     11  C   UNL     1       7.302   4.588  16.762  0.00  0.00    +0.000 A 
ATOM     12  N   UNL     1       6.188   3.792  16.633  0.00  0.00    +0.000 N 
ATOM     13  C   UNL     1       5.105   4.396  17.217  0.00  0.00    +0.000 A 
ATOM     14  C   UNL     1       3.752   4.043  17.229  0.00  0.00    +0.000 A 
ATOM     15  C   UNL     1       2.835   4.940  17.819  0.00  0.00    +0.000 A 
ATOM     16 CL   UNL     1       1.167   4.533  17.576  0.00  0.00    +0.000 Cl
ATOM     17  H   UNL     1       6.150   2.927  16.110  0.00  0.00    +0.000 HD
BRANCH  10  18
ATOM     18  C   UNL     1       7.792   6.870  17.832  0.00  0.00    +0.000 C 
ATOM     19  O   UNL     1       8.422   6.985  18.871  0.00  0.00    +0.000 OA
BRANCH  18  20
ATOM     20  O   UNL     1       7.799   7.857  16.900  0.00  0.00    +0.000 OA
ATOM     21  H   UNL     1       7.895   8.740  17.290  0.00  0.00    +0.000 HD
ENDBRANCH  18  20
ENDBRANCH  10  18
ENDBRANCH   4   7
BRANCH   1  27
ATOM     22  C   UNL     1       0.704  14.004  19.553  0.00  0.00    +0.000 C 
ATOM     23  O   UNL     1       1.495  14.479  20.360  0.00  0.00    +0.000 OA
ATOM     24  N   UNL     1       0.275  12.704  19.590  0.00  0.00    +0.000 N 
ATOM     25  C   UNL     1      -0.637  12.079  18.656  0.00  0.00    +0.000 C 
ATOM     26  C   UNL     1      -1.195  10.889  19.422  0.00  0.00    +0.000 C 
ATOM     27  C   UNL     1      -0.088  10.497  20.416  0.00  0.00    +0.000 C 
ATOM     28  C   UNL     1       0.700  11.797  20.639  0.00  0.00    +0.000 C 
BRANCH  22  30
ATOM     29  C   UNL     1       0.101  16.120  18.737  0.00  0.00    +0.000 C 
ATOM     30  O   UNL     1       0.123  14.705  18.545  0.00  0.00    +0.000 OA
ENDBRANCH  22  30
ENDBRANCH   1  27
TORSDOF 5
ENDMDL
MODEL 5
REMARK VINA RESULT:      -8.4      3.097      3.759
REMARK  Name = 
REMARK  6 active torsions:
REMARK  status: ('A' for Active; 'I' for Inactive)
REMARK    1  A    between atoms: C_1  and  O_2
REMARK    2  A    between atoms: O_2  and  C_3
REMARK    3  A    between atoms: C_8  and  C_9
REMARK    4  A    between atoms: C_12  and  C_13
REMARK    5  A    between atoms: C_16  and  C_17
REMARK    6  A    between atoms: C_17  and  O_19
REMARK                            x       y       z     vdW  Elec       q    Type
REMARK                         _______ _______ _______ _____ _____    ______ ____
ROOT
ATOM      1  C   UNL     1       1.100  10.139  18.813  0.00  0.00    +0.000 A 
ATOM      2  C   UNL     1       1.781   9.705  17.679  0.00  0.00    +0.000 A 
ATOM      3  C   UNL     1       2.380   8.451  17.654  0.00  0.00    +0.000 A 
ATOM      4  C   UNL     1       2.398   7.601  18.778  0.00  0.00    +0.000 A 
ATOM      5  C   UNL     1       1.740   8.062  19.924  0.00  0.00    +0.000 A 
ATOM      6  C   UNL     1       1.076   9.298  19.933  0.00  0.00    +0.000 A 
ENDROOT
BRANCH   4   7
ATOM      7  C   UNL     1       3.127   6.309  18.685  0.00  0.00    +0.000 A 
ATOM      8  C   UNL     1       2.504   5.185  19.280  0.00  0.00    +0.000 A 
ATOM      9  C   UNL     1       3.194   3.982  19.513  0.00  0.00    +0.000 A 
ATOM     10  C   UNL     1       2.915   2.822  20.310  0.00  0.00    +0.000 A 
ATOM     11  C   UNL     1       3.998   1.977  20.134  0.00  0.00    +0.000 A 
ATOM     12  N   UNL     1       4.894   2.582  19.285  0.00  0.00    +0.000 N 
ATOM     13  C   UNL     1       4.457   3.838  18.954  0.00  0.00    +0.000 A 
ATOM     14  C   UNL     1       5.076   4.867  18.236  0.00  0.00    +0.000 A 
ATOM     15  C   UNL     1       4.420   6.114  18.160  0.00  0.00    +0.000 A 
ATOM     16 CL   UNL     1       5.366   7.387  17.459  0.00  0.00    +0.000 Cl
ATOM     17  H   UNL     1       5.787   2.193  19.011  0.00  0.00    +0.000 HD
BRANCH  10  18
ATOM     18  C   UNL     1       1.756   2.649  21.191  0.00  0.00    +0.000 C 
ATOM     19  O   UNL     1       1.838   2.312  22.361  0.00  0.00    +0.000 OA
BRANCH  18  20
ATOM     20  O   UNL     1       0.547   2.864  20.611  0.00  0.00    +0.000 OA
ATOM     21  H   UNL     1       0.056   3.590  21.028  0.00  0.00    +0.000 HD
ENDBRANCH  18  20
ENDBRANCH  10  18
ENDBRANCH   4   7
BRANCH   1  27
ATOM     22  C   UNL     1      -0.004  13.349  22.014  0.00  0.00    +0.000 C 
ATOM     23  O   UNL     1      -1.028  13.001  22.591  0.00  0.00    +0.000 OA
ATOM     24  N   UNL     1       0.434  12.787  20.845  0.00  0.00    +0.000 N 
ATOM     25  C   UNL     1       1.643  13.136  20.130  0.00  0.00    +0.000 C 
ATOM     26  C   UNL     1       1.382  12.664  18.707  0.00  0.00    +0.000 C 
ATOM     27  C   UNL     1       0.406  11.483  18.849  0.00  0.00    +0.000 C 
ATOM     28  C   UNL     1      -0.328  11.753  20.171  0.00  0.00    +0.000 C 
BRANCH  22  30
ATOM     29  C   UNL     1       0.151  15.603  22.647  0.00  0.00    +0.000 C 
ATOM     30  O   UNL     1       0.809  14.354  22.433  0.00  0.00    +0.000 OA
ENDBRANCH  22  30
ENDBRANCH   1  27
TORSDOF 5
ENDMDL
MODEL 6
REMARK VINA RESULT:      -8.4      3.291      4.174
REMARK  Name = 
REMARK  6 active torsions:
REMARK  status: ('A' for Active; 'I' for Inactive)
REMARK    1  A    between atoms: C_1  and  O_2
REMARK    2  A    between atoms: O_2  and  C_3
REMARK    3  A    between atoms: C_8  and  C_9
REMARK    4  A    between atoms: C_12  and  C_13
REMARK    5  A    between atoms: C_16  and  C_17
REMARK    6  A    between atoms: C_17  and  O_19
REMARK                            x       y       z     vdW  Elec       q    Type
REMARK                         _______ _______ _______ _____ _____    ______ ____
ROOT
ATOM      1  C   UNL     1       0.960  10.131  19.378  0.00  0.00    +0.000 A 
ATOM      2  C   UNL     1       1.139   9.125  20.323  0.00  0.00    +0.000 A 
ATOM      3  C   UNL     1       1.782   7.942  19.980  0.00  0.00    +0.000 A 
ATOM      4  C   UNL     1       2.207   7.669  18.664  0.00  0.00    +0.000 A 
ATOM      5  C   UNL     1       1.989   8.673  17.714  0.00  0.00    +0.000 A 
ATOM      6  C   UNL     1       1.402   9.896  18.070  0.00  0.00    +0.000 A 
ENDROOT
BRANCH   4   7
ATOM      7  C   UNL     1       2.817   6.345  18.371  0.00  0.00    +0.000 A 
ATOM      8  C   UNL     1       2.343   5.247  19.129  0.00  0.00    +0.000 A 
ATOM      9  C   UNL     1       3.015   4.012  19.158  0.00  0.00    +0.000 A 
ATOM     10  C   UNL     1       2.927   2.860  20.010  0.00  0.00    +0.000 A 
ATOM     11  C   UNL     1       3.871   1.967  19.531  0.00  0.00    +0.000 A 
ATOM     12  N   UNL     1       4.508   2.537  18.454  0.00  0.00    +0.000 N 
ATOM     13  C   UNL     1       4.052   3.814  18.257  0.00  0.00    +0.000 A 
ATOM     14  C   UNL     1       4.482   4.818  17.383  0.00  0.00    +0.000 A 
ATOM     15  C   UNL     1       3.891   6.095  17.494  0.00  0.00    +0.000 A 
ATOM     16 CL   UNL     1       4.649   7.328  16.540  0.00  0.00    +0.000 Cl
ATOM     17  H   UNL     1       5.263   2.109  17.934  0.00  0.00    +0.000 HD
BRANCH  10  18
ATOM     18  C   UNL     1       2.068   2.734  21.191  0.00  0.00    +0.000 C 
ATOM     19  O   UNL     1       2.491   2.540  22.320  0.00  0.00    +0.000 OA
BRANCH  18  20
ATOM     20  O   UNL     1       0.734   2.821  20.953  0.00  0.00    +0.000 OA
ATOM     21  H   UNL     1       0.224   2.143  21.424  0.00  0.00    +0.000 HD
ENDBRANCH  18  20
ENDBRANCH  10  18
ENDBRANCH   4   7
BRANCH   1  27
ATOM     22  C   UNL     1       2.286  14.344  20.881  0.00  0.00    +0.000 C 
ATOM     23  O   UNL     1       2.459  14.299  22.093  0.00  0.00    +0.000 OA
ATOM     24  N   UNL     1       1.633  13.371  20.172  0.00  0.00    +0.000 N 
ATOM     25  C   UNL     1       1.418  13.356  18.741  0.00  0.00    +0.000 C 
ATOM     26  C   UNL     1       0.230  12.424  18.556  0.00  0.00    +0.000 C 
ATOM     27  C   UNL     1       0.299  11.443  19.739  0.00  0.00    +0.000 C 
ATOM     28  C   UNL     1       1.047  12.220  20.833  0.00  0.00    +0.000 C 
BRANCH  22  30
ATOM     29  C   UNL     1       2.050  16.622  20.370  0.00  0.00    +0.000 C 
ATOM     30  O   UNL     1       2.683  15.373  20.088  0.00  0.00    +0.000 OA
ENDBRANCH  22  30
ENDBRANCH   1  27
TORSDOF 5
ENDMDL
MODEL 7
REMARK VINA RESULT:      -8.4      3.326      4.250
REMARK  Name = 
REMARK  6 active torsions:
REMARK  status: ('A' for Active; 'I' for Inactive)
REMARK    1  A    between atoms: C_1  and  O_2
REMARK    2  A    between atoms: O_2  and  C_3
REMARK    3  A    between atoms: C_8  and  C_9
REMARK    4  A    between atoms: C_12  and  C_13
REMARK    5  A    between atoms: C_16  and  C_17
REMARK    6  A    between atoms: C_17  and  O_19
REMARK                            x       y       z     vdW  Elec       q    Type
REMARK                         _______ _______ _______ _____ _____    ______ ____
ROOT
ATOM      1  C   UNL     1       1.070  10.007  19.376  0.00  0.00    +0.000 A 
ATOM      2  C   UNL     1       1.267   8.911  20.212  0.00  0.00    +0.000 A 
ATOM      3  C   UNL     1       1.946   7.789  19.754  0.00  0.00    +0.000 A 
ATOM      4  C   UNL     1       2.394   7.668  18.423  0.00  0.00    +0.000 A 
ATOM      5  C   UNL     1       2.160   8.762  17.582  0.00  0.00    +0.000 A 
ATOM      6  C   UNL     1       1.535   9.924  18.057  0.00  0.00    +0.000 A 
ENDROOT
BRANCH   4   7
ATOM      7  C   UNL     1       3.045   6.400  18.000  0.00  0.00    +0.000 A 
ATOM      8  C   UNL     1       2.284   5.216  18.151  0.00  0.00    +0.000 A 
ATOM      9  C   UNL     1       2.862   3.938  18.060  0.00  0.00    +0.000 A 
ATOM     10  C   UNL     1       2.414   2.623  18.425  0.00  0.00    +0.000 A 
ATOM     11  C   UNL     1       3.453   1.769  18.096  0.00  0.00    +0.000 A 
ATOM     12  N   UNL     1       4.482   2.513  17.568  0.00  0.00    +0.000 N 
ATOM     13  C   UNL     1       4.171   3.846  17.607  0.00  0.00    +0.000 A 
ATOM     14  C   UNL     1       4.937   4.978  17.309  0.00  0.00    +0.000 A 
ATOM     15  C   UNL     1       4.376   6.248  17.565  0.00  0.00    +0.000 A 
ATOM     16 CL   UNL     1       5.480   7.574  17.391  0.00  0.00    +0.000 Cl
ATOM     17  H   UNL     1       5.375   2.139  17.271  0.00  0.00    +0.000 HD
BRANCH  10  18
ATOM     18  C   UNL     1       1.148   2.306  19.093  0.00  0.00    +0.000 C 
ATOM     19  O   UNL     1       0.140   1.952  18.502  0.00  0.00    +0.000 OA
BRANCH  18  20
ATOM     20  O   UNL     1       1.148   2.457  20.442  0.00  0.00    +0.000 OA
ATOM     21  H   UNL     1       1.125   1.609  20.914  0.00  0.00    +0.000 HD
ENDBRANCH  18  20
ENDBRANCH  10  18
ENDBRANCH   4   7
BRANCH   1  27
ATOM     22  C   UNL     1       2.274  14.259  20.873  0.00  0.00    +0.000 C 
ATOM     23  O   UNL     1       2.597  14.190  22.053  0.00  0.00    +0.000 OA
ATOM     24  N   UNL     1       1.609  13.262  20.210  0.00  0.00    +0.000 N 
ATOM     25  C   UNL     1       1.222  13.274  18.815  0.00  0.00    +0.000 C 
ATOM     26  C   UNL     1       0.087  12.264  18.737  0.00  0.00    +0.000 C 
ATOM     27  C   UNL     1       0.369  11.255  19.864  0.00  0.00    +0.000 C 
ATOM     28  C   UNL     1       1.189  12.052  20.890  0.00  0.00    +0.000 C 
BRANCH  22  30
ATOM     29  C   UNL     1       1.933  16.559  20.558  0.00  0.00    +0.000 C 
ATOM     30  O   UNL     1       2.498  15.338  20.078  0.00  0.00    +0.000 OA
ENDBRANCH  22  30
ENDBRANCH   1  27
TORSDOF 5
ENDMDL
MODEL 8
REMARK VINA RESULT:      -8.3      1.763      1.794
REMARK  Name = 
REMARK  6 active torsions:
REMARK  status: ('A' for Active; 'I' for Inactive)
REMARK    1  A    between atoms: C_1  and  O_2
REMARK    2  A    between atoms: O_2  and  C_3
REMARK    3  A    between atoms: C_8  and  C_9
REMARK    4  A    between atoms: C_12  and  C_13
REMARK    5  A    between atoms: C_16  and  C_17
REMARK    6  A    between atoms: C_17  and  O_19
REMARK                            x       y       z     vdW  Elec       q    Type
REMARK                         _______ _______ _______ _____ _____    ______ ____
ROOT
ATOM      1  C   UNL     1       0.684  10.119  19.278  0.00  0.00    +0.000 A 
ATOM      2  C   UNL     1       1.182   9.688  18.052  0.00  0.00    +0.000 A 
ATOM      3  C   UNL     1       1.817   8.457  17.942  0.00  0.00    +0.000 A 
ATOM      4  C   UNL     1       2.058   7.630  19.058  0.00  0.00    +0.000 A 
ATOM      5  C   UNL     1       1.584   8.090  20.293  0.00  0.00    +0.000 A 
ATOM      6  C   UNL     1       0.882   9.300  20.397  0.00  0.00    +0.000 A 
ENDROOT
BRANCH   4   7
ATOM      7  C   UNL     1       2.813   6.365  18.861  0.00  0.00    +0.000 A 
ATOM      8  C   UNL     1       3.856   6.392  17.903  0.00  0.00    +0.000 A 
ATOM      9  C   UNL     1       4.456   5.217  17.416  0.00  0.00    +0.000 A 
ATOM     10  C   UNL     1       5.304   4.934  16.294  0.00  0.00    +0.000 A 
ATOM     11  C   UNL     1       5.548   3.572  16.343  0.00  0.00    +0.000 A 
ATOM     12  N   UNL     1       4.884   3.045  17.426  0.00  0.00    +0.000 N 
ATOM     13  C   UNL     1       4.150   4.020  18.050  0.00  0.00    +0.000 A 
ATOM     14  C   UNL     1       3.226   3.946  19.098  0.00  0.00    +0.000 A 
ATOM     15  C   UNL     1       2.526   5.119  19.452  0.00  0.00    +0.000 A 
ATOM     16 CL   UNL     1       1.240   4.877  20.590  0.00  0.00    +0.000 Cl
ATOM     17  H   UNL     1       4.870   2.065  17.678  0.00  0.00    +0.000 HD
BRANCH  10  18
ATOM     18  C   UNL     1       5.725   5.900  15.275  0.00  0.00    +0.000 C 
ATOM     19  O   UNL     1       5.107   6.919  15.012  0.00  0.00    +0.000 OA
BRANCH  18  20
ATOM     20  O   UNL     1       6.858   5.579  14.601  0.00  0.00    +0.000 OA
ATOM     21  H   UNL     1       6.696   4.968  13.864  0.00  0.00    +0.000 HD
ENDBRANCH  18  20
ENDBRANCH  10  18
ENDBRANCH   4   7
BRANCH   1  27
ATOM     22  C   UNL     1      -1.127  12.705  22.714  0.00  0.00    +0.000 C 
ATOM     23  O   UNL     1      -2.231  12.263  23.006  0.00  0.00    +0.000 OA
ATOM     24  N   UNL     1      -0.451  12.361  21.573  0.00  0.00    +0.000 N 
ATOM     25  C   UNL     1       0.862  12.830  21.184  0.00  0.00    +0.000 C 
ATOM     26  C   UNL     1       0.898  12.621  19.678  0.00  0.00    +0.000 C 
ATOM     27  C   UNL     1      -0.047  11.436  19.413  0.00  0.00    +0.000 C 
ATOM     28  C   UNL     1      -1.033  11.467  20.590  0.00  0.00    +0.000 C 
BRANCH  22  30
ATOM     29  C   UNL     1      -1.246  14.669  23.992  0.00  0.00    +0.000 C 
ATOM     30  O   UNL     1      -0.444  13.616  23.456  0.00  0.00    +0.000 OA
ENDBRANCH  22  30
ENDBRANCH   1  27
TORSDOF 5
ENDMDL
MODEL 9
REMARK VINA RESULT:      -8.2      2.333      2.668
REMARK  Name = 
REMARK  6 active torsions:
REMARK  status: ('A' for Active; 'I' for Inactive)
REMARK    1  A    between atoms: C_1  and  O_2
REMARK    2  A    between atoms: O_2  and  C_3
REMARK    3  A    between atoms: C_8  and  C_9
REMARK    4  A    between atoms: C_12  and  C_13
REMARK    5  A    between atoms: C_16  and  C_17
REMARK    6  A    between atoms: C_17  and  O_19
REMARK                            x       y       z     vdW  Elec       q    Type
REMARK                         _______ _______ _______ _____ _____    ______ ____
ROOT
ATOM      1  C   UNL     1       0.805  10.017  19.582  0.00  0.00    +0.000 A 
ATOM      2  C   UNL     1       1.246   9.627  18.321  0.00  0.00    +0.000 A 
ATOM      3  C   UNL     1       1.846   8.388  18.137  0.00  0.00    +0.000 A 
ATOM      4  C   UNL     1       2.108   7.509  19.207  0.00  0.00    +0.000 A 
ATOM      5  C   UNL     1       1.691   7.927  20.477  0.00  0.00    +0.000 A 
ATOM      6  C   UNL     1       1.024   9.147  20.658  0.00  0.00    +0.000 A 
ENDROOT
BRANCH   4   7
ATOM      7  C   UNL     1       2.823   6.236  18.929  0.00  0.00    +0.000 A 
ATOM      8  C   UNL     1       3.862   6.289  17.968  0.00  0.00    +0.000 A 
ATOM      9  C   UNL     1       4.424   5.129  17.408  0.00  0.00    +0.000 A 
ATOM     10  C   UNL     1       5.259   4.889  16.265  0.00  0.00    +0.000 A 
ATOM     11  C   UNL     1       5.462   3.520  16.230  0.00  0.00    +0.000 A 
ATOM     12  N   UNL     1       4.786   2.949  17.283  0.00  0.00    +0.000 N 
ATOM     13  C   UNL     1       4.085   3.906  17.970  0.00  0.00    +0.000 A 
ATOM     14  C   UNL     1       3.164   3.795  19.016  0.00  0.00    +0.000 A 
ATOM     15  C   UNL     1       2.500   4.965  19.445  0.00  0.00    +0.000 A 
ATOM     16 CL   UNL     1       1.213   4.694  20.573  0.00  0.00    +0.000 Cl
ATOM     17  H   UNL     1       4.744   1.956  17.475  0.00  0.00    +0.000 HD
BRANCH  10  18
ATOM     18  C   UNL     1       5.705   5.903  15.304  0.00  0.00    +0.000 C 
ATOM     19  O   UNL     1       5.130   6.964  15.123  0.00  0.00    +0.000 OA
BRANCH  18  20
ATOM     20  O   UNL     1       6.810   5.577  14.585  0.00  0.00    +0.000 OA
ATOM     21  H   UNL     1       6.745   5.849  13.656  0.00  0.00    +0.000 HD
ENDBRANCH  18  20
ENDBRANCH  10  18
ENDBRANCH   4   7
BRANCH   1  27
ATOM     22  C   UNL     1       1.988  14.331  20.909  0.00  0.00    +0.000 C 
ATOM     23  O   UNL     1       2.060  14.367  22.132  0.00  0.00    +0.000 OA
ATOM     24  N   UNL     1       1.400  13.308  20.214  0.00  0.00    +0.000 N 
ATOM     25  C   UNL     1       1.305  13.197  18.775  0.00  0.00    +0.000 C 
ATOM     26  C   UNL     1       0.139  12.245  18.552  0.00  0.00    +0.000 C 
ATOM     27  C   UNL     1       0.113  11.344  19.799  0.00  0.00    +0.000 C 
ATOM     28  C   UNL     1       0.764  12.198  20.898  0.00  0.00    +0.000 C 
BRANCH  22  30
ATOM     29  C   UNL     1       1.870  16.596  20.309  0.00  0.00    +0.000 C 
ATOM     30  O   UNL     1       2.447  15.309  20.085  0.00  0.00    +0.000 OA
ENDBRANCH  22  30
ENDBRANCH   1  27
TORSDOF 5
ENDMDL
