MODEL 1
REMARK VINA RESULT:      -8.9      0.000      0.000
REMARK  Name = 
REMARK  2 active torsions:
REMARK  status: ('A' for Active; 'I' for Inactive)
REMARK    1  A    between atoms: C_1  and  C_2
REMARK    2  A    between atoms: N_4  and  C_5
REMARK                            x       y       z     vdW  Elec       q    Type
REMARK                         _______ _______ _______ _____ _____    ______ ____
ROOT
ATOM      1  C   UNL     1       1.883   6.558  20.438  0.00  0.00    +0.000 A 
ATOM      2  C   UNL     1       2.787   6.788  19.385  0.00  0.00    +0.000 A 
ATOM      3  C   UNL     1       3.143   5.734  18.560  0.00  0.00    +0.000 A 
ATOM      4  C   UNL     1       2.603   4.482  18.790  0.00  0.00    +0.000 A 
ATOM      5  C   UNL     1       3.090   3.579  17.857  0.00  0.00    +0.000 A 
ATOM      6  C   UNL     1       2.659   2.267  17.904  0.00  0.00    +0.000 A 
ATOM      7  C   UNL     1       1.739   1.903  18.904  0.00  0.00    +0.000 A 
ATOM      8  C   UNL     1       1.266   2.842  19.851  0.00  0.00    +0.000 A 
ATOM      9  C   UNL     1       1.706   4.182  19.811  0.00  0.00    +0.000 A 
ATOM     10  C   UNL     1       1.357   5.260  20.662  0.00  0.00    +0.000 A 
ATOM     11  C   UNL     1       4.010   4.291  16.979  0.00  0.00    +0.000 A 
ATOM     12  C   UNL     1       4.773   3.875  15.907  0.00  0.00    +0.000 A 
ATOM     13  C   UNL     1       5.569   4.829  15.264  0.00  0.00    +0.000 A 
ATOM     14  C   UNL     1       5.590   6.170  15.695  0.00  0.00    +0.000 A 
ATOM     15  C   UNL     1       4.821   6.589  16.782  0.00  0.00    +0.000 A 
ATOM     16  C   UNL     1       4.038   5.644  17.418  0.00  0.00    +0.000 A 
ENDROOT
BRANCH   1  20
ATOM     17  C   UNL     1       0.740   9.763  22.081  0.00  0.00    +0.000 C 
ATOM     18  C   UNL     1       1.010   8.840  20.925  0.00  0.00    +0.000 C 
ATOM     19  O   UNL     1       0.802   9.219  19.776  0.00  0.00    +0.000 OA
ATOM     20  N   UNL     1       1.482   7.596  21.314  0.00  0.00    +0.000 N 
ATOM     21  H   UNL     1       1.453   7.373  22.301  0.00  0.00    +0.000 HD
ENDBRANCH   1  20
TORSDOF 1
ENDMDL
MODEL 2
REMARK VINA RESULT:      -8.5      2.803      5.569
REMARK  Name = 
REMARK  2 active torsions:
REMARK  status: ('A' for Active; 'I' for Inactive)
REMARK    1  A    between atoms: C_1  and  C_2
REMARK    2  A    between atoms: N_4  and  C_5
REMARK                            x       y       z     vdW  Elec       q    Type
REMARK                         _______ _______ _______ _____ _____    ______ ____
ROOT
ATOM      1  C   UNL     1       4.622   4.691  16.765  0.00  0.00    +0.000 A 
ATOM      2  C   UNL     1       4.015   5.928  17.049  0.00  0.00    +0.000 A 
ATOM      3  C   UNL     1       3.291   6.070  18.222  0.00  0.00    +0.000 A 
ATOM      4  C   UNL     1       3.182   4.995  19.084  0.00  0.00    +0.000 A 
ATOM      5  C   UNL     1       2.420   5.351  20.188  0.00  0.00    +0.000 A 
ATOM      6  C   UNL     1       2.202   4.416  21.182  0.00  0.00    +0.000 A 
ATOM      7  C   UNL     1       2.766   3.137  21.030  0.00  0.00    +0.000 A 
ATOM      8  C   UNL     1       3.532   2.797  19.889  0.00  0.00    +0.000 A 
ATOM      9  C   UNL     1       3.754   3.745  18.868  0.00  0.00    +0.000 A 
ATOM     10  C   UNL     1       4.479   3.599  17.660  0.00  0.00    +0.000 A 
ATOM     11  C   UNL     1       2.003   6.737  20.018  0.00  0.00    +0.000 A 
ATOM     12  C   UNL     1       1.229   7.570  20.800  0.00  0.00    +0.000 A 
ATOM     13  C   UNL     1       1.012   8.875  20.344  0.00  0.00    +0.000 A 
ATOM     14  C   UNL     1       1.565   9.324  19.129  0.00  0.00    +0.000 A 
ATOM     15  C   UNL     1       2.345   8.478  18.337  0.00  0.00    +0.000 A 
ATOM     16  C   UNL     1       2.555   7.188  18.788  0.00  0.00    +0.000 A 
ENDROOT
BRANCH   1  20
ATOM     17  C   UNL     1       7.117   4.723  13.928  0.00  0.00    +0.000 C 
ATOM     18  C   UNL     1       6.600   5.066  15.297  0.00  0.00    +0.000 C 
ATOM     19  O   UNL     1       7.257   5.791  16.037  0.00  0.00    +0.000 OA
ATOM     20  N   UNL     1       5.374   4.485  15.582  0.00  0.00    +0.000 N 
ATOM     21  H   UNL     1       5.027   3.785  14.939  0.00  0.00    +0.000 HD
ENDBRANCH   1  20
TORSDOF 1
ENDMDL
MODEL 3
REMARK VINA RESULT:      -8.2      3.148      6.203
REMARK  Name = 
REMARK  2 active torsions:
REMARK  status: ('A' for Active; 'I' for Inactive)
REMARK    1  A    between atoms: C_1  and  C_2
REMARK    2  A    between atoms: N_4  and  C_5
REMARK                            x       y       z     vdW  Elec       q    Type
REMARK                         _______ _______ _______ _____ _____    ______ ____
ROOT
ATOM      1  C   UNL     1       5.420   5.691  16.404  0.00  0.00    +0.000 A 
ATOM      2  C   UNL     1       5.166   4.645  17.310  0.00  0.00    +0.000 A 
ATOM      3  C   UNL     1       4.224   4.832  18.308  0.00  0.00    +0.000 A 
ATOM      4  C   UNL     1       3.557   6.040  18.391  0.00  0.00    +0.000 A 
ATOM      5  C   UNL     1       2.665   6.015  19.454  0.00  0.00    +0.000 A 
ATOM      6  C   UNL     1       1.884   7.128  19.700  0.00  0.00    +0.000 A 
ATOM      7  C   UNL     1       2.028   8.244  18.857  0.00  0.00    +0.000 A 
ATOM      8  C   UNL     1       2.952   8.247  17.785  0.00  0.00    +0.000 A 
ATOM      9  C   UNL     1       3.756   7.116  17.531  0.00  0.00    +0.000 A 
ATOM     10  C   UNL     1       4.732   6.926  16.522  0.00  0.00    +0.000 A 
ATOM     11  C   UNL     1       2.776   4.715  20.103  0.00  0.00    +0.000 A 
ATOM     12  C   UNL     1       2.139   4.174  21.201  0.00  0.00    +0.000 A 
ATOM     13  C   UNL     1       2.480   2.869  21.574  0.00  0.00    +0.000 A 
ATOM     14  C   UNL     1       3.439   2.132  20.853  0.00  0.00    +0.000 A 
ATOM     15  C   UNL     1       4.085   2.681  19.744  0.00  0.00    +0.000 A 
ATOM     16  C   UNL     1       3.750   3.973  19.380  0.00  0.00    +0.000 A 
ENDROOT
BRANCH   1  20
ATOM     17  C   UNL     1       7.458   4.738  13.368  0.00  0.00    +0.000 C 
ATOM     18  C   UNL     1       6.250   4.725  14.262  0.00  0.00    +0.000 C 
ATOM     19  O   UNL     1       5.284   4.023  13.977  0.00  0.00    +0.000 OA
ATOM     20  N   UNL     1       6.372   5.559  15.363  0.00  0.00    +0.000 N 
ATOM     21  H   UNL     1       7.159   6.195  15.383  0.00  0.00    +0.000 HD
ENDBRANCH   1  20
TORSDOF 1
ENDMDL
MODEL 4
REMARK VINA RESULT:      -8.2      3.296      6.609
REMARK  Name = 
REMARK  2 active torsions:
REMARK  status: ('A' for Active; 'I' for Inactive)
REMARK    1  A    between atoms: C_1  and  C_2
REMARK    2  A    between atoms: N_4  and  C_5
REMARK                            x       y       z     vdW  Elec       q    Type
REMARK                         _______ _______ _______ _____ _____    ______ ____
ROOT
ATOM      1  C   UNL     1       5.397   4.606  15.446  0.00  0.00    +0.000 A 
ATOM      2  C   UNL     1       4.662   3.675  16.203  0.00  0.00    +0.000 A 
ATOM      3  C   UNL     1       3.797   4.135  17.183  0.00  0.00    +0.000 A 
ATOM      4  C   UNL     1       3.675   5.495  17.392  0.00  0.00    +0.000 A 
ATOM      5  C   UNL     1       2.764   5.737  18.411  0.00  0.00    +0.000 A 
ATOM      6  C   UNL     1       2.486   7.042  18.768  0.00  0.00    +0.000 A 
ATOM      7  C   UNL     1       3.144   8.076  18.077  0.00  0.00    +0.000 A 
ATOM      8  C   UNL     1       4.076   7.803  17.049  0.00  0.00    +0.000 A 
ATOM      9  C   UNL     1       4.368   6.472  16.683  0.00  0.00    +0.000 A 
ATOM     10  C   UNL     1       5.264   5.996  15.694  0.00  0.00    +0.000 A 
ATOM     11  C   UNL     1       2.280   4.450  18.894  0.00  0.00    +0.000 A 
ATOM     12  C   UNL     1       1.387   4.115  19.892  0.00  0.00    +0.000 A 
ATOM     13  C   UNL     1       1.133   2.756  20.110  0.00  0.00    +0.000 A 
ATOM     14  C   UNL     1       1.766   1.764  19.337  0.00  0.00    +0.000 A 
ATOM     15  C   UNL     1       2.672   2.103  18.330  0.00  0.00    +0.000 A 
ATOM     16  C   UNL     1       2.924   3.447  18.119  0.00  0.00    +0.000 A 
ENDROOT
BRANCH   1  20
ATOM     17  C   UNL     1       7.108   3.338  12.325  0.00  0.00    +0.000 C 
ATOM     18  C   UNL     1       5.940   3.796  13.153  0.00  0.00    +0.000 C 
ATOM     19  O   UNL     1       4.810   3.794  12.673  0.00  0.00    +0.000 OA
ATOM     20  N   UNL     1       6.296   4.195  14.432  0.00  0.00    +0.000 N 
ATOM     21  H   UNL     1       7.284   4.292  14.634  0.00  0.00    +0.000 HD
ENDBRANCH   1  20
TORSDOF 1
ENDMDL
MODEL 5
REMARK VINA RESULT:      -8.1      1.209      1.280
REMARK  Name = 
REMARK  2 active torsions:
REMARK  status: ('A' for Active; 'I' for Inactive)
REMARK    1  A    between atoms: C_1  and  C_2
REMARK    2  A    between atoms: N_4  and  C_5
REMARK                            x       y       z     vdW  Elec       q    Type
REMARK                         _______ _______ _______ _____ _____    ______ ____
ROOT
ATOM      1  C   UNL     1       2.149   7.486  19.460  0.00  0.00    +0.000 A 
ATOM      2  C   UNL     1       3.033   7.350  18.374  0.00  0.00    +0.000 A 
ATOM      3  C   UNL     1       3.469   6.085  18.013  0.00  0.00    +0.000 A 
ATOM      4  C   UNL     1       3.026   4.988  18.728  0.00  0.00    +0.000 A 
ATOM      5  C   UNL     1       3.581   3.829  18.205  0.00  0.00    +0.000 A 
ATOM      6  C   UNL     1       3.251   2.612  18.771  0.00  0.00    +0.000 A 
ATOM      7  C   UNL     1       2.362   2.603  19.861  0.00  0.00    +0.000 A 
ATOM      8  C   UNL     1       1.818   3.801  20.382  0.00  0.00    +0.000 A 
ATOM      9  C   UNL     1       2.154   5.047  19.811  0.00  0.00    +0.000 A 
ATOM     10  C   UNL     1       1.724   6.343  20.186  0.00  0.00    +0.000 A 
ATOM     11  C   UNL     1       4.444   4.206  17.092  0.00  0.00    +0.000 A 
ATOM     12  C   UNL     1       5.237   3.459  16.244  0.00  0.00    +0.000 A 
ATOM     13  C   UNL     1       5.957   4.141  15.258  0.00  0.00    +0.000 A 
ATOM     14  C   UNL     1       5.876   5.542  15.132  0.00  0.00    +0.000 A 
ATOM     15  C   UNL     1       5.076   6.296  15.993  0.00  0.00    +0.000 A 
ATOM     16  C   UNL     1       4.368   5.621  16.970  0.00  0.00    +0.000 A 
ENDROOT
BRANCH   1  20
ATOM     17  C   UNL     1       0.679  10.952  19.772  0.00  0.00    +0.000 C 
ATOM     18  C   UNL     1       0.990   9.657  19.075  0.00  0.00    +0.000 C 
ATOM     19  O   UNL     1       0.639   9.488  17.911  0.00  0.00    +0.000 OA
ATOM     20  N   UNL     1       1.669   8.752  19.875  0.00  0.00    +0.000 N 
ATOM     21  H   UNL     1       1.751   8.968  20.861  0.00  0.00    +0.000 HD
ENDBRANCH   1  20
TORSDOF 1
ENDMDL
MODEL 6
REMARK VINA RESULT:      -8.1      1.316      1.430
REMARK  Name = 
REMARK  2 active torsions:
REMARK  status: ('A' for Active; 'I' for Inactive)
REMARK    1  A    between atoms: C_1  and  C_2
REMARK    2  A    between atoms: N_4  and  C_5
REMARK                            x       y       z     vdW  Elec       q    Type
REMARK                         _______ _______ _______ _____ _____    ______ ____
ROOT
ATOM      1  C   UNL     1       1.633   7.741  19.993  0.00  0.00    +0.000 A 
ATOM      2  C   UNL     1       2.479   7.649  18.872  0.00  0.00    +0.000 A 
ATOM      3  C   UNL     1       3.094   6.440  18.589  0.00  0.00    +0.000 A 
ATOM      4  C   UNL     1       2.861   5.354  19.412  0.00  0.00    +0.000 A 
ATOM      5  C   UNL     1       3.569   4.253  18.951  0.00  0.00    +0.000 A 
ATOM      6  C   UNL     1       3.460   3.054  19.630  0.00  0.00    +0.000 A 
ATOM      7  C   UNL     1       2.632   3.003  20.765  0.00  0.00    +0.000 A 
ATOM      8  C   UNL     1       1.928   4.143  21.220  0.00  0.00    +0.000 A 
ATOM      9  C   UNL     1       2.039   5.372  20.534  0.00  0.00    +0.000 A 
ATOM     10  C   UNL     1       1.426   6.615  20.829  0.00  0.00    +0.000 A 
ATOM     11  C   UNL     1       4.312   4.660  17.765  0.00  0.00    +0.000 A 
ATOM     12  C   UNL     1       5.175   3.973  16.936  0.00  0.00    +0.000 A 
ATOM     13  C   UNL     1       5.736   4.669  15.859  0.00  0.00    +0.000 A 
ATOM     14  C   UNL     1       5.429   6.024  15.629  0.00  0.00    +0.000 A 
ATOM     15  C   UNL     1       4.558   6.719  16.471  0.00  0.00    +0.000 A 
ATOM     16  C   UNL     1       4.009   6.030  17.537  0.00  0.00    +0.000 A 
ENDROOT
BRANCH   1  20
ATOM     17  C   UNL     1       0.190  10.814  21.650  0.00  0.00    +0.000 C 
ATOM     18  C   UNL     1       1.061   9.593  21.558  0.00  0.00    +0.000 C 
ATOM     19  O   UNL     1       1.756   9.262  22.515  0.00  0.00    +0.000 OA
ATOM     20  N   UNL     1       0.978   8.950  20.333  0.00  0.00    +0.000 N 
ATOM     21  H   UNL     1       0.487   9.426  19.587  0.00  0.00    +0.000 HD
ENDBRANCH   1  20
TORSDOF 1
ENDMDL
MODEL 7
REMARK VINA RESULT:      -7.9      1.870      4.127
REMARK  Name = 
REMARK  2 active torsions:
REMARK  status: ('A' for Active; 'I' for Inactive)
REMARK    1  A    between atoms: C_1  and  C_2
REMARK    2  A    between atoms: N_4  and  C_5
REMARK                            x       y       z     vdW  Elec       q    Type
REMARK                         _______ _______ _______ _____ _____    ______ ____
ROOT
ATOM      1  C   UNL     1       0.791   8.334  20.689  0.00  0.00    +0.000 A 
ATOM      2  C   UNL     1       1.034   7.023  21.141  0.00  0.00    +0.000 A 
ATOM      3  C   UNL     1       1.906   6.216  20.429  0.00  0.00    +0.000 A 
ATOM      4  C   UNL     1       2.516   6.715  19.294  0.00  0.00    +0.000 A 
ATOM      5  C   UNL     1       3.343   5.749  18.739  0.00  0.00    +0.000 A 
ATOM      6  C   UNL     1       4.061   6.056  17.598  0.00  0.00    +0.000 A 
ATOM      7  C   UNL     1       3.922   7.342  17.048  0.00  0.00    +0.000 A 
ATOM      8  C   UNL     1       3.064   8.307  17.629  0.00  0.00    +0.000 A 
ATOM      9  C   UNL     1       2.324   7.998  18.790  0.00  0.00    +0.000 A 
ATOM     10  C   UNL     1       1.419   8.815  19.512  0.00  0.00    +0.000 A 
ATOM     11  C   UNL     1       3.248   4.549  19.561  0.00  0.00    +0.000 A 
ATOM     12  C   UNL     1       3.839   3.307  19.454  0.00  0.00    +0.000 A 
ATOM     13  C   UNL     1       3.531   2.353  20.429  0.00  0.00    +0.000 A 
ATOM     14  C   UNL     1       2.648   2.649  21.486  0.00  0.00    +0.000 A 
ATOM     15  C   UNL     1       2.047   3.905  21.591  0.00  0.00    +0.000 A 
ATOM     16  C   UNL     1       2.350   4.846  20.623  0.00  0.00    +0.000 A 
ENDROOT
BRANCH   1  20
ATOM     17  C   UNL     1      -1.030  10.559  23.140  0.00  0.00    +0.000 C 
ATOM     18  C   UNL     1       0.120   9.730  22.641  0.00  0.00    +0.000 C 
ATOM     19  O   UNL     1       1.118   9.581  23.340  0.00  0.00    +0.000 OA
ATOM     20  N   UNL     1      -0.090   9.205  21.375  0.00  0.00    +0.000 N 
ATOM     21  H   UNL     1      -0.892   9.542  20.856  0.00  0.00    +0.000 HD
ENDBRANCH   1  20
TORSDOF 1
ENDMDL
MODEL 8
REMARK VINA RESULT:      -7.8      1.597      4.029
REMARK  Name = 
REMARK  2 active torsions:
REMARK  status: ('A' for Active; 'I' for Inactive)
REMARK    1  A    between atoms: C_1  and  C_2
REMARK    2  A    between atoms: N_4  and  C_5
REMARK                            x       y       z     vdW  Elec       q    Type
REMARK                         _______ _______ _______ _____ _____    ______ ____
ROOT
ATOM      1  C   UNL     1       2.323   8.279  18.557  0.00  0.00    +0.000 A 
ATOM      2  C   UNL     1       1.826   7.100  19.142  0.00  0.00    +0.000 A 
ATOM      3  C   UNL     1       2.344   5.879  18.744  0.00  0.00    +0.000 A 
ATOM      4  C   UNL     1       3.337   5.847  17.783  0.00  0.00    +0.000 A 
ATOM      5  C   UNL     1       3.710   4.534  17.534  0.00  0.00    +0.000 A 
ATOM      6  C   UNL     1       4.707   4.283  16.610  0.00  0.00    +0.000 A 
ATOM      7  C   UNL     1       5.303   5.378  15.959  0.00  0.00    +0.000 A 
ATOM      8  C   UNL     1       4.897   6.707  16.224  0.00  0.00    +0.000 A 
ATOM      9  C   UNL     1       3.877   6.970  17.163  0.00  0.00    +0.000 A 
ATOM     10  C   UNL     1       3.332   8.215  17.561  0.00  0.00    +0.000 A 
ATOM     11  C   UNL     1       2.897   3.667  18.378  0.00  0.00    +0.000 A 
ATOM     12  C   UNL     1       2.846   2.295  18.515  0.00  0.00    +0.000 A 
ATOM     13  C   UNL     1       1.933   1.766  19.434  0.00  0.00    +0.000 A 
ATOM     14  C   UNL     1       1.095   2.604  20.194  0.00  0.00    +0.000 A 
ATOM     15  C   UNL     1       1.145   3.992  20.051  0.00  0.00    +0.000 A 
ATOM     16  C   UNL     1       2.045   4.513  19.140  0.00  0.00    +0.000 A 
ENDROOT
BRANCH   1  20
ATOM     17  C   UNL     1       0.449  11.536  18.953  0.00  0.00    +0.000 C 
ATOM     18  C   UNL     1       0.668  10.138  18.445  0.00  0.00    +0.000 C 
ATOM     19  O   UNL     1      -0.152   9.625  17.689  0.00  0.00    +0.000 OA
ATOM     20  N   UNL     1       1.832   9.556  18.922  0.00  0.00    +0.000 N 
ATOM     21  H   UNL     1       2.327  10.039  19.662  0.00  0.00    +0.000 HD
ENDBRANCH   1  20
TORSDOF 1
ENDMDL
MODEL 9
REMARK VINA RESULT:      -7.7      3.382      5.195
REMARK  Name = 
REMARK  2 active torsions:
REMARK  status: ('A' for Active; 'I' for Inactive)
REMARK    1  A    between atoms: C_1  and  C_2
REMARK    2  A    between atoms: N_4  and  C_5
REMARK                            x       y       z     vdW  Elec       q    Type
REMARK                         _______ _______ _______ _____ _____    ______ ____
ROOT
ATOM      1  C   UNL     1       3.855   3.408  17.796  0.00  0.00    +0.000 A 
ATOM      2  C   UNL     1       4.226   3.273  16.446  0.00  0.00    +0.000 A 
ATOM      3  C   UNL     1       5.294   4.011  15.963  0.00  0.00    +0.000 A 
ATOM      4  C   UNL     1       5.969   4.862  16.817  0.00  0.00    +0.000 A 
ATOM      5  C   UNL     1       6.996   5.499  16.135  0.00  0.00    +0.000 A 
ATOM      6  C   UNL     1       7.806   6.386  16.817  0.00  0.00    +0.000 A 
ATOM      7  C   UNL     1       7.553   6.605  18.183  0.00  0.00    +0.000 A 
ATOM      8  C   UNL     1       6.494   5.949  18.854  0.00  0.00    +0.000 A 
ATOM      9  C   UNL     1       5.659   5.046  18.161  0.00  0.00    +0.000 A 
ATOM     10  C   UNL     1       4.556   4.301  18.647  0.00  0.00    +0.000 A 
ATOM     11  C   UNL     1       6.969   5.039  14.752  0.00  0.00    +0.000 A 
ATOM     12  C   UNL     1       7.747   5.359  13.657  0.00  0.00    +0.000 A 
ATOM     13  C   UNL     1       7.455   4.726  12.444  0.00  0.00    +0.000 A 
ATOM     14  C   UNL     1       6.406   3.792  12.343  0.00  0.00    +0.000 A 
ATOM     15  C   UNL     1       5.618   3.471  13.450  0.00  0.00    +0.000 A 
ATOM     16  C   UNL     1       5.905   4.102  14.647  0.00  0.00    +0.000 A 
ENDROOT
BRANCH   1  20
ATOM     17  C   UNL     1       0.518   2.102  18.995  0.00  0.00    +0.000 C 
ATOM     18  C   UNL     1       1.433   3.022  18.236  0.00  0.00    +0.000 C 
ATOM     19  O   UNL     1       0.966   3.961  17.596  0.00  0.00    +0.000 OA
ATOM     20  N   UNL     1       2.772   2.681  18.347  0.00  0.00    +0.000 N 
ATOM     21  H   UNL     1       2.993   1.791  18.776  0.00  0.00    +0.000 HD
ENDBRANCH   1  20
TORSDOF 1
ENDMDL
