MODEL 1
REMARK VINA RESULT:      -5.6      0.000      0.000
REMARK  Name = 
REMARK  6 active torsions:
REMARK  status: ('A' for Active; 'I' for Inactive)
REMARK    1  A    between atoms: C_1  and  C_2
REMARK    2  A    between atoms: C_2  and  N_3
REMARK    3  A    between atoms: C_2  and  C_5
REMARK    4  A    between atoms: N_3  and  O_4
REMARK    5  A    between atoms: C_5  and  C_8
REMARK    6  A    between atoms: N_6  and  O_7
REMARK                            x       y       z     vdW  Elec       q    Type
REMARK                         _______ _______ _______ _____ _____    ______ ____
ROOT
ATOM      1  C   UNL     1       5.978   4.476  17.104  0.00  0.00    +0.000 C 
ATOM      2  N   UNL     1       6.681   4.439  18.212  0.00  0.00    +0.000 NA
ENDROOT
BRANCH   1   3
ATOM      3  C   UNL     1       4.541   4.737  17.371  0.00  0.00    +0.000 A 
ATOM      4  C   UNL     1       3.505   3.800  17.357  0.00  0.00    +0.000 A 
ATOM      5  C   UNL     1       2.253   4.333  17.771  0.00  0.00    +0.000 A 
ATOM      6  C   UNL     1       2.345   5.671  18.064  0.00  0.00    +0.000 A 
ATOM      7  S   UNL     1       3.930   6.276  17.803  0.00  0.00    +0.000 S 
ENDBRANCH   1   3
BRANCH   1   9
ATOM      8  C   UNL     1       5.517   4.469  14.469  0.00  0.00    +0.000 C 
ATOM      9  C   UNL     1       6.525   4.288  15.614  0.00  0.00    +0.000 C 
BRANCH   9  10
ATOM     10  N   UNL     1       7.596   5.277  15.342  0.00  0.00    +0.000 NA
ATOM     11  H   UNL     1       7.519   5.678  14.398  0.00  0.00    +0.000 HD
BRANCH  10  12
ATOM     12  O   UNL     1       7.458   6.417  16.228  0.00  0.00    +0.000 OA
ATOM     13  H   UNL     1       8.396   6.614  16.440  0.00  0.00    +0.000 HD
ENDBRANCH  10  12
ENDBRANCH   9  10
ENDBRANCH   1   9
BRANCH   2  14
ATOM     14  O   UNL     1       8.040   4.210  18.063  0.00  0.00    +0.000 OA
ATOM     15  H   UNL     1       8.287   4.849  17.368  0.00  0.00    +0.000 HD
ENDBRANCH   2  14
TORSDOF 5
ENDMDL
MODEL 2
REMARK VINA RESULT:      -5.5      1.039      1.247
REMARK  Name = 
REMARK  6 active torsions:
REMARK  status: ('A' for Active; 'I' for Inactive)
REMARK    1  A    between atoms: C_1  and  C_2
REMARK    2  A    between atoms: C_2  and  N_3
REMARK    3  A    between atoms: C_2  and  C_5
REMARK    4  A    between atoms: N_3  and  O_4
REMARK    5  A    between atoms: C_5  and  C_8
REMARK    6  A    between atoms: N_6  and  O_7
REMARK                            x       y       z     vdW  Elec       q    Type
REMARK                         _______ _______ _______ _____ _____    ______ ____
ROOT
ATOM      1  C   UNL     1       5.958   4.467  17.358  0.00  0.00    +0.000 C 
ATOM      2  N   UNL     1       6.656   4.499  18.468  0.00  0.00    +0.000 NA
ENDROOT
BRANCH   1   3
ATOM      3  C   UNL     1       4.497   4.521  17.622  0.00  0.00    +0.000 A 
ATOM      4  C   UNL     1       3.725   5.669  17.815  0.00  0.00    +0.000 A 
ATOM      5  C   UNL     1       2.332   5.403  17.928  0.00  0.00    +0.000 A 
ATOM      6  C   UNL     1       2.067   4.059  17.852  0.00  0.00    +0.000 A 
ATOM      7  S   UNL     1       3.501   3.131  17.681  0.00  0.00    +0.000 S 
ENDBRANCH   1   3
BRANCH   1   9
ATOM      8  C   UNL     1       5.508   4.459  14.720  0.00  0.00    +0.000 C 
ATOM      9  C   UNL     1       6.529   4.395  15.867  0.00  0.00    +0.000 C 
BRANCH   9  10
ATOM     10  N   UNL     1       7.450   5.531  15.624  0.00  0.00    +0.000 NA
ATOM     11  H   UNL     1       7.342   5.919  14.678  0.00  0.00    +0.000 HD
BRANCH  10  12
ATOM     12  O   UNL     1       7.119   6.637  16.504  0.00  0.00    +0.000 OA
ATOM     13  H   UNL     1       6.254   6.346  16.865  0.00  0.00    +0.000 HD
ENDBRANCH  10  12
ENDBRANCH   9  10
ENDBRANCH   1   9
BRANCH   2  14
ATOM     14  O   UNL     1       8.034   4.464  18.322  0.00  0.00    +0.000 OA
ATOM     15  H   UNL     1       8.198   5.187  17.689  0.00  0.00    +0.000 HD
ENDBRANCH   2  14
TORSDOF 5
ENDMDL
MODEL 3
REMARK VINA RESULT:      -5.3      2.064      2.408
REMARK  Name = 
REMARK  6 active torsions:
REMARK  status: ('A' for Active; 'I' for Inactive)
REMARK    1  A    between atoms: C_1  and  C_2
REMARK    2  A    between atoms: C_2  and  N_3
REMARK    3  A    between atoms: C_2  and  C_5
REMARK    4  A    between atoms: N_3  and  O_4
REMARK    5  A    between atoms: C_5  and  C_8
REMARK    6  A    between atoms: N_6  and  O_7
REMARK                            x       y       z     vdW  Elec       q    Type
REMARK                         _______ _______ _______ _____ _____    ______ ____
ROOT
ATOM      1  C   UNL     1       5.676   4.629  18.314  0.00  0.00    +0.000 C 
ATOM      2  N   UNL     1       6.292   4.628  19.473  0.00  0.00    +0.000 NA
ENDROOT
BRANCH   1   3
ATOM      3  C   UNL     1       4.501   3.721  18.313  0.00  0.00    +0.000 A 
ATOM      4  C   UNL     1       3.550   3.586  17.299  0.00  0.00    +0.000 A 
ATOM      5  C   UNL     1       2.609   2.547  17.539  0.00  0.00    +0.000 A 
ATOM      6  C   UNL     1       2.836   1.927  18.743  0.00  0.00    +0.000 A 
ATOM      7  S   UNL     1       4.157   2.628  19.585  0.00  0.00    +0.000 S 
ENDBRANCH   1   3
BRANCH   1   9
ATOM      8  C   UNL     1       5.759   6.987  17.052  0.00  0.00    +0.000 C 
ATOM      9  C   UNL     1       6.067   5.482  17.020  0.00  0.00    +0.000 C 
BRANCH   9  10
ATOM     10  N   UNL     1       7.528   5.395  16.781  0.00  0.00    +0.000 NA
ATOM     11  H   UNL     1       8.054   6.051  17.373  0.00  0.00    +0.000 HD
BRANCH  10  12
ATOM     12  O   UNL     1       8.019   4.087  17.171  0.00  0.00    +0.000 OA
ATOM     13  H   UNL     1       8.870   4.045  16.684  0.00  0.00    +0.000 HD
ENDBRANCH  10  12
ENDBRANCH   9  10
ENDBRANCH   1   9
BRANCH   2  14
ATOM     14  O   UNL     1       7.399   5.456  19.574  0.00  0.00    +0.000 OA
ATOM     15  H   UNL     1       7.096   6.139  20.202  0.00  0.00    +0.000 HD
ENDBRANCH   2  14
TORSDOF 5
ENDMDL
MODEL 4
REMARK VINA RESULT:      -5.3      3.211      4.339
REMARK  Name = 
REMARK  6 active torsions:
REMARK  status: ('A' for Active; 'I' for Inactive)
REMARK    1  A    between atoms: C_1  and  C_2
REMARK    2  A    between atoms: C_2  and  N_3
REMARK    3  A    between atoms: C_2  and  C_5
REMARK    4  A    between atoms: N_3  and  O_4
REMARK    5  A    between atoms: C_5  and  C_8
REMARK    6  A    between atoms: N_6  and  O_7
REMARK                            x       y       z     vdW  Elec       q    Type
REMARK                         _______ _______ _______ _____ _____    ______ ____
ROOT
ATOM      1  C   UNL     1       4.092   3.466  18.789  0.00  0.00    +0.000 C 
ATOM      2  N   UNL     1       5.115   3.148  19.547  0.00  0.00    +0.000 NA
ENDROOT
BRANCH   1   3
ATOM      3  C   UNL     1       4.429   4.550  17.833  0.00  0.00    +0.000 A 
ATOM      4  C   UNL     1       4.353   5.925  18.068  0.00  0.00    +0.000 A 
ATOM      5  C   UNL     1       4.859   6.712  16.997  0.00  0.00    +0.000 A 
ATOM      6  C   UNL     1       5.283   5.931  15.951  0.00  0.00    +0.000 A 
ATOM      7  S   UNL     1       5.034   4.261  16.258  0.00  0.00    +0.000 S 
ENDBRANCH   1   3
BRANCH   1   9
ATOM      8  C   UNL     1       1.488   3.616  18.195  0.00  0.00    +0.000 C 
ATOM      9  C   UNL     1       2.636   2.806  18.817  0.00  0.00    +0.000 C 
BRANCH   9  10
ATOM     10  N   UNL     1       2.649   1.525  18.072  0.00  0.00    +0.000 NA
ATOM     11  H   UNL     1       2.628   1.671  17.054  0.00  0.00    +0.000 HD
BRANCH  10  12
ATOM     12  O   UNL     1       3.897   0.824  18.309  0.00  0.00    +0.000 OA
ATOM     13  H   UNL     1       4.212   1.259  19.130  0.00  0.00    +0.000 HD
ENDBRANCH  10  12
ENDBRANCH   9  10
ENDBRANCH   1   9
BRANCH   2  14
ATOM     14  O   UNL     1       4.899   2.134  20.468  0.00  0.00    +0.000 OA
ATOM     15  H   UNL     1       3.987   2.310  20.765  0.00  0.00    +0.000 HD
ENDBRANCH   2  14
TORSDOF 5
ENDMDL
MODEL 5
REMARK VINA RESULT:      -5.2      1.108      1.652
REMARK  Name = 
REMARK  6 active torsions:
REMARK  status: ('A' for Active; 'I' for Inactive)
REMARK    1  A    between atoms: C_1  and  C_2
REMARK    2  A    between atoms: C_2  and  N_3
REMARK    3  A    between atoms: C_2  and  C_5
REMARK    4  A    between atoms: N_3  and  O_4
REMARK    5  A    between atoms: C_5  and  C_8
REMARK    6  A    between atoms: N_6  and  O_7
REMARK                            x       y       z     vdW  Elec       q    Type
REMARK                         _______ _______ _______ _____ _____    ______ ____
ROOT
ATOM      1  C   UNL     1       5.568   5.308  16.924  0.00  0.00    +0.000 C 
ATOM      2  N   UNL     1       5.891   6.549  17.205  0.00  0.00    +0.000 NA
ENDROOT
BRANCH   1   3
ATOM      3  C   UNL     1       4.189   4.982  17.370  0.00  0.00    +0.000 A 
ATOM      4  C   UNL     1       3.441   3.857  17.018  0.00  0.00    +0.000 A 
ATOM      5  C   UNL     1       2.198   3.765  17.703  0.00  0.00    +0.000 A 
ATOM      6  C   UNL     1       2.003   4.835  18.541  0.00  0.00    +0.000 A 
ATOM      7  S   UNL     1       3.303   5.952  18.467  0.00  0.00    +0.000 S 
ENDBRANCH   1   3
BRANCH   1   9
ATOM      8  C   UNL     1       6.688   4.399  14.671  0.00  0.00    +0.000 C 
ATOM      9  C   UNL     1       6.478   4.224  16.182  0.00  0.00    +0.000 C 
BRANCH   9  10
ATOM     10  N   UNL     1       7.843   4.230  16.762  0.00  0.00    +0.000 NA
ATOM     11  H   UNL     1       8.377   5.062  16.480  0.00  0.00    +0.000 HD
BRANCH  10  12
ATOM     12  O   UNL     1       7.769   4.324  18.208  0.00  0.00    +0.000 OA
ATOM     13  H   UNL     1       8.360   5.088  18.384  0.00  0.00    +0.000 HD
ENDBRANCH  10  12
ENDBRANCH   9  10
ENDBRANCH   1   9
BRANCH   2  14
ATOM     14  O   UNL     1       7.159   6.950  16.815  0.00  0.00    +0.000 OA
ATOM     15  H   UNL     1       7.031   7.898  16.624  0.00  0.00    +0.000 HD
ENDBRANCH   2  14
TORSDOF 5
ENDMDL
MODEL 6
REMARK VINA RESULT:      -5.2      2.963      4.174
REMARK  Name = 
REMARK  6 active torsions:
REMARK  status: ('A' for Active; 'I' for Inactive)
REMARK    1  A    between atoms: C_1  and  C_2
REMARK    2  A    between atoms: C_2  and  N_3
REMARK    3  A    between atoms: C_2  and  C_5
REMARK    4  A    between atoms: N_3  and  O_4
REMARK    5  A    between atoms: C_5  and  C_8
REMARK    6  A    between atoms: N_6  and  O_7
REMARK                            x       y       z     vdW  Elec       q    Type
REMARK                         _______ _______ _______ _____ _____    ______ ____
ROOT
ATOM      1  C   UNL     1       4.173   3.544  18.579  0.00  0.00    +0.000 C 
ATOM      2  N   UNL     1       5.138   3.196  19.397  0.00  0.00    +0.000 NA
ENDROOT
BRANCH   1   3
ATOM      3  C   UNL     1       4.651   4.476  17.526  0.00  0.00    +0.000 A 
ATOM      4  C   UNL     1       5.119   4.132  16.256  0.00  0.00    +0.000 A 
ATOM      5  C   UNL     1       5.393   5.256  15.429  0.00  0.00    +0.000 A 
ATOM      6  C   UNL     1       5.159   6.437  16.088  0.00  0.00    +0.000 A 
ATOM      7  S   UNL     1       4.648   6.178  17.706  0.00  0.00    +0.000 S 
ENDBRANCH   1   3
BRANCH   1   9
ATOM      8  C   UNL     1       1.622   3.894  17.851  0.00  0.00    +0.000 C 
ATOM      9  C   UNL     1       2.650   3.059  18.630  0.00  0.00    +0.000 C 
BRANCH   9  10
ATOM     10  N   UNL     1       2.537   1.691  18.070  0.00  0.00    +0.000 NA
ATOM     11  H   UNL     1       2.319   1.704  17.065  0.00  0.00    +0.000 HD
BRANCH  10  12
ATOM     12  O   UNL     1       3.817   1.013  18.151  0.00  0.00    +0.000 OA
ATOM     13  H   UNL     1       3.635   0.333  18.835  0.00  0.00    +0.000 HD
ENDBRANCH  10  12
ENDBRANCH   9  10
ENDBRANCH   1   9
BRANCH   2  14
ATOM     14  O   UNL     1       4.790   2.316  20.410  0.00  0.00    +0.000 OA
ATOM     15  H   UNL     1       4.054   1.815  20.012  0.00  0.00    +0.000 HD
ENDBRANCH   2  14
TORSDOF 5
ENDMDL
MODEL 7
REMARK VINA RESULT:      -5.1      1.433      1.538
REMARK  Name = 
REMARK  6 active torsions:
REMARK  status: ('A' for Active; 'I' for Inactive)
REMARK    1  A    between atoms: C_1  and  C_2
REMARK    2  A    between atoms: C_2  and  N_3
REMARK    3  A    between atoms: C_2  and  C_5
REMARK    4  A    between atoms: N_3  and  O_4
REMARK    5  A    between atoms: C_5  and  C_8
REMARK    6  A    between atoms: N_6  and  O_7
REMARK                            x       y       z     vdW  Elec       q    Type
REMARK                         _______ _______ _______ _____ _____    ______ ____
ROOT
ATOM      1  C   UNL     1       6.340   5.113  18.441  0.00  0.00    +0.000 C 
ATOM      2  N   UNL     1       6.718   5.293  19.684  0.00  0.00    +0.000 NA
ENDROOT
BRANCH   1   3
ATOM      3  C   UNL     1       4.871   4.923  18.333  0.00  0.00    +0.000 A 
ATOM      4  C   UNL     1       4.162   3.742  18.567  0.00  0.00    +0.000 A 
ATOM      5  C   UNL     1       2.750   3.906  18.499  0.00  0.00    +0.000 A 
ATOM      6  C   UNL     1       2.405   5.196  18.184  0.00  0.00    +0.000 A 
ATOM      7  S   UNL     1       3.785   6.187  17.940  0.00  0.00    +0.000 S 
ENDBRANCH   1   3
BRANCH   1   9
ATOM      8  C   UNL     1       6.751   4.359  15.907  0.00  0.00    +0.000 C 
ATOM      9  C   UNL     1       7.276   5.102  17.145  0.00  0.00    +0.000 C 
BRANCH   9  10
ATOM     10  N   UNL     1       7.517   6.491  16.685  0.00  0.00    +0.000 NA
ATOM     11  H   UNL     1       6.686   6.896  16.235  0.00  0.00    +0.000 HD
BRANCH  10  12
ATOM     12  O   UNL     1       7.767   7.355  17.823  0.00  0.00    +0.000 OA
ATOM     13  H   UNL     1       7.309   8.179  17.546  0.00  0.00    +0.000 HD
ENDBRANCH  10  12
ENDBRANCH   9  10
ENDBRANCH   1   9
BRANCH   2  14
ATOM     14  O   UNL     1       8.075   5.491  19.886  0.00  0.00    +0.000 OA
ATOM     15  H   UNL     1       8.311   4.750  20.475  0.00  0.00    +0.000 HD
ENDBRANCH   2  14
TORSDOF 5
ENDMDL
MODEL 8
REMARK VINA RESULT:      -5.1      1.597      1.800
REMARK  Name = 
REMARK  6 active torsions:
REMARK  status: ('A' for Active; 'I' for Inactive)
REMARK    1  A    between atoms: C_1  and  C_2
REMARK    2  A    between atoms: C_2  and  N_3
REMARK    3  A    between atoms: C_2  and  C_5
REMARK    4  A    between atoms: N_3  and  O_4
REMARK    5  A    between atoms: C_5  and  C_8
REMARK    6  A    between atoms: N_6  and  O_7
REMARK                            x       y       z     vdW  Elec       q    Type
REMARK                         _______ _______ _______ _____ _____    ______ ____
ROOT
ATOM      1  C   UNL     1       6.210   5.086  18.503  0.00  0.00    +0.000 C 
ATOM      2  N   UNL     1       6.765   5.402  19.649  0.00  0.00    +0.000 NA
ENDROOT
BRANCH   1   3
ATOM      3  C   UNL     1       4.728   5.081  18.591  0.00  0.00    +0.000 A 
ATOM      4  C   UNL     1       3.858   6.060  18.105  0.00  0.00    +0.000 A 
ATOM      5  C   UNL     1       2.485   5.713  18.234  0.00  0.00    +0.000 A 
ATOM      6  C   UNL     1       2.326   4.493  18.842  0.00  0.00    +0.000 A 
ATOM      7  S   UNL     1       3.832   3.796  19.282  0.00  0.00    +0.000 S 
ENDBRANCH   1   3
BRANCH   1   9
ATOM      8  C   UNL     1       6.152   4.023  16.048  0.00  0.00    +0.000 C 
ATOM      9  C   UNL     1       6.962   4.751  17.133  0.00  0.00    +0.000 C 
BRANCH   9  10
ATOM     10  N   UNL     1       7.423   6.004  16.490  0.00  0.00    +0.000 NA
ATOM     11  H   UNL     1       8.304   6.344  16.899  0.00  0.00    +0.000 HD
BRANCH  10  12
ATOM     12  O   UNL     1       7.745   5.760  15.097  0.00  0.00    +0.000 OA
ATOM     13  H   UNL     1       7.610   6.651  14.706  0.00  0.00    +0.000 HD
ENDBRANCH  10  12
ENDBRANCH   9  10
ENDBRANCH   1   9
BRANCH   2  14
ATOM     14  O   UNL     1       8.151   5.445  19.663  0.00  0.00    +0.000 OA
ATOM     15  H   UNL     1       8.341   6.294  19.223  0.00  0.00    +0.000 HD
ENDBRANCH   2  14
TORSDOF 5
ENDMDL
MODEL 9
REMARK VINA RESULT:      -5.1      1.504      1.825
REMARK  Name = 
REMARK  6 active torsions:
REMARK  status: ('A' for Active; 'I' for Inactive)
REMARK    1  A    between atoms: C_1  and  C_2
REMARK    2  A    between atoms: C_2  and  N_3
REMARK    3  A    between atoms: C_2  and  C_5
REMARK    4  A    between atoms: N_3  and  O_4
REMARK    5  A    between atoms: C_5  and  C_8
REMARK    6  A    between atoms: N_6  and  O_7
REMARK                            x       y       z     vdW  Elec       q    Type
REMARK                         _______ _______ _______ _____ _____    ______ ____
ROOT
ATOM      1  C   UNL     1       5.944   5.298  17.882  0.00  0.00    +0.000 C 
ATOM      2  N   UNL     1       6.546   4.618  18.829  0.00  0.00    +0.000 NA
ENDROOT
BRANCH   1   3
ATOM      3  C   UNL     1       4.511   4.927  17.763  0.00  0.00    +0.000 A 
ATOM      4  C   UNL     1       3.995   3.744  17.228  0.00  0.00    +0.000 A 
ATOM      5  C   UNL     1       2.583   3.629  17.363  0.00  0.00    +0.000 A 
ATOM      6  C   UNL     1       2.041   4.735  17.968  0.00  0.00    +0.000 A 
ATOM      7  S   UNL     1       3.234   5.914  18.335  0.00  0.00    +0.000 S 
ENDBRANCH   1   3
BRANCH   1   9
ATOM      8  C   UNL     1       7.492   7.463  17.611  0.00  0.00    +0.000 C 
ATOM      9  C   UNL     1       6.594   6.412  16.939  0.00  0.00    +0.000 C 
BRANCH   9  10
ATOM     10  N   UNL     1       7.454   5.769  15.917  0.00  0.00    +0.000 NA
ATOM     11  H   UNL     1       8.366   6.238  15.833  0.00  0.00    +0.000 HD
BRANCH  10  12
ATOM     12  O   UNL     1       7.782   4.416  16.323  0.00  0.00    +0.000 OA
ATOM     13  H   UNL     1       8.628   4.555  16.802  0.00  0.00    +0.000 HD
ENDBRANCH  10  12
ENDBRANCH   9  10
ENDBRANCH   1   9
BRANCH   2  14
ATOM     14  O   UNL     1       7.888   4.903  19.024  0.00  0.00    +0.000 OA
ATOM     15  H   UNL     1       7.915   5.873  18.926  0.00  0.00    +0.000 HD
ENDBRANCH   2  14
TORSDOF 5
ENDMDL
