MODEL 1
REMARK VINA RESULT:      -8.0      0.000      0.000
REMARK  Name = 
REMARK  6 active torsions:
REMARK  status: ('A' for Active; 'I' for Inactive)
REMARK    1  A    between atoms: C_2  and  C_3
REMARK    2  A    between atoms: C_6  and  N_7
REMARK    3  A    between atoms: C_9  and  C_10
REMARK    4  A    between atoms: C_13  and  C_14
REMARK    5  A    between atoms: C_14  and  O_16
REMARK    6  A    between atoms: C_20  and  C_21
REMARK                            x       y       z     vdW  Elec       q    Type
REMARK                         _______ _______ _______ _____ _____    ______ ____
ROOT
ATOM      1  N   UNL     1       3.445   6.382  18.805  0.00  0.00    +0.000 N 
ATOM      2  N   UNL     1       3.797   6.321  17.492  0.00  0.00    +0.000 NA
ATOM      3  C   UNL     1       4.537   5.262  17.354  0.00  0.00    +0.000 C 
ATOM      4  C   UNL     1       4.683   4.413  18.587  0.00  0.00    +0.000 C 
ATOM      5  C   UNL     1       3.821   5.194  19.581  0.00  0.00    +0.000 C 
ENDROOT
BRANCH   1   9
ATOM      6  C   UNL     1       0.719   9.280  20.229  0.00  0.00    +0.000 A 
ATOM      7  C   UNL     1       1.151   8.249  21.067  0.00  0.00    +0.000 A 
ATOM      8  C   UNL     1       2.030   7.272  20.581  0.00  0.00    +0.000 A 
ATOM      9  C   UNL     1       2.531   7.326  19.273  0.00  0.00    +0.000 A 
ATOM     10  C   UNL     1       2.090   8.372  18.448  0.00  0.00    +0.000 A 
ATOM     11  C   UNL     1       1.185   9.332  18.911  0.00  0.00    +0.000 A 
BRANCH   6  13
ATOM     12  N   UNL     1      -0.924  11.088  21.103  0.00  0.00    +0.000 NA
ATOM     13  C   UNL     1      -0.190  10.275  20.712  0.00  0.00    +0.000 C 
ENDBRANCH   6  13
ENDBRANCH   1   9
BRANCH   3  14
ATOM     14  C   UNL     1       5.206   4.893  16.083  0.00  0.00    +0.000 A 
ATOM     15  C   UNL     1       4.494   4.173  15.119  0.00  0.00    +0.000 A 
ATOM     16  C   UNL     1       5.106   3.820  13.913  0.00  0.00    +0.000 A 
ATOM     17  C   UNL     1       6.437   4.175  13.656  0.00  0.00    +0.000 A 
ATOM     18  C   UNL     1       7.148   4.912  14.612  0.00  0.00    +0.000 A 
ATOM     19  C   UNL     1       6.531   5.269  15.821  0.00  0.00    +0.000 A 
BRANCH  17  20
ATOM     20  C   UNL     1       7.006   3.790  12.335  0.00  0.00    +0.000 C 
ATOM     21  O   UNL     1       7.591   4.587  11.623  0.00  0.00    +0.000 OA
BRANCH  20  22
ATOM     22  O   UNL     1       6.793   2.509  11.972  0.00  0.00    +0.000 OA
ATOM     23  H   UNL     1       6.244   1.970  12.567  0.00  0.00    +0.000 HD
ENDBRANCH  20  22
ENDBRANCH  17  20
ENDBRANCH   3  14
BRANCH   5  24
ATOM     24  C   UNL     1       2.689   4.335  20.062  0.00  0.00    +0.000 A 
ATOM     25  C   UNL     1       2.333   3.842  21.302  0.00  0.00    +0.000 A 
ATOM     26  C   UNL     1       1.147   3.099  21.113  0.00  0.00    +0.000 A 
ATOM     27  C   UNL     1       0.853   3.181  19.773  0.00  0.00    +0.000 A 
ATOM     28  O   UNL     1       1.780   3.935  19.125  0.00  0.00    +0.000 OA
ENDBRANCH   5  24
TORSDOF 6
ENDMDL
MODEL 2
REMARK VINA RESULT:      -7.9      0.498      1.175
REMARK  Name = 
REMARK  6 active torsions:
REMARK  status: ('A' for Active; 'I' for Inactive)
REMARK    1  A    between atoms: C_2  and  C_3
REMARK    2  A    between atoms: C_6  and  N_7
REMARK    3  A    between atoms: C_9  and  C_10
REMARK    4  A    between atoms: C_13  and  C_14
REMARK    5  A    between atoms: C_14  and  O_16
REMARK    6  A    between atoms: C_20  and  C_21
REMARK                            x       y       z     vdW  Elec       q    Type
REMARK                         _______ _______ _______ _____ _____    ______ ____
ROOT
ATOM      1  N   UNL     1       3.470   6.367  18.709  0.00  0.00    +0.000 N 
ATOM      2  N   UNL     1       3.853   6.332  17.403  0.00  0.00    +0.000 NA
ATOM      3  C   UNL     1       4.543   5.243  17.247  0.00  0.00    +0.000 C 
ATOM      4  C   UNL     1       4.614   4.346  18.454  0.00  0.00    +0.000 C 
ATOM      5  C   UNL     1       3.766   5.137  19.452  0.00  0.00    +0.000 C 
ENDROOT
BRANCH   1   9
ATOM      6  C   UNL     1       0.768   9.277  20.152  0.00  0.00    +0.000 A 
ATOM      7  C   UNL     1       1.245   9.350  18.841  0.00  0.00    +0.000 A 
ATOM      8  C   UNL     1       2.166   8.402  18.377  0.00  0.00    +0.000 A 
ATOM      9  C   UNL     1       2.593   7.340  19.187  0.00  0.00    +0.000 A 
ATOM     10  C   UNL     1       2.098   7.281  20.499  0.00  0.00    +0.000 A 
ATOM     11  C   UNL     1       1.206   8.243  20.984  0.00  0.00    +0.000 A 
BRANCH   6  13
ATOM     12  N   UNL     1      -0.918  11.038  21.043  0.00  0.00    +0.000 NA
ATOM     13  C   UNL     1      -0.162  10.250  20.640  0.00  0.00    +0.000 C 
ENDBRANCH   6  13
ENDBRANCH   1   9
BRANCH   3  14
ATOM     14  C   UNL     1       5.225   4.882  15.981  0.00  0.00    +0.000 A 
ATOM     15  C   UNL     1       4.531   4.149  15.014  0.00  0.00    +0.000 A 
ATOM     16  C   UNL     1       5.156   3.803  13.813  0.00  0.00    +0.000 A 
ATOM     17  C   UNL     1       6.482   4.180  13.562  0.00  0.00    +0.000 A 
ATOM     18  C   UNL     1       7.175   4.930  14.522  0.00  0.00    +0.000 A 
ATOM     19  C   UNL     1       6.545   5.280  15.726  0.00  0.00    +0.000 A 
BRANCH  17  20
ATOM     20  C   UNL     1       7.066   3.802  12.246  0.00  0.00    +0.000 C 
ATOM     21  O   UNL     1       7.632   4.610  11.531  0.00  0.00    +0.000 OA
BRANCH  20  22
ATOM     22  O   UNL     1       6.888   2.514  11.890  0.00  0.00    +0.000 OA
ATOM     23  H   UNL     1       7.649   2.062  11.486  0.00  0.00    +0.000 HD
ENDBRANCH  20  22
ENDBRANCH  17  20
ENDBRANCH   3  14
BRANCH   5  24
ATOM     24  C   UNL     1       2.581   4.321  19.876  0.00  0.00    +0.000 A 
ATOM     25  C   UNL     1       1.447   3.883  19.220  0.00  0.00    +0.000 A 
ATOM     26  C   UNL     1       0.703   3.137  20.161  0.00  0.00    +0.000 A 
ATOM     27  C   UNL     1       1.425   3.166  21.330  0.00  0.00    +0.000 A 
ATOM     28  O   UNL     1       2.571   3.876  21.167  0.00  0.00    +0.000 OA
ENDBRANCH   5  24
TORSDOF 6
ENDMDL
MODEL 3
REMARK VINA RESULT:      -7.7      3.414      6.537
REMARK  Name = 
REMARK  6 active torsions:
REMARK  status: ('A' for Active; 'I' for Inactive)
REMARK    1  A    between atoms: C_2  and  C_3
REMARK    2  A    between atoms: C_6  and  N_7
REMARK    3  A    between atoms: C_9  and  C_10
REMARK    4  A    between atoms: C_13  and  C_14
REMARK    5  A    between atoms: C_14  and  O_16
REMARK    6  A    between atoms: C_20  and  C_21
REMARK                            x       y       z     vdW  Elec       q    Type
REMARK                         _______ _______ _______ _____ _____    ______ ____
ROOT
ATOM      1  N   UNL     1       0.304  10.295  19.813  0.00  0.00    +0.000 N 
ATOM      2  N   UNL     1       0.840   9.066  20.047  0.00  0.00    +0.000 NA
ATOM      3  C   UNL     1       1.665   8.828  19.073  0.00  0.00    +0.000 C 
ATOM      4  C   UNL     1       1.854   9.958  18.097  0.00  0.00    +0.000 C 
ATOM      5  C   UNL     1       0.934  11.020  18.704  0.00  0.00    +0.000 C 
ENDROOT
BRANCH   1   9
ATOM      6  C   UNL     1      -2.232  12.143  22.642  0.00  0.00    +0.000 A 
ATOM      7  C   UNL     1      -2.376  12.423  21.281  0.00  0.00    +0.000 A 
ATOM      8  C   UNL     1      -1.512  11.833  20.350  0.00  0.00    +0.000 A 
ATOM      9  C   UNL     1      -0.523  10.921  20.745  0.00  0.00    +0.000 A 
ATOM     10  C   UNL     1      -0.399  10.648  22.116  0.00  0.00    +0.000 A 
ATOM     11  C   UNL     1      -1.232  11.259  23.058  0.00  0.00    +0.000 A 
BRANCH   6  13
ATOM     12  N   UNL     1      -3.805  13.253  24.383  0.00  0.00    +0.000 NA
ATOM     13  C   UNL     1      -3.101  12.752  23.603  0.00  0.00    +0.000 C 
ENDBRANCH   6  13
ENDBRANCH   1   9
BRANCH   3  14
ATOM     14  C   UNL     1       2.383   7.542  18.906  0.00  0.00    +0.000 A 
ATOM     15  C   UNL     1       3.209   7.359  17.793  0.00  0.00    +0.000 A 
ATOM     16  C   UNL     1       3.898   6.155  17.621  0.00  0.00    +0.000 A 
ATOM     17  C   UNL     1       3.768   5.117  18.553  0.00  0.00    +0.000 A 
ATOM     18  C   UNL     1       2.955   5.303  19.678  0.00  0.00    +0.000 A 
ATOM     19  C   UNL     1       2.267   6.514  19.852  0.00  0.00    +0.000 A 
BRANCH  17  20
ATOM     20  C   UNL     1       4.559   3.878  18.315  0.00  0.00    +0.000 C 
ATOM     21  O   UNL     1       4.121   2.943  17.667  0.00  0.00    +0.000 OA
BRANCH  20  22
ATOM     22  O   UNL     1       5.774   3.853  18.899  0.00  0.00    +0.000 OA
ATOM     23  H   UNL     1       5.808   3.563  19.827  0.00  0.00    +0.000 HD
ENDBRANCH  20  22
ENDBRANCH  17  20
ENDBRANCH   3  14
BRANCH   5  24
ATOM     24  C   UNL     1       1.731  12.235  19.077  0.00  0.00    +0.000 A 
ATOM     25  C   UNL     1       1.935  12.908  20.265  0.00  0.00    +0.000 A 
ATOM     26  C   UNL     1       2.807  13.981  19.974  0.00  0.00    +0.000 A 
ATOM     27  C   UNL     1       3.080  13.899  18.629  0.00  0.00    +0.000 A 
ATOM     28  O   UNL     1       2.437  12.837  18.075  0.00  0.00    +0.000 OA
ENDBRANCH   5  24
TORSDOF 6
ENDMDL
MODEL 4
REMARK VINA RESULT:      -7.7      3.355      6.483
REMARK  Name = 
REMARK  6 active torsions:
REMARK  status: ('A' for Active; 'I' for Inactive)
REMARK    1  A    between atoms: C_2  and  C_3
REMARK    2  A    between atoms: C_6  and  N_7
REMARK    3  A    between atoms: C_9  and  C_10
REMARK    4  A    between atoms: C_13  and  C_14
REMARK    5  A    between atoms: C_14  and  O_16
REMARK    6  A    between atoms: C_20  and  C_21
REMARK                            x       y       z     vdW  Elec       q    Type
REMARK                         _______ _______ _______ _____ _____    ______ ____
ROOT
ATOM      1  N   UNL     1       0.342  10.180  19.804  0.00  0.00    +0.000 N 
ATOM      2  N   UNL     1       0.929   8.979  20.061  0.00  0.00    +0.000 NA
ATOM      3  C   UNL     1       1.737   8.740  19.072  0.00  0.00    +0.000 C 
ATOM      4  C   UNL     1       1.858   9.845  18.058  0.00  0.00    +0.000 C 
ATOM      5  C   UNL     1       0.916  10.892  18.656  0.00  0.00    +0.000 C 
ENDROOT
BRANCH   1   9
ATOM      6  C   UNL     1      -2.188  12.024  22.642  0.00  0.00    +0.000 A 
ATOM      7  C   UNL     1      -2.325  12.316  21.283  0.00  0.00    +0.000 A 
ATOM      8  C   UNL     1      -1.463  11.727  20.349  0.00  0.00    +0.000 A 
ATOM      9  C   UNL     1      -0.483  10.805  20.739  0.00  0.00    +0.000 A 
ATOM     10  C   UNL     1      -0.364  10.520  22.109  0.00  0.00    +0.000 A 
ATOM     11  C   UNL     1      -1.195  11.130  23.053  0.00  0.00    +0.000 A 
BRANCH   6  13
ATOM     12  N   UNL     1      -3.760  13.132  24.384  0.00  0.00    +0.000 NA
ATOM     13  C   UNL     1      -3.055  12.633  23.605  0.00  0.00    +0.000 C 
ENDBRANCH   6  13
ENDBRANCH   1   9
BRANCH   3  14
ATOM     14  C   UNL     1       2.498   7.476  18.926  0.00  0.00    +0.000 A 
ATOM     15  C   UNL     1       2.348   6.472  19.887  0.00  0.00    +0.000 A 
ATOM     16  C   UNL     1       3.053   5.272  19.764  0.00  0.00    +0.000 A 
ATOM     17  C   UNL     1       3.920   5.059  18.684  0.00  0.00    +0.000 A 
ATOM     18  C   UNL     1       4.059   6.056  17.710  0.00  0.00    +0.000 A 
ATOM     19  C   UNL     1       3.348   7.260  17.832  0.00  0.00    +0.000 A 
BRANCH  17  20
ATOM     20  C   UNL     1       4.609   3.742  18.607  0.00  0.00    +0.000 C 
ATOM     21  O   UNL     1       5.155   3.238  19.574  0.00  0.00    +0.000 OA
BRANCH  20  22
ATOM     22  O   UNL     1       4.619   3.171  17.386  0.00  0.00    +0.000 OA
ATOM     23  H   UNL     1       4.022   2.415  17.252  0.00  0.00    +0.000 HD
ENDBRANCH  20  22
ENDBRANCH  17  20
ENDBRANCH   3  14
BRANCH   5  24
ATOM     24  C   UNL     1       1.677  12.146  18.970  0.00  0.00    +0.000 A 
ATOM     25  C   UNL     1       1.894  12.858  20.133  0.00  0.00    +0.000 A 
ATOM     26  C   UNL     1       2.713  13.955  19.784  0.00  0.00    +0.000 A 
ATOM     27  C   UNL     1       2.944  13.847  18.434  0.00  0.00    +0.000 A 
ATOM     28  O   UNL     1       2.325  12.747  17.929  0.00  0.00    +0.000 OA
ENDBRANCH   5  24
TORSDOF 6
ENDMDL
MODEL 5
REMARK VINA RESULT:      -7.7      3.455      6.454
REMARK  Name = 
REMARK  6 active torsions:
REMARK  status: ('A' for Active; 'I' for Inactive)
REMARK    1  A    between atoms: C_2  and  C_3
REMARK    2  A    between atoms: C_6  and  N_7
REMARK    3  A    between atoms: C_9  and  C_10
REMARK    4  A    between atoms: C_13  and  C_14
REMARK    5  A    between atoms: C_14  and  O_16
REMARK    6  A    between atoms: C_20  and  C_21
REMARK                            x       y       z     vdW  Elec       q    Type
REMARK                         _______ _______ _______ _____ _____    ______ ____
ROOT
ATOM      1  N   UNL     1       0.325  10.250  19.763  0.00  0.00    +0.000 N 
ATOM      2  N   UNL     1       0.898   9.037  19.992  0.00  0.00    +0.000 NA
ATOM      3  C   UNL     1       1.719   8.821  19.010  0.00  0.00    +0.000 C 
ATOM      4  C   UNL     1       1.865   9.956  18.031  0.00  0.00    +0.000 C 
ATOM      5  C   UNL     1       0.922  10.992  18.646  0.00  0.00    +0.000 C 
ENDROOT
BRANCH   1   9
ATOM      6  C   UNL     1      -2.173  12.128  22.607  0.00  0.00    +0.000 A 
ATOM      7  C   UNL     1      -1.195  11.220  23.021  0.00  0.00    +0.000 A 
ATOM      8  C   UNL     1      -0.391  10.576  22.072  0.00  0.00    +0.000 A 
ATOM      9  C   UNL     1      -0.510  10.854  20.704  0.00  0.00    +0.000 A 
ATOM     10  C   UNL     1      -1.494  11.773  20.308  0.00  0.00    +0.000 A 
ATOM     11  C   UNL     1      -2.327  12.395  21.243  0.00  0.00    +0.000 A 
BRANCH   6  13
ATOM     12  N   UNL     1      -3.692  13.305  24.351  0.00  0.00    +0.000 NA
ATOM     13  C   UNL     1      -3.010  12.781  23.568  0.00  0.00    +0.000 C 
ENDBRANCH   6  13
ENDBRANCH   1   9
BRANCH   3  14
ATOM     14  C   UNL     1       2.472   7.556  18.836  0.00  0.00    +0.000 A 
ATOM     15  C   UNL     1       2.320   6.536  19.781  0.00  0.00    +0.000 A 
ATOM     16  C   UNL     1       3.018   5.333  19.633  0.00  0.00    +0.000 A 
ATOM     17  C   UNL     1       3.878   5.135  18.544  0.00  0.00    +0.000 A 
ATOM     18  C   UNL     1       4.019   6.149  17.587  0.00  0.00    +0.000 A 
ATOM     19  C   UNL     1       3.315   7.354  17.735  0.00  0.00    +0.000 A 
BRANCH  17  20
ATOM     20  C   UNL     1       4.560   3.816  18.441  0.00  0.00    +0.000 C 
ATOM     21  O   UNL     1       3.996   2.827  18.006  0.00  0.00    +0.000 OA
BRANCH  20  22
ATOM     22  O   UNL     1       5.828   3.789  18.898  0.00  0.00    +0.000 OA
ATOM     23  H   UNL     1       6.078   3.029  19.450  0.00  0.00    +0.000 HD
ENDBRANCH  20  22
ENDBRANCH  17  20
ENDBRANCH   3  14
BRANCH   5  24
ATOM     24  C   UNL     1       1.689  12.229  19.010  0.00  0.00    +0.000 A 
ATOM     25  C   UNL     1       1.954  12.863  20.208  0.00  0.00    +0.000 A 
ATOM     26  C   UNL     1       2.749  13.989  19.898  0.00  0.00    +0.000 A 
ATOM     27  C   UNL     1       2.919  13.975  18.534  0.00  0.00    +0.000 A 
ATOM     28  O   UNL     1       2.285  12.905  17.984  0.00  0.00    +0.000 OA
ENDBRANCH   5  24
TORSDOF 6
ENDMDL
MODEL 6
REMARK VINA RESULT:      -7.6      0.527      1.186
REMARK  Name = 
REMARK  6 active torsions:
REMARK  status: ('A' for Active; 'I' for Inactive)
REMARK    1  A    between atoms: C_2  and  C_3
REMARK    2  A    between atoms: C_6  and  N_7
REMARK    3  A    between atoms: C_9  and  C_10
REMARK    4  A    between atoms: C_13  and  C_14
REMARK    5  A    between atoms: C_14  and  O_16
REMARK    6  A    between atoms: C_20  and  C_21
REMARK                            x       y       z     vdW  Elec       q    Type
REMARK                         _______ _______ _______ _____ _____    ______ ____
ROOT
ATOM      1  N   UNL     1       3.446   6.301  18.689  0.00  0.00    +0.000 N 
ATOM      2  N   UNL     1       3.787   6.266  17.372  0.00  0.00    +0.000 NA
ATOM      3  C   UNL     1       4.491   5.188  17.199  0.00  0.00    +0.000 C 
ATOM      4  C   UNL     1       4.619   4.300  18.408  0.00  0.00    +0.000 C 
ATOM      5  C   UNL     1       3.789   5.081  19.429  0.00  0.00    +0.000 C 
ENDROOT
BRANCH   1   9
ATOM      6  C   UNL     1       0.824   9.244  20.213  0.00  0.00    +0.000 A 
ATOM      7  C   UNL     1       1.243   8.187  21.025  0.00  0.00    +0.000 A 
ATOM      8  C   UNL     1       2.086   7.196  20.506  0.00  0.00    +0.000 A 
ATOM      9  C   UNL     1       2.566   7.260  19.191  0.00  0.00    +0.000 A 
ATOM     10  C   UNL     1       2.139   8.333  18.392  0.00  0.00    +0.000 A 
ATOM     11  C   UNL     1       1.268   9.308  18.889  0.00  0.00    +0.000 A 
BRANCH   6  13
ATOM     12  N   UNL     1      -0.764  11.071  21.148  0.00  0.00    +0.000 NA
ATOM     13  C   UNL     1      -0.049  10.253  20.730  0.00  0.00    +0.000 C 
ENDBRANCH   6  13
ENDBRANCH   1   9
BRANCH   3  14
ATOM     14  C   UNL     1       5.139   4.834  15.913  0.00  0.00    +0.000 A 
ATOM     15  C   UNL     1       6.436   5.288  15.653  0.00  0.00    +0.000 A 
ATOM     16  C   UNL     1       7.065   4.961  14.449  0.00  0.00    +0.000 A 
ATOM     17  C   UNL     1       6.408   4.181  13.487  0.00  0.00    +0.000 A 
ATOM     18  C   UNL     1       5.116   3.710  13.753  0.00  0.00    +0.000 A 
ATOM     19  C   UNL     1       4.486   4.036  14.964  0.00  0.00    +0.000 A 
BRANCH  17  20
ATOM     20  C   UNL     1       7.158   3.849  12.245  0.00  0.00    +0.000 C 
ATOM     21  O   UNL     1       7.707   4.703  11.570  0.00  0.00    +0.000 OA
BRANCH  20  22
ATOM     22  O   UNL     1       7.151   2.545  11.902  0.00  0.00    +0.000 OA
ATOM     23  H   UNL     1       6.281   2.140  11.741  0.00  0.00    +0.000 HD
ENDBRANCH  20  22
ENDBRANCH  17  20
ENDBRANCH   3  14
BRANCH   5  24
ATOM     24  C   UNL     1       2.634   4.245  19.896  0.00  0.00    +0.000 A 
ATOM     25  C   UNL     1       1.502   3.758  19.272  0.00  0.00    +0.000 A 
ATOM     26  C   UNL     1       0.795   3.019  20.246  0.00  0.00    +0.000 A 
ATOM     27  C   UNL     1       1.535   3.100  21.401  0.00  0.00    +0.000 A 
ATOM     28  O   UNL     1       2.659   3.837  21.198  0.00  0.00    +0.000 OA
ENDBRANCH   5  24
TORSDOF 6
ENDMDL
MODEL 7
REMARK VINA RESULT:      -7.5      0.143      1.320
REMARK  Name = 
REMARK  6 active torsions:
REMARK  status: ('A' for Active; 'I' for Inactive)
REMARK    1  A    between atoms: C_2  and  C_3
REMARK    2  A    between atoms: C_6  and  N_7
REMARK    3  A    between atoms: C_9  and  C_10
REMARK    4  A    between atoms: C_13  and  C_14
REMARK    5  A    between atoms: C_14  and  O_16
REMARK    6  A    between atoms: C_20  and  C_21
REMARK                            x       y       z     vdW  Elec       q    Type
REMARK                         _______ _______ _______ _____ _____    ______ ____
ROOT
ATOM      1  N   UNL     1       3.499   6.346  18.716  0.00  0.00    +0.000 N 
ATOM      2  N   UNL     1       3.818   6.295  17.394  0.00  0.00    +0.000 NA
ATOM      3  C   UNL     1       4.529   5.221  17.224  0.00  0.00    +0.000 C 
ATOM      4  C   UNL     1       4.684   4.351  18.442  0.00  0.00    +0.000 C 
ATOM      5  C   UNL     1       3.864   5.139  19.466  0.00  0.00    +0.000 C 
ENDROOT
BRANCH   1   9
ATOM      6  C   UNL     1       0.791   9.212  20.234  0.00  0.00    +0.000 A 
ATOM      7  C   UNL     1       1.267   9.319  18.925  0.00  0.00    +0.000 A 
ATOM      8  C   UNL     1       2.189   8.385  18.436  0.00  0.00    +0.000 A 
ATOM      9  C   UNL     1       2.620   7.305  19.219  0.00  0.00    +0.000 A 
ATOM     10  C   UNL     1       2.126   7.211  20.530  0.00  0.00    +0.000 A 
ATOM     11  C   UNL     1       1.233   8.158  21.040  0.00  0.00    +0.000 A 
BRANCH   6  13
ATOM     12  N   UNL     1      -0.896  10.947  21.170  0.00  0.00    +0.000 NA
ATOM     13  C   UNL     1      -0.141  10.170  20.747  0.00  0.00    +0.000 C 
ENDBRANCH   6  13
ENDBRANCH   1   9
BRANCH   3  14
ATOM     14  C   UNL     1       5.159   4.854  15.933  0.00  0.00    +0.000 A 
ATOM     15  C   UNL     1       6.460   5.286  15.660  0.00  0.00    +0.000 A 
ATOM     16  C   UNL     1       7.073   4.946  14.450  0.00  0.00    +0.000 A 
ATOM     17  C   UNL     1       6.393   4.178  13.495  0.00  0.00    +0.000 A 
ATOM     18  C   UNL     1       5.095   3.729  13.773  0.00  0.00    +0.000 A 
ATOM     19  C   UNL     1       4.483   4.067  14.990  0.00  0.00    +0.000 A 
BRANCH  17  20
ATOM     20  C   UNL     1       7.125   3.832  12.246  0.00  0.00    +0.000 C 
ATOM     21  O   UNL     1       7.690   4.674  11.571  0.00  0.00    +0.000 OA
BRANCH  20  22
ATOM     22  O   UNL     1       7.082   2.529  11.899  0.00  0.00    +0.000 OA
ATOM     23  H   UNL     1       7.913   2.029  11.976  0.00  0.00    +0.000 HD
ENDBRANCH  20  22
ENDBRANCH  17  20
ENDBRANCH   3  14
BRANCH   5  24
ATOM     24  C   UNL     1       2.725   4.300  19.964  0.00  0.00    +0.000 A 
ATOM     25  C   UNL     1       2.401   3.776  21.199  0.00  0.00    +0.000 A 
ATOM     26  C   UNL     1       1.184   3.078  21.033  0.00  0.00    +0.000 A 
ATOM     27  C   UNL     1       0.841   3.216  19.709  0.00  0.00    +0.000 A 
ATOM     28  O   UNL     1       1.767   3.963  19.051  0.00  0.00    +0.000 OA
ENDBRANCH   5  24
TORSDOF 6
ENDMDL
MODEL 8
REMARK VINA RESULT:      -7.5      3.398      6.540
REMARK  Name = 
REMARK  6 active torsions:
REMARK  status: ('A' for Active; 'I' for Inactive)
REMARK    1  A    between atoms: C_2  and  C_3
REMARK    2  A    between atoms: C_6  and  N_7
REMARK    3  A    between atoms: C_9  and  C_10
REMARK    4  A    between atoms: C_13  and  C_14
REMARK    5  A    between atoms: C_14  and  O_16
REMARK    6  A    between atoms: C_20  and  C_21
REMARK                            x       y       z     vdW  Elec       q    Type
REMARK                         _______ _______ _______ _____ _____    ______ ____
ROOT
ATOM      1  N   UNL     1       0.057  10.242  19.774  0.00  0.00    +0.000 N 
ATOM      2  N   UNL     1       0.797   9.136  20.060  0.00  0.00    +0.000 NA
ATOM      3  C   UNL     1       1.521   8.890  19.010  0.00  0.00    +0.000 C 
ATOM      4  C   UNL     1       1.412   9.902  17.901  0.00  0.00    +0.000 C 
ATOM      5  C   UNL     1       0.426  10.899  18.515  0.00  0.00    +0.000 C 
ENDROOT
BRANCH   1   9
ATOM      6  C   UNL     1      -2.302  12.176  22.698  0.00  0.00    +0.000 A 
ATOM      7  C   UNL     1      -1.293  11.291  23.082  0.00  0.00    +0.000 A 
ATOM      8  C   UNL     1      -0.534  10.627  22.109  0.00  0.00    +0.000 A 
ATOM      9  C   UNL     1      -0.731  10.864  20.742  0.00  0.00    +0.000 A 
ATOM     10  C   UNL     1      -1.746  11.761  20.375  0.00  0.00    +0.000 A 
ATOM     11  C   UNL     1      -2.533  12.402  21.337  0.00  0.00    +0.000 A 
BRANCH   6  13
ATOM     12  N   UNL     1      -3.733  13.389  24.491  0.00  0.00    +0.000 NA
ATOM     13  C   UNL     1      -3.092  12.848  23.684  0.00  0.00    +0.000 C 
ENDBRANCH   6  13
ENDBRANCH   1   9
BRANCH   3  14
ATOM     14  C   UNL     1       2.398   7.701  18.882  0.00  0.00    +0.000 A 
ATOM     15  C   UNL     1       3.275   7.612  17.797  0.00  0.00    +0.000 A 
ATOM     16  C   UNL     1       4.113   6.502  17.661  0.00  0.00    +0.000 A 
ATOM     17  C   UNL     1       4.083   5.464  18.603  0.00  0.00    +0.000 A 
ATOM     18  C   UNL     1       3.218   5.559  19.700  0.00  0.00    +0.000 A 
ATOM     19  C   UNL     1       2.379   6.676  19.837  0.00  0.00    +0.000 A 
BRANCH  17  20
ATOM     20  C   UNL     1       5.029   4.332  18.405  0.00  0.00    +0.000 C 
ATOM     21  O   UNL     1       6.106   4.279  18.974  0.00  0.00    +0.000 OA
BRANCH  20  22
ATOM     22  O   UNL     1       4.624   3.394  17.525  0.00  0.00    +0.000 OA
ATOM     23  H   UNL     1       3.672   3.361  17.329  0.00  0.00    +0.000 HD
ENDBRANCH  20  22
ENDBRANCH  17  20
ENDBRANCH   3  14
BRANCH   5  24
ATOM     24  C   UNL     1       1.072  12.247  18.637  0.00  0.00    +0.000 A 
ATOM     25  C   UNL     1       0.610  13.538  18.478  0.00  0.00    +0.000 A 
ATOM     26  C   UNL     1       1.704  14.392  18.744  0.00  0.00    +0.000 A 
ATOM     27  C   UNL     1       2.764  13.572  19.047  0.00  0.00    +0.000 A 
ATOM     28  O   UNL     1       2.390  12.266  18.993  0.00  0.00    +0.000 OA
ENDBRANCH   5  24
TORSDOF 6
ENDMDL
MODEL 9
REMARK VINA RESULT:      -6.9      3.479      5.535
REMARK  Name = 
REMARK  6 active torsions:
REMARK  status: ('A' for Active; 'I' for Inactive)
REMARK    1  A    between atoms: C_2  and  C_3
REMARK    2  A    between atoms: C_6  and  N_7
REMARK    3  A    between atoms: C_9  and  C_10
REMARK    4  A    between atoms: C_13  and  C_14
REMARK    5  A    between atoms: C_14  and  O_16
REMARK    6  A    between atoms: C_20  and  C_21
REMARK                            x       y       z     vdW  Elec       q    Type
REMARK                         _______ _______ _______ _____ _____    ______ ____
ROOT
ATOM      1  N   UNL     1       0.137   9.895  18.508  0.00  0.00    +0.000 N 
ATOM      2  N   UNL     1       0.624   8.793  17.876  0.00  0.00    +0.000 NA
ATOM      3  C   UNL     1       1.760   8.512  18.439  0.00  0.00    +0.000 C 
ATOM      4  C   UNL     1       2.123   9.370  19.621  0.00  0.00    +0.000 C 
ATOM      5  C   UNL     1       0.902  10.290  19.697  0.00  0.00    +0.000 C 
ENDROOT
BRANCH   1   9
ATOM      6  C   UNL     1      -3.718  11.399  17.652  0.00  0.00    +0.000 A 
ATOM      7  C   UNL     1      -2.883  12.073  18.547  0.00  0.00    +0.000 A 
ATOM      8  C   UNL     1      -1.618  11.554  18.852  0.00  0.00    +0.000 A 
ATOM      9  C   UNL     1      -1.142  10.385  18.242  0.00  0.00    +0.000 A 
ATOM     10  C   UNL     1      -1.992   9.726  17.342  0.00  0.00    +0.000 A 
ATOM     11  C   UNL     1      -3.270  10.216  17.057  0.00  0.00    +0.000 A 
BRANCH   6  13
ATOM     12  N   UNL     1      -6.071  12.340  17.094  0.00  0.00    +0.000 NA
ATOM     13  C   UNL     1      -5.017  11.915  17.344  0.00  0.00    +0.000 C 
ENDBRANCH   6  13
ENDBRANCH   1   9
BRANCH   3  14
ATOM     14  C   UNL     1       2.659   7.431  17.970  0.00  0.00    +0.000 A 
ATOM     15  C   UNL     1       3.861   7.766  17.339  0.00  0.00    +0.000 A 
ATOM     16  C   UNL     1       4.724   6.761  16.894  0.00  0.00    +0.000 A 
ATOM     17  C   UNL     1       4.397   5.409  17.067  0.00  0.00    +0.000 A 
ATOM     18  C   UNL     1       3.202   5.070  17.714  0.00  0.00    +0.000 A 
ATOM     19  C   UNL     1       2.338   6.080  18.164  0.00  0.00    +0.000 A 
BRANCH  17  20
ATOM     20  C   UNL     1       5.383   4.399  16.594  0.00  0.00    +0.000 C 
ATOM     21  O   UNL     1       5.376   3.970  15.453  0.00  0.00    +0.000 OA
BRANCH  20  22
ATOM     22  O   UNL     1       6.256   3.969  17.528  0.00  0.00    +0.000 OA
ATOM     23  H   UNL     1       6.411   3.010  17.573  0.00  0.00    +0.000 HD
ENDBRANCH  20  22
ENDBRANCH  17  20
ENDBRANCH   3  14
BRANCH   5  24
ATOM     24  C   UNL     1       0.210  10.115  21.016  0.00  0.00    +0.000 A 
ATOM     25  C   UNL     1      -0.168   9.007  21.749  0.00  0.00    +0.000 A 
ATOM     26  C   UNL     1      -0.775   9.495  22.928  0.00  0.00    +0.000 A 
ATOM     27  C   UNL     1      -0.733  10.866  22.841  0.00  0.00    +0.000 A 
ATOM     28  O   UNL     1      -0.129  11.254  21.687  0.00  0.00    +0.000 OA
ENDBRANCH   5  24
TORSDOF 6
ENDMDL
