MODEL 1
REMARK VINA RESULT:      -7.4      0.000      0.000
REMARK  Name = 
REMARK  11 active torsions:
REMARK  status: ('A' for Active; 'I' for Inactive)
REMARK    1  A    between atoms: C_2  and  C_3
REMARK    2  A    between atoms: C_7  and  N_8
REMARK    3  A    between atoms: N_8  and  C_9
REMARK    4  A    between atoms: C_15  and  N_16
REMARK    5  A    between atoms: N_19  and  C_20
REMARK    6  A    between atoms: C_20  and  C_21
REMARK    7  A    between atoms: C_21  and  N_22
REMARK    8  A    between atoms: N_22  and  C_23
REMARK    9  A    between atoms: N_22  and  C_25
REMARK   10  A    between atoms: C_23  and  C_24
REMARK   11  A    between atoms: C_25  and  C_26
REMARK                            x       y       z     vdW  Elec       q    Type
REMARK                         _______ _______ _______ _____ _____    ______ ____
ROOT
ATOM      1  C   UNL     1       2.819   5.425  18.709  0.00  0.00    +0.000 A 
ATOM      2  N   UNL     1       2.842   4.511  19.698  0.00  0.00    +0.000 NA
ATOM      3  C   UNL     1       2.288   4.860  20.861  0.00  0.00    +0.000 A 
ATOM      4  N   UNL     1       1.727   6.039  21.138  0.00  0.00    +0.000 NA
ATOM      5  C   UNL     1       1.739   6.945  20.159  0.00  0.00    +0.000 A 
ATOM      6  C   UNL     1       1.228   8.204  20.424  0.00  0.00    +0.000 A 
ATOM      7  C   UNL     1       1.239   9.256  19.494  0.00  0.00    +0.000 A 
ATOM      8  C   UNL     1       1.736   8.963  18.219  0.00  0.00    +0.000 A 
ATOM      9  F   UNL     1       1.792   9.905  17.264  0.00  0.00    +0.000 F 
ATOM     10  C   UNL     1       2.240   7.710  17.908  0.00  0.00    +0.000 A 
ATOM     11  C   UNL     1       2.261   6.697  18.888  0.00  0.00    +0.000 A 
ENDROOT
BRANCH   7  12
ATOM     12  N   UNL     1       0.764  10.499  19.854  0.00  0.00    +0.000 N 
ATOM     13  C   UNL     1       1.290  11.221  21.016  0.00  0.00    +0.000 C 
ATOM     14  C   UNL     1       1.579  12.687  20.608  0.00  0.00    +0.000 C 
ATOM     15  N   UNL     1       0.438  13.407  19.982  0.00  0.00    +0.000 NA
ATOM     16  C   UNL     1      -0.019  12.593  18.818  0.00  0.00    +0.000 C 
ATOM     17  C   UNL     1      -0.370  11.126  19.161  0.00  0.00    +0.000 C 
BRANCH  15  18
ATOM     18  C   UNL     1      -0.685  13.582  20.927  0.00  0.00    +0.000 C 
BRANCH  18  19
ATOM     19  C   UNL     1      -0.317  14.310  22.240  0.00  0.00    +0.000 C 
BRANCH  19  20
ATOM     20  N   UNL     1      -0.836  13.665  23.471  0.00  0.00    +0.000 NA
BRANCH  20  21
ATOM     21  C   UNL     1      -1.594  14.578  24.344  0.00  0.00    +0.000 C 
ATOM     22  C   UNL     1      -1.658  16.043  23.917  0.00  0.00    +0.000 C 
ENDBRANCH  20  21
BRANCH  20  23
ATOM     23  C   UNL     1      -1.580  12.453  23.085  0.00  0.00    +0.000 C 
ATOM     24  C   UNL     1      -3.037  12.437  23.531  0.00  0.00    +0.000 C 
ENDBRANCH  20  23
ENDBRANCH  19  20
ENDBRANCH  18  19
ENDBRANCH  15  18
ENDBRANCH   7  12
BRANCH   1  25
ATOM     25  N   UNL     1       3.403   5.111  17.461  0.00  0.00    +0.000 N 
ATOM     26  H   UNL     1       2.928   4.336  17.017  0.00  0.00    +0.000 HD
BRANCH  25  31
ATOM     27  C   UNL     1       6.863   6.452  17.172  0.00  0.00    +0.000 A 
ATOM     28  C   UNL     1       7.450   5.493  16.349  0.00  0.00    +0.000 A 
ATOM     29  C   UNL     1       6.696   4.407  15.903  0.00  0.00    +0.000 A 
ATOM     30  C   UNL     1       5.357   4.283  16.276  0.00  0.00    +0.000 A 
ATOM     31  C   UNL     1       4.761   5.228  17.118  0.00  0.00    +0.000 A 
ATOM     32  C   UNL     1       5.531   6.312  17.559  0.00  0.00    +0.000 A 
BRANCH  27  34
ATOM     33  C   UNL     1       8.212   8.582  17.912  0.00  0.00    +0.000 C 
ATOM     34  C   UNL     1       7.600   7.603  17.603  0.00  0.00    +0.000 C 
ENDBRANCH  27  34
ENDBRANCH  25  31
ENDBRANCH   1  25
TORSDOF 9
ENDMDL
MODEL 2
REMARK VINA RESULT:      -7.4      2.122      3.362
REMARK  Name = 
REMARK  11 active torsions:
REMARK  status: ('A' for Active; 'I' for Inactive)
REMARK    1  A    between atoms: C_2  and  C_3
REMARK    2  A    between atoms: C_7  and  N_8
REMARK    3  A    between atoms: N_8  and  C_9
REMARK    4  A    between atoms: C_15  and  N_16
REMARK    5  A    between atoms: N_19  and  C_20
REMARK    6  A    between atoms: C_20  and  C_21
REMARK    7  A    between atoms: C_21  and  N_22
REMARK    8  A    between atoms: N_22  and  C_23
REMARK    9  A    between atoms: N_22  and  C_25
REMARK   10  A    between atoms: C_23  and  C_24
REMARK   11  A    between atoms: C_25  and  C_26
REMARK                            x       y       z     vdW  Elec       q    Type
REMARK                         _______ _______ _______ _____ _____    ______ ____
ROOT
ATOM      1  C   UNL     1       3.083   3.761  18.894  0.00  0.00    +0.000 A 
ATOM      2  N   UNL     1       3.130   2.828  19.865  0.00  0.00    +0.000 NA
ATOM      3  C   UNL     1       2.645   3.171  21.060  0.00  0.00    +0.000 A 
ATOM      4  N   UNL     1       2.134   4.361  21.386  0.00  0.00    +0.000 NA
ATOM      5  C   UNL     1       2.122   5.284  20.422  0.00  0.00    +0.000 A 
ATOM      6  C   UNL     1       1.662   6.551  20.735  0.00  0.00    +0.000 A 
ATOM      7  C   UNL     1       1.657   7.619  19.823  0.00  0.00    +0.000 A 
ATOM      8  C   UNL     1       2.079   7.335  18.519  0.00  0.00    +0.000 A 
ATOM      9  F   UNL     1       2.114   8.293  17.578  0.00  0.00    +0.000 F 
ATOM     10  C   UNL     1       2.531   6.075  18.162  0.00  0.00    +0.000 A 
ATOM     11  C   UNL     1       2.572   5.044  19.123  0.00  0.00    +0.000 A 
ENDROOT
BRANCH   7  12
ATOM     12  N   UNL     1       1.236   8.868  20.227  0.00  0.00    +0.000 N 
ATOM     13  C   UNL     1       0.675   9.839  19.282  0.00  0.00    +0.000 C 
ATOM     14  C   UNL     1      -0.619  10.438  19.886  0.00  0.00    +0.000 C 
ATOM     15  N   UNL     1      -0.473  11.016  21.249  0.00  0.00    +0.000 NA
ATOM     16  C   UNL     1       0.100   9.954  22.125  0.00  0.00    +0.000 C 
ATOM     17  C   UNL     1       1.422   9.341  21.606  0.00  0.00    +0.000 C 
BRANCH  15  18
ATOM     18  C   UNL     1       0.423  12.192  21.254  0.00  0.00    +0.000 C 
BRANCH  18  19
ATOM     19  C   UNL     1      -0.045  13.366  20.364  0.00  0.00    +0.000 C 
BRANCH  19  20
ATOM     20  N   UNL     1       1.051  14.117  19.706  0.00  0.00    +0.000 NA
BRANCH  20  21
ATOM     21  C   UNL     1       1.337  15.419  20.334  0.00  0.00    +0.000 C 
ATOM     22  C   UNL     1       2.412  16.280  19.674  0.00  0.00    +0.000 C 
ENDBRANCH  20  21
BRANCH  20  23
ATOM     23  C   UNL     1       2.225  13.234  19.599  0.00  0.00    +0.000 C 
ATOM     24  C   UNL     1       2.569  12.809  18.177  0.00  0.00    +0.000 C 
ENDBRANCH  20  23
ENDBRANCH  19  20
ENDBRANCH  18  19
ENDBRANCH  15  18
ENDBRANCH   7  12
BRANCH   1  25
ATOM     25  N   UNL     1       3.594   3.453  17.612  0.00  0.00    +0.000 N 
ATOM     26  H   UNL     1       3.322   2.523  17.322  0.00  0.00    +0.000 HD
BRANCH  25  31
ATOM     27  C   UNL     1       6.286   4.226  15.161  0.00  0.00    +0.000 A 
ATOM     28  C   UNL     1       7.286   4.700  16.008  0.00  0.00    +0.000 A 
ATOM     29  C   UNL     1       7.056   4.767  17.383  0.00  0.00    +0.000 A 
ATOM     30  C   UNL     1       5.831   4.355  17.909  0.00  0.00    +0.000 A 
ATOM     31  C   UNL     1       4.812   3.895  17.068  0.00  0.00    +0.000 A 
ATOM     32  C   UNL     1       5.056   3.836  15.690  0.00  0.00    +0.000 A 
BRANCH  27  34
ATOM     33  C   UNL     1       6.664   3.959  12.575  0.00  0.00    +0.000 C 
ATOM     34  C   UNL     1       6.513   4.101  13.752  0.00  0.00    +0.000 C 
ENDBRANCH  27  34
ENDBRANCH  25  31
ENDBRANCH   1  25
TORSDOF 9
ENDMDL
MODEL 3
REMARK VINA RESULT:      -7.4      2.113      3.493
REMARK  Name = 
REMARK  11 active torsions:
REMARK  status: ('A' for Active; 'I' for Inactive)
REMARK    1  A    between atoms: C_2  and  C_3
REMARK    2  A    between atoms: C_7  and  N_8
REMARK    3  A    between atoms: N_8  and  C_9
REMARK    4  A    between atoms: C_15  and  N_16
REMARK    5  A    between atoms: N_19  and  C_20
REMARK    6  A    between atoms: C_20  and  C_21
REMARK    7  A    between atoms: C_21  and  N_22
REMARK    8  A    between atoms: N_22  and  C_23
REMARK    9  A    between atoms: N_22  and  C_25
REMARK   10  A    between atoms: C_23  and  C_24
REMARK   11  A    between atoms: C_25  and  C_26
REMARK                            x       y       z     vdW  Elec       q    Type
REMARK                         _______ _______ _______ _____ _____    ______ ____
ROOT
ATOM      1  C   UNL     1       3.048   3.902  18.796  0.00  0.00    +0.000 A 
ATOM      2  N   UNL     1       3.100   2.984  19.780  0.00  0.00    +0.000 NA
ATOM      3  C   UNL     1       2.640   3.351  20.978  0.00  0.00    +0.000 A 
ATOM      4  N   UNL     1       2.148   4.552  21.293  0.00  0.00    +0.000 NA
ATOM      5  C   UNL     1       2.131   5.460  20.316  0.00  0.00    +0.000 A 
ATOM      6  C   UNL     1       1.692   6.738  20.616  0.00  0.00    +0.000 A 
ATOM      7  C   UNL     1       1.683   7.792  19.688  0.00  0.00    +0.000 A 
ATOM      8  C   UNL     1       2.081   7.482  18.383  0.00  0.00    +0.000 A 
ATOM      9  F   UNL     1       2.111   8.425  17.427  0.00  0.00    +0.000 F 
ATOM     10  C   UNL     1       2.511   6.211  18.038  0.00  0.00    +0.000 A 
ATOM     11  C   UNL     1       2.556   5.195  19.013  0.00  0.00    +0.000 A 
ENDROOT
BRANCH   7  12
ATOM     12  N   UNL     1       1.285   9.051  20.080  0.00  0.00    +0.000 N 
ATOM     13  C   UNL     1       1.157  10.155  19.123  0.00  0.00    +0.000 C 
ATOM     14  C   UNL     1      -0.194  10.872  19.361  0.00  0.00    +0.000 C 
ATOM     15  N   UNL     1      -0.434  11.324  20.758  0.00  0.00    +0.000 NA
ATOM     16  C   UNL     1      -0.282  10.134  21.644  0.00  0.00    +0.000 C 
ATOM     17  C   UNL     1       1.067   9.392  21.493  0.00  0.00    +0.000 C 
BRANCH  15  18
ATOM     18  C   UNL     1       0.528  12.368  21.171  0.00  0.00    +0.000 C 
BRANCH  18  19
ATOM     19  C   UNL     1       0.383  13.713  20.424  0.00  0.00    +0.000 C 
BRANCH  19  20
ATOM     20  N   UNL     1       1.643  14.482  20.286  0.00  0.00    +0.000 NA
BRANCH  20  21
ATOM     21  C   UNL     1       2.738  13.719  19.660  0.00  0.00    +0.000 C 
ATOM     22  C   UNL     1       2.629  13.468  18.158  0.00  0.00    +0.000 C 
ENDBRANCH  20  21
BRANCH  20  23
ATOM     23  C   UNL     1       1.341  15.756  19.611  0.00  0.00    +0.000 C 
ATOM     24  C   UNL     1       2.316  16.884  19.925  0.00  0.00    +0.000 C 
ENDBRANCH  20  23
ENDBRANCH  19  20
ENDBRANCH  18  19
ENDBRANCH  15  18
ENDBRANCH   7  12
BRANCH   1  25
ATOM     25  N   UNL     1       3.534   3.568  17.511  0.00  0.00    +0.000 N 
ATOM     26  H   UNL     1       3.226   2.647  17.229  0.00  0.00    +0.000 HD
BRANCH  25  31
ATOM     27  C   UNL     1       6.237   4.200  15.032  0.00  0.00    +0.000 A 
ATOM     28  C   UNL     1       7.251   4.674  15.862  0.00  0.00    +0.000 A 
ATOM     29  C   UNL     1       7.027   4.787  17.235  0.00  0.00    +0.000 A 
ATOM     30  C   UNL     1       5.793   4.422  17.776  0.00  0.00    +0.000 A 
ATOM     31  C   UNL     1       4.760   3.964  16.951  0.00  0.00    +0.000 A 
ATOM     32  C   UNL     1       4.999   3.857  15.575  0.00  0.00    +0.000 A 
BRANCH  27  34
ATOM     33  C   UNL     1       6.636   3.831  12.461  0.00  0.00    +0.000 C 
ATOM     34  C   UNL     1       6.457   4.028  13.627  0.00  0.00    +0.000 C 
ENDBRANCH  27  34
ENDBRANCH  25  31
ENDBRANCH   1  25
TORSDOF 9
ENDMDL
MODEL 4
REMARK VINA RESULT:      -7.3      2.158      3.750
REMARK  Name = 
REMARK  11 active torsions:
REMARK  status: ('A' for Active; 'I' for Inactive)
REMARK    1  A    between atoms: C_2  and  C_3
REMARK    2  A    between atoms: C_7  and  N_8
REMARK    3  A    between atoms: N_8  and  C_9
REMARK    4  A    between atoms: C_15  and  N_16
REMARK    5  A    between atoms: N_19  and  C_20
REMARK    6  A    between atoms: C_20  and  C_21
REMARK    7  A    between atoms: C_21  and  N_22
REMARK    8  A    between atoms: N_22  and  C_23
REMARK    9  A    between atoms: N_22  and  C_25
REMARK   10  A    between atoms: C_23  and  C_24
REMARK   11  A    between atoms: C_25  and  C_26
REMARK                            x       y       z     vdW  Elec       q    Type
REMARK                         _______ _______ _______ _____ _____    ______ ____
ROOT
ATOM      1  C   UNL     1       4.360   3.577  17.257  0.00  0.00    +0.000 A 
ATOM      2  N   UNL     1       3.735   2.411  17.512  0.00  0.00    +0.000 NA
ATOM      3  C   UNL     1       2.523   2.482  18.065  0.00  0.00    +0.000 A 
ATOM      4  N   UNL     1       1.880   3.603  18.403  0.00  0.00    +0.000 NA
ATOM      5  C   UNL     1       2.525   4.748  18.172  0.00  0.00    +0.000 A 
ATOM      6  C   UNL     1       1.924   5.930  18.569  0.00  0.00    +0.000 A 
ATOM      7  C   UNL     1       2.530   7.190  18.432  0.00  0.00    +0.000 A 
ATOM      8  C   UNL     1       3.775   7.223  17.795  0.00  0.00    +0.000 A 
ATOM      9  F   UNL     1       4.434   8.380  17.623  0.00  0.00    +0.000 F 
ATOM     10  C   UNL     1       4.402   6.063  17.368  0.00  0.00    +0.000 A 
ATOM     11  C   UNL     1       3.784   4.813  17.574  0.00  0.00    +0.000 A 
ENDROOT
BRANCH   7  12
ATOM     12  N   UNL     1       1.890   8.316  18.905  0.00  0.00    +0.000 N 
ATOM     13  C   UNL     1       1.589   9.456  18.034  0.00  0.00    +0.000 C 
ATOM     14  C   UNL     1       0.120   9.890  18.265  0.00  0.00    +0.000 C 
ATOM     15  N   UNL     1      -0.243  10.166  19.681  0.00  0.00    +0.000 NA
ATOM     16  C   UNL     1       0.101   8.951  20.475  0.00  0.00    +0.000 C 
ATOM     17  C   UNL     1       1.568   8.486  20.328  0.00  0.00    +0.000 C 
BRANCH  15  18
ATOM     18  C   UNL     1       0.494  11.329  20.220  0.00  0.00    +0.000 C 
BRANCH  18  19
ATOM     19  C   UNL     1       0.195  11.653  21.702  0.00  0.00    +0.000 C 
BRANCH  19  20
ATOM     20  N   UNL     1       0.009  13.095  21.993  0.00  0.00    +0.000 NA
BRANCH  20  21
ATOM     21  C   UNL     1      -0.071  13.937  20.787  0.00  0.00    +0.000 C 
ATOM     22  C   UNL     1      -1.433  14.549  20.466  0.00  0.00    +0.000 C 
ENDBRANCH  20  21
BRANCH  20  23
ATOM     23  C   UNL     1      -1.140  13.243  22.904  0.00  0.00    +0.000 C 
ATOM     24  C   UNL     1      -1.980  11.984  23.070  0.00  0.00    +0.000 C 
ENDBRANCH  20  23
ENDBRANCH  19  20
ENDBRANCH  18  19
ENDBRANCH  15  18
ENDBRANCH   7  12
BRANCH   1  25
ATOM     25  N   UNL     1       5.653   3.558  16.683  0.00  0.00    +0.000 N 
ATOM     26  H   UNL     1       6.362   3.782  17.368  0.00  0.00    +0.000 HD
BRANCH  25  31
ATOM     27  C   UNL     1       5.548   3.848  12.973  0.00  0.00    +0.000 A 
ATOM     28  C   UNL     1       6.724   4.554  12.731  0.00  0.00    +0.000 A 
ATOM     29  C   UNL     1       7.537   4.936  13.798  0.00  0.00    +0.000 A 
ATOM     30  C   UNL     1       7.176   4.606  15.106  0.00  0.00    +0.000 A 
ATOM     31  C   UNL     1       5.988   3.914  15.365  0.00  0.00    +0.000 A 
ATOM     32  C   UNL     1       5.181   3.539  14.283  0.00  0.00    +0.000 A 
BRANCH  27  34
ATOM     33  C   UNL     1       4.029   3.080  10.972  0.00  0.00    +0.000 C 
ATOM     34  C   UNL     1       4.720   3.401  11.892  0.00  0.00    +0.000 C 
ENDBRANCH  27  34
ENDBRANCH  25  31
ENDBRANCH   1  25
TORSDOF 9
ENDMDL
MODEL 5
REMARK VINA RESULT:      -7.3      2.396      9.514
REMARK  Name = 
REMARK  11 active torsions:
REMARK  status: ('A' for Active; 'I' for Inactive)
REMARK    1  A    between atoms: C_2  and  C_3
REMARK    2  A    between atoms: C_7  and  N_8
REMARK    3  A    between atoms: N_8  and  C_9
REMARK    4  A    between atoms: C_15  and  N_16
REMARK    5  A    between atoms: N_19  and  C_20
REMARK    6  A    between atoms: C_20  and  C_21
REMARK    7  A    between atoms: C_21  and  N_22
REMARK    8  A    between atoms: N_22  and  C_23
REMARK    9  A    between atoms: N_22  and  C_25
REMARK   10  A    between atoms: C_23  and  C_24
REMARK   11  A    between atoms: C_25  and  C_26
REMARK                            x       y       z     vdW  Elec       q    Type
REMARK                         _______ _______ _______ _____ _____    ______ ____
ROOT
ATOM      1  C   UNL     1      -0.252  10.795  20.796  0.00  0.00    +0.000 A 
ATOM      2  N   UNL     1      -0.582  10.857  22.100  0.00  0.00    +0.000 NA
ATOM      3  C   UNL     1      -0.114   9.890  22.891  0.00  0.00    +0.000 A 
ATOM      4  N   UNL     1       0.638   8.857  22.503  0.00  0.00    +0.000 NA
ATOM      5  C   UNL     1       0.931   8.793  21.203  0.00  0.00    +0.000 A 
ATOM      6  C   UNL     1       1.652   7.703  20.746  0.00  0.00    +0.000 A 
ATOM      7  C   UNL     1       1.970   7.497  19.394  0.00  0.00    +0.000 A 
ATOM      8  C   UNL     1       1.582   8.498  18.497  0.00  0.00    +0.000 A 
ATOM      9  F   UNL     1       1.836   8.388  17.183  0.00  0.00    +0.000 F 
ATOM     10  C   UNL     1       0.874   9.613  18.917  0.00  0.00    +0.000 A 
ATOM     11  C   UNL     1       0.527   9.755  20.276  0.00  0.00    +0.000 A 
ENDROOT
BRANCH   7  12
ATOM     12  N   UNL     1       2.642   6.356  19.011  0.00  0.00    +0.000 N 
ATOM     13  C   UNL     1       3.881   5.931  19.669  0.00  0.00    +0.000 C 
ATOM     14  C   UNL     1       3.786   4.420  19.992  0.00  0.00    +0.000 C 
ATOM     15  N   UNL     1       3.448   3.546  18.837  0.00  0.00    +0.000 NA
ATOM     16  C   UNL     1       2.180   4.060  18.244  0.00  0.00    +0.000 C 
ATOM     17  C   UNL     1       2.218   5.557  17.853  0.00  0.00    +0.000 C 
BRANCH  15  18
ATOM     18  C   UNL     1       4.510   3.559  17.809  0.00  0.00    +0.000 C 
BRANCH  18  19
ATOM     19  C   UNL     1       5.839   4.205  18.260  0.00  0.00    +0.000 C 
BRANCH  19  20
ATOM     20  N   UNL     1       6.791   4.495  17.160  0.00  0.00    +0.000 NA
BRANCH  20  21
ATOM     21  C   UNL     1       6.235   4.253  15.817  0.00  0.00    +0.000 C 
ATOM     22  C   UNL     1       5.674   5.464  15.076  0.00  0.00    +0.000 C 
ENDBRANCH  20  21
BRANCH  20  23
ATOM     23  C   UNL     1       7.324   5.855  17.350  0.00  0.00    +0.000 C 
ATOM     24  C   UNL     1       7.805   6.154  18.764  0.00  0.00    +0.000 C 
ENDBRANCH  20  23
ENDBRANCH  19  20
ENDBRANCH  18  19
ENDBRANCH  15  18
ENDBRANCH   7  12
BRANCH   1  25
ATOM     25  N   UNL     1      -0.733  11.790  19.912  0.00  0.00    +0.000 N 
ATOM     26  H   UNL     1      -0.457  12.715  20.215  0.00  0.00    +0.000 HD
BRANCH  25  31
ATOM     27  C   UNL     1      -3.162  11.281  17.138  0.00  0.00    +0.000 A 
ATOM     28  C   UNL     1      -4.329  11.774  17.716  0.00  0.00    +0.000 A 
ATOM     29  C   UNL     1      -4.304  12.263  19.023  0.00  0.00    +0.000 A 
ATOM     30  C   UNL     1      -3.111  12.263  19.747  0.00  0.00    +0.000 A 
ATOM     31  C   UNL     1      -1.935  11.753  19.185  0.00  0.00    +0.000 A 
ATOM     32  C   UNL     1      -1.977  11.264  17.873  0.00  0.00    +0.000 A 
BRANCH  27  34
ATOM     33  C   UNL     1      -3.161  10.387  14.667  0.00  0.00    +0.000 C 
ATOM     34  C   UNL     1      -3.150  10.819  15.782  0.00  0.00    +0.000 C 
ENDBRANCH  27  34
ENDBRANCH  25  31
ENDBRANCH   1  25
TORSDOF 9
ENDMDL
MODEL 6
REMARK VINA RESULT:      -7.3      2.509      9.981
REMARK  Name = 
REMARK  11 active torsions:
REMARK  status: ('A' for Active; 'I' for Inactive)
REMARK    1  A    between atoms: C_2  and  C_3
REMARK    2  A    between atoms: C_7  and  N_8
REMARK    3  A    between atoms: N_8  and  C_9
REMARK    4  A    between atoms: C_15  and  N_16
REMARK    5  A    between atoms: N_19  and  C_20
REMARK    6  A    between atoms: C_20  and  C_21
REMARK    7  A    between atoms: C_21  and  N_22
REMARK    8  A    between atoms: N_22  and  C_23
REMARK    9  A    between atoms: N_22  and  C_25
REMARK   10  A    between atoms: C_23  and  C_24
REMARK   11  A    between atoms: C_25  and  C_26
REMARK                            x       y       z     vdW  Elec       q    Type
REMARK                         _______ _______ _______ _____ _____    ______ ____
ROOT
ATOM      1  C   UNL     1      -0.819  11.262  20.993  0.00  0.00    +0.000 A 
ATOM      2  N   UNL     1      -1.202  11.358  22.281  0.00  0.00    +0.000 NA
ATOM      3  C   UNL     1      -0.710  10.453  23.129  0.00  0.00    +0.000 A 
ATOM      4  N   UNL     1       0.113   9.450  22.814  0.00  0.00    +0.000 NA
ATOM      5  C   UNL     1       0.459   9.349  21.529  0.00  0.00    +0.000 A 
ATOM      6  C   UNL     1       1.257   8.286  21.146  0.00  0.00    +0.000 A 
ATOM      7  C   UNL     1       1.637   8.042  19.816  0.00  0.00    +0.000 A 
ATOM      8  C   UNL     1       1.228   8.982  18.863  0.00  0.00    +0.000 A 
ATOM      9  F   UNL     1       1.539   8.832  17.565  0.00  0.00    +0.000 F 
ATOM     10  C   UNL     1       0.443  10.070  19.209  0.00  0.00    +0.000 A 
ATOM     11  C   UNL     1       0.037  10.248  20.547  0.00  0.00    +0.000 A 
ENDROOT
BRANCH   7  12
ATOM     12  N   UNL     1       2.387   6.927  19.507  0.00  0.00    +0.000 N 
ATOM     13  C   UNL     1       2.472   5.778  20.413  0.00  0.00    +0.000 C 
ATOM     14  C   UNL     1       2.255   4.479  19.598  0.00  0.00    +0.000 C 
ATOM     15  N   UNL     1       3.143   4.317  18.416  0.00  0.00    +0.000 NA
ATOM     16  C   UNL     1       2.982   5.531  17.566  0.00  0.00    +0.000 C 
ATOM     17  C   UNL     1       3.229   6.867  18.304  0.00  0.00    +0.000 C 
BRANCH  15  18
ATOM     18  C   UNL     1       4.562   4.181  18.811  0.00  0.00    +0.000 C 
BRANCH  18  19
ATOM     19  C   UNL     1       5.527   3.849  17.650  0.00  0.00    +0.000 C 
BRANCH  19  20
ATOM     20  N   UNL     1       6.474   4.936  17.304  0.00  0.00    +0.000 NA
BRANCH  20  21
ATOM     21  C   UNL     1       7.718   4.912  18.093  0.00  0.00    +0.000 C 
ATOM     22  C   UNL     1       7.805   5.881  19.271  0.00  0.00    +0.000 C 
ENDBRANCH  20  21
BRANCH  20  23
ATOM     23  C   UNL     1       6.691   4.920  15.847  0.00  0.00    +0.000 C 
ATOM     24  C   UNL     1       5.633   4.159  15.058  0.00  0.00    +0.000 C 
ENDBRANCH  20  23
ENDBRANCH  19  20
ENDBRANCH  18  19
ENDBRANCH  15  18
ENDBRANCH   7  12
BRANCH   1  25
ATOM     25  N   UNL     1      -1.321  12.189  20.050  0.00  0.00    +0.000 N 
ATOM     26  H   UNL     1      -0.985  13.124  20.240  0.00  0.00    +0.000 HD
BRANCH  25  31
ATOM     27  C   UNL     1      -4.983  12.478  19.450  0.00  0.00    +0.000 A 
ATOM     28  C   UNL     1      -5.081  11.956  18.163  0.00  0.00    +0.000 A 
ATOM     29  C   UNL     1      -3.932  11.521  17.501  0.00  0.00    +0.000 A 
ATOM     30  C   UNL     1      -2.689  11.602  18.129  0.00  0.00    +0.000 A 
ATOM     31  C   UNL     1      -2.573  12.142  19.415  0.00  0.00    +0.000 A 
ATOM     32  C   UNL     1      -3.735  12.577  20.066  0.00  0.00    +0.000 A 
BRANCH  27  34
ATOM     33  C   UNL     1      -7.138  13.262  20.732  0.00  0.00    +0.000 C 
ATOM     34  C   UNL     1      -6.152  12.886  20.170  0.00  0.00    +0.000 C 
ENDBRANCH  27  34
ENDBRANCH  25  31
ENDBRANCH   1  25
TORSDOF 9
ENDMDL
MODEL 7
REMARK VINA RESULT:      -7.1      2.652      4.882
REMARK  Name = 
REMARK  11 active torsions:
REMARK  status: ('A' for Active; 'I' for Inactive)
REMARK    1  A    between atoms: C_2  and  C_3
REMARK    2  A    between atoms: C_7  and  N_8
REMARK    3  A    between atoms: N_8  and  C_9
REMARK    4  A    between atoms: C_15  and  N_16
REMARK    5  A    between atoms: N_19  and  C_20
REMARK    6  A    between atoms: C_20  and  C_21
REMARK    7  A    between atoms: C_21  and  N_22
REMARK    8  A    between atoms: N_22  and  C_23
REMARK    9  A    between atoms: N_22  and  C_25
REMARK   10  A    between atoms: C_23  and  C_24
REMARK   11  A    between atoms: C_25  and  C_26
REMARK                            x       y       z     vdW  Elec       q    Type
REMARK                         _______ _______ _______ _____ _____    ______ ____
ROOT
ATOM      1  C   UNL     1       1.698   8.248  19.921  0.00  0.00    +0.000 A 
ATOM      2  N   UNL     1       2.061   8.369  18.630  0.00  0.00    +0.000 NA
ATOM      3  C   UNL     1       1.727   9.503  18.010  0.00  0.00    +0.000 A 
ATOM      4  N   UNL     1       1.051  10.521  18.548  0.00  0.00    +0.000 NA
ATOM      5  C   UNL     1       0.672  10.373  19.819  0.00  0.00    +0.000 A 
ATOM      6  C   UNL     1      -0.088  11.375  20.397  0.00  0.00    +0.000 A 
ATOM      7  C   UNL     1      -0.594  11.306  21.705  0.00  0.00    +0.000 A 
ATOM      8  C   UNL     1      -0.234  10.184  22.460  0.00  0.00    +0.000 A 
ATOM      9  F   UNL     1      -0.674  10.027  23.719  0.00  0.00    +0.000 F 
ATOM     10  C   UNL     1       0.540   9.167  21.924  0.00  0.00    +0.000 A 
ATOM     11  C   UNL     1       0.982   9.250  20.588  0.00  0.00    +0.000 A 
ENDROOT
BRANCH   7  12
ATOM     12  N   UNL     1      -1.393  12.320  22.189  0.00  0.00    +0.000 N 
ATOM     13  C   UNL     1      -2.837  12.148  22.369  0.00  0.00    +0.000 C 
ATOM     14  C   UNL     1      -3.236  12.682  23.767  0.00  0.00    +0.000 C 
ATOM     15  N   UNL     1      -2.806  14.076  24.058  0.00  0.00    +0.000 NA
ATOM     16  C   UNL     1      -1.332  14.143  23.846  0.00  0.00    +0.000 C 
ATOM     17  C   UNL     1      -0.864  13.666  22.451  0.00  0.00    +0.000 C 
BRANCH  15  18
ATOM     18  C   UNL     1      -3.473  15.053  23.171  0.00  0.00    +0.000 C 
BRANCH  18  19
ATOM     19  C   UNL     1      -4.951  15.341  23.520  0.00  0.00    +0.000 C 
BRANCH  19  20
ATOM     20  N   UNL     1      -5.896  15.181  22.389  0.00  0.00    +0.000 NA
BRANCH  20  21
ATOM     21  C   UNL     1      -5.235  14.948  21.093  0.00  0.00    +0.000 C 
ATOM     22  C   UNL     1      -5.875  15.596  19.867  0.00  0.00    +0.000 C 
ENDBRANCH  20  21
BRANCH  20  23
ATOM     23  C   UNL     1      -6.885  14.149  22.749  0.00  0.00    +0.000 C 
ATOM     24  C   UNL     1      -6.612  12.776  22.148  0.00  0.00    +0.000 C 
ENDBRANCH  20  23
ENDBRANCH  19  20
ENDBRANCH  18  19
ENDBRANCH  15  18
ENDBRANCH   7  12
BRANCH   1  25
ATOM     25  N   UNL     1       2.016   7.061  20.622  0.00  0.00    +0.000 N 
ATOM     26  H   UNL     1       2.668   7.242  21.373  0.00  0.00    +0.000 HD
BRANCH  25  31
ATOM     27  C   UNL     1       3.053   4.192  18.490  0.00  0.00    +0.000 A 
ATOM     28  C   UNL     1       2.193   3.198  18.949  0.00  0.00    +0.000 A 
ATOM     29  C   UNL     1       1.282   3.484  19.967  0.00  0.00    +0.000 A 
ATOM     30  C   UNL     1       1.229   4.765  20.520  0.00  0.00    +0.000 A 
ATOM     31  C   UNL     1       2.101   5.767  20.081  0.00  0.00    +0.000 A 
ATOM     32  C   UNL     1       3.011   5.464  19.060  0.00  0.00    +0.000 A 
BRANCH  27  34
ATOM     33  C   UNL     1       4.762   3.749  16.544  0.00  0.00    +0.000 C 
ATOM     34  C   UNL     1       3.963   3.939  17.413  0.00  0.00    +0.000 C 
ENDBRANCH  27  34
ENDBRANCH  25  31
ENDBRANCH   1  25
TORSDOF 9
ENDMDL
MODEL 8
REMARK VINA RESULT:      -7.1      1.164      1.673
REMARK  Name = 
REMARK  11 active torsions:
REMARK  status: ('A' for Active; 'I' for Inactive)
REMARK    1  A    between atoms: C_2  and  C_3
REMARK    2  A    between atoms: C_7  and  N_8
REMARK    3  A    between atoms: N_8  and  C_9
REMARK    4  A    between atoms: C_15  and  N_16
REMARK    5  A    between atoms: N_19  and  C_20
REMARK    6  A    between atoms: C_20  and  C_21
REMARK    7  A    between atoms: C_21  and  N_22
REMARK    8  A    between atoms: N_22  and  C_23
REMARK    9  A    between atoms: N_22  and  C_25
REMARK   10  A    between atoms: C_23  and  C_24
REMARK   11  A    between atoms: C_25  and  C_26
REMARK                            x       y       z     vdW  Elec       q    Type
REMARK                         _______ _______ _______ _____ _____    ______ ____
ROOT
ATOM      1  C   UNL     1       2.981   4.676  18.583  0.00  0.00    +0.000 A 
ATOM      2  N   UNL     1       3.057   3.669  19.474  0.00  0.00    +0.000 NA
ATOM      3  C   UNL     1       2.564   3.898  20.693  0.00  0.00    +0.000 A 
ATOM      4  N   UNL     1       2.019   5.042  21.115  0.00  0.00    +0.000 NA
ATOM      5  C   UNL     1       1.979   6.040  20.230  0.00  0.00    +0.000 A 
ATOM      6  C   UNL     1       1.483   7.264  20.645  0.00  0.00    +0.000 A 
ATOM      7  C   UNL     1       1.445   8.403  19.824  0.00  0.00    +0.000 A 
ATOM      8  C   UNL     1       1.874   8.239  18.502  0.00  0.00    +0.000 A 
ATOM      9  F   UNL     1       1.880   9.271  17.643  0.00  0.00    +0.000 F 
ATOM     10  C   UNL     1       2.361   7.025  18.043  0.00  0.00    +0.000 A 
ATOM     11  C   UNL     1       2.434   5.921  18.916  0.00  0.00    +0.000 A 
ENDROOT
BRANCH   7  12
ATOM     12  N   UNL     1       0.989   9.601  20.329  0.00  0.00    +0.000 N 
ATOM     13  C   UNL     1       0.499  10.672  19.456  0.00  0.00    +0.000 C 
ATOM     14  C   UNL     1      -0.840  11.207  20.019  0.00  0.00    +0.000 C 
ATOM     15  N   UNL     1      -0.803  11.631  21.445  0.00  0.00    +0.000 NA
ATOM     16  C   UNL     1      -0.295  10.477  22.241  0.00  0.00    +0.000 C 
ATOM     17  C   UNL     1       1.065   9.919  21.762  0.00  0.00    +0.000 C 
BRANCH  15  18
ATOM     18  C   UNL     1       0.085  12.796  21.648  0.00  0.00    +0.000 C 
BRANCH  18  19
ATOM     19  C   UNL     1      -0.606  14.039  22.250  0.00  0.00    +0.000 C 
BRANCH  19  20
ATOM     20  N   UNL     1      -2.057  13.875  22.510  0.00  0.00    +0.000 NA
BRANCH  20  21
ATOM     21  C   UNL     1      -2.433  14.075  23.921  0.00  0.00    +0.000 C 
ATOM     22  C   UNL     1      -1.613  15.091  24.713  0.00  0.00    +0.000 C 
ENDBRANCH  20  21
BRANCH  20  23
ATOM     23  C   UNL     1      -2.801  14.728  21.567  0.00  0.00    +0.000 C 
ATOM     24  C   UNL     1      -2.002  15.900  21.011  0.00  0.00    +0.000 C 
ENDBRANCH  20  23
ENDBRANCH  19  20
ENDBRANCH  18  19
ENDBRANCH  15  18
ENDBRANCH   7  12
BRANCH   1  25
ATOM     25  N   UNL     1       3.499   4.489  17.281  0.00  0.00    +0.000 N 
ATOM     26  H   UNL     1       3.076   3.690  16.828  0.00  0.00    +0.000 HD
BRANCH  25  31
ATOM     27  C   UNL     1       6.809   6.152  16.918  0.00  0.00    +0.000 A 
ATOM     28  C   UNL     1       7.387   5.375  15.917  0.00  0.00    +0.000 A 
ATOM     29  C   UNL     1       6.678   4.301  15.376  0.00  0.00    +0.000 A 
ATOM     30  C   UNL     1       5.392   4.010  15.833  0.00  0.00    +0.000 A 
ATOM     31  C   UNL     1       4.808   4.771  16.852  0.00  0.00    +0.000 A 
ATOM     32  C   UNL     1       5.532   5.844  17.386  0.00  0.00    +0.000 A 
BRANCH  27  34
ATOM     33  C   UNL     1       8.075   8.256  17.852  0.00  0.00    +0.000 C 
ATOM     34  C   UNL     1       7.496   7.290  17.455  0.00  0.00    +0.000 C 
ENDBRANCH  27  34
ENDBRANCH  25  31
ENDBRANCH   1  25
TORSDOF 9
ENDMDL
MODEL 9
REMARK VINA RESULT:      -7.1      2.499      4.506
REMARK  Name = 
REMARK  11 active torsions:
REMARK  status: ('A' for Active; 'I' for Inactive)
REMARK    1  A    between atoms: C_2  and  C_3
REMARK    2  A    between atoms: C_7  and  N_8
REMARK    3  A    between atoms: N_8  and  C_9
REMARK    4  A    between atoms: C_15  and  N_16
REMARK    5  A    between atoms: N_19  and  C_20
REMARK    6  A    between atoms: C_20  and  C_21
REMARK    7  A    between atoms: C_21  and  N_22
REMARK    8  A    between atoms: N_22  and  C_23
REMARK    9  A    between atoms: N_22  and  C_25
REMARK   10  A    between atoms: C_23  and  C_24
REMARK   11  A    between atoms: C_25  and  C_26
REMARK                            x       y       z     vdW  Elec       q    Type
REMARK                         _______ _______ _______ _____ _____    ______ ____
ROOT
ATOM      1  C   UNL     1       1.799   8.132  19.735  0.00  0.00    +0.000 A 
ATOM      2  N   UNL     1       2.011   8.341  18.422  0.00  0.00    +0.000 NA
ATOM      3  C   UNL     1       1.586   9.500  17.915  0.00  0.00    +0.000 A 
ATOM      4  N   UNL     1       0.954  10.465  18.589  0.00  0.00    +0.000 NA
ATOM      5  C   UNL     1       0.724  10.230  19.883  0.00  0.00    +0.000 A 
ATOM      6  C   UNL     1       0.014  11.174  20.604  0.00  0.00    +0.000 A 
ATOM      7  C   UNL     1      -0.340  11.012  21.953  0.00  0.00    +0.000 A 
ATOM      8  C   UNL     1       0.127   9.857  22.591  0.00  0.00    +0.000 A 
ATOM      9  F   UNL     1      -0.164   9.612  23.879  0.00  0.00    +0.000 F 
ATOM     10  C   UNL     1       0.856   8.896  21.908  0.00  0.00    +0.000 A 
ATOM     11  C   UNL     1       1.142   9.072  20.540  0.00  0.00    +0.000 A 
ENDROOT
BRANCH   7  12
ATOM     12  N   UNL     1      -1.099  11.973  22.586  0.00  0.00    +0.000 N 
ATOM     13  C   UNL     1      -0.666  13.371  22.666  0.00  0.00    +0.000 C 
ATOM     14  C   UNL     1      -1.854  14.287  22.279  0.00  0.00    +0.000 C 
ATOM     15  N   UNL     1      -3.109  14.053  23.043  0.00  0.00    +0.000 NA
ATOM     16  C   UNL     1      -3.459  12.611  22.897  0.00  0.00    +0.000 C 
ATOM     17  C   UNL     1      -2.332  11.634  23.310  0.00  0.00    +0.000 C 
BRANCH  15  18
ATOM     18  C   UNL     1      -2.946  14.375  24.477  0.00  0.00    +0.000 C 
BRANCH  18  19
ATOM     19  C   UNL     1      -3.536  15.738  24.905  0.00  0.00    +0.000 C 
BRANCH  19  20
ATOM     20  N   UNL     1      -2.526  16.791  25.173  0.00  0.00    +0.000 NA
BRANCH  20  21
ATOM     21  C   UNL     1      -1.157  16.271  25.336  0.00  0.00    +0.000 C 
ATOM     22  C   UNL     1      -0.613  16.201  26.762  0.00  0.00    +0.000 C 
ENDBRANCH  20  21
BRANCH  20  23
ATOM     23  C   UNL     1      -2.651  17.831  24.138  0.00  0.00    +0.000 C 
ATOM     24  C   UNL     1      -1.478  17.902  23.169  0.00  0.00    +0.000 C 
ENDBRANCH  20  23
ENDBRANCH  19  20
ENDBRANCH  18  19
ENDBRANCH  15  18
ENDBRANCH   7  12
BRANCH   1  25
ATOM     25  N   UNL     1       2.219   6.915  20.320  0.00  0.00    +0.000 N 
ATOM     26  H   UNL     1       2.904   7.074  21.047  0.00  0.00    +0.000 HD
BRANCH  25  31
ATOM     27  C   UNL     1       3.388   4.245  18.004  0.00  0.00    +0.000 A 
ATOM     28  C   UNL     1       2.508   3.214  18.325  0.00  0.00    +0.000 A 
ATOM     29  C   UNL     1       1.540   3.410  19.311  0.00  0.00    +0.000 A 
ATOM     30  C   UNL     1       1.450   4.636  19.971  0.00  0.00    +0.000 A 
ATOM     31  C   UNL     1       2.341   5.674  19.672  0.00  0.00    +0.000 A 
ATOM     32  C   UNL     1       3.308   5.462  18.681  0.00  0.00    +0.000 A 
BRANCH  27  34
ATOM     33  C   UNL     1       5.128   3.939  16.060  0.00  0.00    +0.000 C 
ATOM     34  C   UNL     1       4.358   4.088  16.962  0.00  0.00    +0.000 C 
ENDBRANCH  27  34
ENDBRANCH  25  31
ENDBRANCH   1  25
TORSDOF 9
ENDMDL
