MODEL 1
REMARK VINA RESULT:      -7.9      0.000      0.000
REMARK  Name = 
REMARK  7 active torsions:
REMARK  status: ('A' for Active; 'I' for Inactive)
REMARK    1  A    between atoms: C_1  and  O_2
REMARK    2  A    between atoms: O_2  and  C_3
REMARK    3  A    between atoms: C_3  and  C_5
REMARK    4  A    between atoms: C_6  and  C_7
REMARK    5  A    between atoms: C_9  and  C_10
REMARK    6  A    between atoms: C_11  and  C_12
REMARK    7  A    between atoms: C_14  and  C_15
REMARK                            x       y       z     vdW  Elec       q    Type
REMARK                         _______ _______ _______ _____ _____    ______ ____
ROOT
ATOM      1  C   UNL     1       6.605   5.818  16.699  0.00  0.00    +0.000 C 
ATOM      2  C   UNL     1       5.261   5.678  16.706  0.00  0.00    +0.000 C 
ATOM      3  C   UNL     1       4.940   4.467  15.841  0.00  0.00    +0.000 C 
ATOM      4  C   UNL     1       5.289   4.761  14.362  0.00  0.00    +0.000 C 
ATOM      5  C   UNL     1       6.830   4.904  14.386  0.00  0.00    +0.000 C 
ATOM      6  C   UNL     1       7.165   4.674  15.868  0.00  0.00    +0.000 C 
ATOM      7  C   UNL     1       6.136   3.595  16.233  0.00  0.00    +0.000 C 
ENDROOT
BRANCH   2   8
ATOM      8  C   UNL     1       4.372   6.130  17.782  0.00  0.00    +0.000 A 
ATOM      9  C   UNL     1       3.640   7.299  17.495  0.00  0.00    +0.000 A 
ATOM     10  C   UNL     1       2.636   7.795  18.333  0.00  0.00    +0.000 A 
ATOM     11  C   UNL     1       1.866   9.004  17.889  0.00  0.00    +0.000 C 
ATOM     12  C   UNL     1       2.370   7.113  19.528  0.00  0.00    +0.000 A 
ATOM     13  C   UNL     1       1.302   7.555  20.490  0.00  0.00    +0.000 C 
ATOM     14  C   UNL     1       3.120   5.960  19.841  0.00  0.00    +0.000 A 
ATOM     15  C   UNL     1       4.117   5.456  18.981  0.00  0.00    +0.000 A 
ATOM     16  C   UNL     1       4.835   4.193  19.370  0.00  0.00    +0.000 C 
ENDBRANCH   2   8
BRANCH   1  17
ATOM     17  C   UNL     1       7.428   6.670  17.583  0.00  0.00    +0.000 C 
ATOM     18  O   UNL     1       7.951   6.320  18.626  0.00  0.00    +0.000 OA
BRANCH  17  20
ATOM     19  C   UNL     1       8.131   8.865  17.922  0.00  0.00    +0.000 C 
ATOM     20  O   UNL     1       7.518   7.915  17.049  0.00  0.00    +0.000 OA
ENDBRANCH  17  20
ENDBRANCH   1  17
TORSDOF 3
ENDMDL
MODEL 2
REMARK VINA RESULT:      -7.3      0.692      1.093
REMARK  Name = 
REMARK  7 active torsions:
REMARK  status: ('A' for Active; 'I' for Inactive)
REMARK    1  A    between atoms: C_1  and  O_2
REMARK    2  A    between atoms: O_2  and  C_3
REMARK    3  A    between atoms: C_3  and  C_5
REMARK    4  A    between atoms: C_6  and  C_7
REMARK    5  A    between atoms: C_9  and  C_10
REMARK    6  A    between atoms: C_11  and  C_12
REMARK    7  A    between atoms: C_14  and  C_15
REMARK                            x       y       z     vdW  Elec       q    Type
REMARK                         _______ _______ _______ _____ _____    ______ ____
ROOT
ATOM      1  C   UNL     1       6.535   5.565  16.465  0.00  0.00    +0.000 C 
ATOM      2  C   UNL     1       5.186   5.506  16.511  0.00  0.00    +0.000 C 
ATOM      3  C   UNL     1       4.767   4.341  15.624  0.00  0.00    +0.000 C 
ATOM      4  C   UNL     1       5.088   4.656  14.144  0.00  0.00    +0.000 C 
ATOM      5  C   UNL     1       6.635   4.706  14.123  0.00  0.00    +0.000 C 
ATOM      6  C   UNL     1       7.000   4.415  15.586  0.00  0.00    +0.000 C 
ATOM      7  C   UNL     1       5.919   3.388  15.954  0.00  0.00    +0.000 C 
ENDROOT
BRANCH   2   8
ATOM      8  C   UNL     1       4.359   5.979  17.626  0.00  0.00    +0.000 A 
ATOM      9  C   UNL     1       3.683   7.193  17.390  0.00  0.00    +0.000 A 
ATOM     10  C   UNL     1       2.736   7.721  18.273  0.00  0.00    +0.000 A 
ATOM     11  C   UNL     1       2.020   8.981  17.882  0.00  0.00    +0.000 C 
ATOM     12  C   UNL     1       2.471   7.026  19.460  0.00  0.00    +0.000 A 
ATOM     13  C   UNL     1       1.460   7.501  20.467  0.00  0.00    +0.000 C 
ATOM     14  C   UNL     1       3.166   5.827  19.721  0.00  0.00    +0.000 A 
ATOM     15  C   UNL     1       4.105   5.290  18.817  0.00  0.00    +0.000 A 
ATOM     16  C   UNL     1       4.765   3.981  19.153  0.00  0.00    +0.000 C 
ENDBRANCH   2   8
BRANCH   1  17
ATOM     17  C   UNL     1       7.434   6.341  17.345  0.00  0.00    +0.000 C 
ATOM     18  O   UNL     1       7.651   7.537  17.267  0.00  0.00    +0.000 OA
BRANCH  17  20
ATOM     19  C   UNL     1       7.773   5.933  19.614  0.00  0.00    +0.000 C 
ATOM     20  O   UNL     1       7.987   5.510  18.266  0.00  0.00    +0.000 OA
ENDBRANCH  17  20
ENDBRANCH   1  17
TORSDOF 3
ENDMDL
MODEL 3
REMARK VINA RESULT:      -7.2      2.828      5.948
REMARK  Name = 
REMARK  7 active torsions:
REMARK  status: ('A' for Active; 'I' for Inactive)
REMARK    1  A    between atoms: C_1  and  O_2
REMARK    2  A    between atoms: O_2  and  C_3
REMARK    3  A    between atoms: C_3  and  C_5
REMARK    4  A    between atoms: C_6  and  C_7
REMARK    5  A    between atoms: C_9  and  C_10
REMARK    6  A    between atoms: C_11  and  C_12
REMARK    7  A    between atoms: C_14  and  C_15
REMARK                            x       y       z     vdW  Elec       q    Type
REMARK                         _______ _______ _______ _____ _____    ______ ____
ROOT
ATOM      1  C   UNL     1       2.270   4.765  20.142  0.00  0.00    +0.000 C 
ATOM      2  C   UNL     1       3.245   3.959  19.667  0.00  0.00    +0.000 C 
ATOM      3  C   UNL     1       2.814   2.529  19.961  0.00  0.00    +0.000 C 
ATOM      4  C   UNL     1       2.813   2.274  21.487  0.00  0.00    +0.000 C 
ATOM      5  C   UNL     1       1.683   3.200  21.997  0.00  0.00    +0.000 C 
ATOM      6  C   UNL     1       1.183   3.862  20.704  0.00  0.00    +0.000 C 
ATOM      7  C   UNL     1       1.312   2.697  19.713  0.00  0.00    +0.000 C 
ENDROOT
BRANCH   2   8
ATOM      8  C   UNL     1       4.154   4.294  18.566  0.00  0.00    +0.000 A 
ATOM      9  C   UNL     1       5.405   4.807  18.963  0.00  0.00    +0.000 A 
ATOM     10  C   UNL     1       6.452   5.040  18.066  0.00  0.00    +0.000 A 
ATOM     11  C   UNL     1       7.768   5.513  18.612  0.00  0.00    +0.000 C 
ATOM     12  C   UNL     1       6.235   4.781  16.707  0.00  0.00    +0.000 A 
ATOM     13  C   UNL     1       7.300   4.984  15.665  0.00  0.00    +0.000 C 
ATOM     14  C   UNL     1       4.975   4.298  16.294  0.00  0.00    +0.000 A 
ATOM     15  C   UNL     1       3.931   4.047  17.207  0.00  0.00    +0.000 A 
ATOM     16  C   UNL     1       2.636   3.486  16.686  0.00  0.00    +0.000 C 
ENDBRANCH   2   8
BRANCH   1  17
ATOM     17  C   UNL     1       2.084   6.207  19.878  0.00  0.00    +0.000 C 
ATOM     18  O   UNL     1       2.428   6.799  18.870  0.00  0.00    +0.000 OA
BRANCH  17  20
ATOM     19  C   UNL     1       1.399   8.206  20.861  0.00  0.00    +0.000 C 
ATOM     20  O   UNL     1       1.461   6.781  20.941  0.00  0.00    +0.000 OA
ENDBRANCH  17  20
ENDBRANCH   1  17
TORSDOF 3
ENDMDL
MODEL 4
REMARK VINA RESULT:      -7.2      1.583      2.635
REMARK  Name = 
REMARK  7 active torsions:
REMARK  status: ('A' for Active; 'I' for Inactive)
REMARK    1  A    between atoms: C_1  and  O_2
REMARK    2  A    between atoms: O_2  and  C_3
REMARK    3  A    between atoms: C_3  and  C_5
REMARK    4  A    between atoms: C_6  and  C_7
REMARK    5  A    between atoms: C_9  and  C_10
REMARK    6  A    between atoms: C_11  and  C_12
REMARK    7  A    between atoms: C_14  and  C_15
REMARK                            x       y       z     vdW  Elec       q    Type
REMARK                         _______ _______ _______ _____ _____    ______ ____
ROOT
ATOM      1  C   UNL     1       6.346   5.102  16.973  0.00  0.00    +0.000 C 
ATOM      2  C   UNL     1       5.059   4.999  16.578  0.00  0.00    +0.000 C 
ATOM      3  C   UNL     1       5.069   4.314  15.219  0.00  0.00    +0.000 C 
ATOM      4  C   UNL     1       5.724   5.235  14.162  0.00  0.00    +0.000 C 
ATOM      5  C   UNL     1       7.195   5.322  14.636  0.00  0.00    +0.000 C 
ATOM      6  C   UNL     1       7.194   4.444  15.896  0.00  0.00    +0.000 C 
ATOM      7  C   UNL     1       6.219   3.335  15.475  0.00  0.00    +0.000 C 
ENDROOT
BRANCH   2   8
ATOM      8  C   UNL     1       3.903   4.936  17.479  0.00  0.00    +0.000 A 
ATOM      9  C   UNL     1       3.520   3.636  17.865  0.00  0.00    +0.000 A 
ATOM     10  C   UNL     1       2.542   3.384  18.831  0.00  0.00    +0.000 A 
ATOM     11  C   UNL     1       2.271   1.960  19.221  0.00  0.00    +0.000 C 
ATOM     12  C   UNL     1       1.891   4.477  19.419  0.00  0.00    +0.000 A 
ATOM     13  C   UNL     1       0.836   4.314  20.479  0.00  0.00    +0.000 C 
ATOM     14  C   UNL     1       2.243   5.782  19.016  0.00  0.00    +0.000 A 
ATOM     15  C   UNL     1       3.244   6.027  18.056  0.00  0.00    +0.000 A 
ATOM     16  C   UNL     1       3.590   7.453  17.721  0.00  0.00    +0.000 C 
ENDBRANCH   2   8
BRANCH   1  17
ATOM     17  C   UNL     1       6.852   5.449  18.318  0.00  0.00    +0.000 C 
ATOM     18  O   UNL     1       6.455   4.985  19.372  0.00  0.00    +0.000 OA
BRANCH  17  20
ATOM     19  C   UNL     1       7.406   7.601  17.617  0.00  0.00    +0.000 C 
ATOM     20  O   UNL     1       7.842   6.372  18.200  0.00  0.00    +0.000 OA
ENDBRANCH  17  20
ENDBRANCH   1  17
TORSDOF 3
ENDMDL
MODEL 5
REMARK VINA RESULT:      -7.2      2.104      5.461
REMARK  Name = 
REMARK  7 active torsions:
REMARK  status: ('A' for Active; 'I' for Inactive)
REMARK    1  A    between atoms: C_1  and  O_2
REMARK    2  A    between atoms: O_2  and  C_3
REMARK    3  A    between atoms: C_3  and  C_5
REMARK    4  A    between atoms: C_6  and  C_7
REMARK    5  A    between atoms: C_9  and  C_10
REMARK    6  A    between atoms: C_11  and  C_12
REMARK    7  A    between atoms: C_14  and  C_15
REMARK                            x       y       z     vdW  Elec       q    Type
REMARK                         _______ _______ _______ _____ _____    ______ ____
ROOT
ATOM      1  C   UNL     1       3.565   4.897  18.018  0.00  0.00    +0.000 C 
ATOM      2  C   UNL     1       4.452   3.974  17.587  0.00  0.00    +0.000 C 
ATOM      3  C   UNL     1       3.835   2.609  17.862  0.00  0.00    +0.000 C 
ATOM      4  C   UNL     1       3.736   2.366  19.386  0.00  0.00    +0.000 C 
ATOM      5  C   UNL     1       2.708   3.428  19.845  0.00  0.00    +0.000 C 
ATOM      6  C   UNL     1       2.351   4.140  18.532  0.00  0.00    +0.000 C 
ATOM      7  C   UNL     1       2.378   2.961  17.548  0.00  0.00    +0.000 C 
ENDROOT
BRANCH   2   8
ATOM      8  C   UNL     1       5.443   4.186  16.527  0.00  0.00    +0.000 A 
ATOM      9  C   UNL     1       4.995   3.885  15.225  0.00  0.00    +0.000 A 
ATOM     10  C   UNL     1       5.743   4.165  14.078  0.00  0.00    +0.000 A 
ATOM     11  C   UNL     1       5.132   3.873  12.738  0.00  0.00    +0.000 C 
ATOM     12  C   UNL     1       7.009   4.744  14.233  0.00  0.00    +0.000 A 
ATOM     13  C   UNL     1       7.885   5.099  13.063  0.00  0.00    +0.000 C 
ATOM     14  C   UNL     1       7.481   5.020  15.534  0.00  0.00    +0.000 A 
ATOM     15  C   UNL     1       6.713   4.753  16.684  0.00  0.00    +0.000 A 
ATOM     16  C   UNL     1       7.275   5.123  18.030  0.00  0.00    +0.000 C 
ENDBRANCH   2   8
BRANCH   1  17
ATOM     17  C   UNL     1       3.571   6.350  17.745  0.00  0.00    +0.000 C 
ATOM     18  O   UNL     1       4.353   6.936  17.018  0.00  0.00    +0.000 OA
BRANCH  17  20
ATOM     19  C   UNL     1       2.241   8.250  17.964  0.00  0.00    +0.000 C 
ATOM     20  O   UNL     1       2.560   6.939  18.434  0.00  0.00    +0.000 OA
ENDBRANCH  17  20
ENDBRANCH   1  17
TORSDOF 3
ENDMDL
MODEL 6
REMARK VINA RESULT:      -7.0      2.777      5.799
REMARK  Name = 
REMARK  7 active torsions:
REMARK  status: ('A' for Active; 'I' for Inactive)
REMARK    1  A    between atoms: C_1  and  O_2
REMARK    2  A    between atoms: O_2  and  C_3
REMARK    3  A    between atoms: C_3  and  C_5
REMARK    4  A    between atoms: C_6  and  C_7
REMARK    5  A    between atoms: C_9  and  C_10
REMARK    6  A    between atoms: C_11  and  C_12
REMARK    7  A    between atoms: C_14  and  C_15
REMARK                            x       y       z     vdW  Elec       q    Type
REMARK                         _______ _______ _______ _____ _____    ______ ____
ROOT
ATOM      1  C   UNL     1       2.262   4.782  20.072  0.00  0.00    +0.000 C 
ATOM      2  C   UNL     1       3.249   3.965  19.644  0.00  0.00    +0.000 C 
ATOM      3  C   UNL     1       2.805   2.541  19.950  0.00  0.00    +0.000 C 
ATOM      4  C   UNL     1       2.753   2.315  21.479  0.00  0.00    +0.000 C 
ATOM      5  C   UNL     1       1.610   3.253  21.935  0.00  0.00    +0.000 C 
ATOM      6  C   UNL     1       1.155   3.893  20.615  0.00  0.00    +0.000 C 
ATOM      7  C   UNL     1       1.312   2.709  19.650  0.00  0.00    +0.000 C 
ENDROOT
BRANCH   2   8
ATOM      8  C   UNL     1       4.195   4.277  18.567  0.00  0.00    +0.000 A 
ATOM      9  C   UNL     1       5.411   4.850  18.991  0.00  0.00    +0.000 A 
ATOM     10  C   UNL     1       6.488   5.075  18.129  0.00  0.00    +0.000 A 
ATOM     11  C   UNL     1       7.763   5.618  18.706  0.00  0.00    +0.000 C 
ATOM     12  C   UNL     1       6.339   4.744  16.776  0.00  0.00    +0.000 A 
ATOM     13  C   UNL     1       7.442   4.933  15.771  0.00  0.00    +0.000 C 
ATOM     14  C   UNL     1       5.114   4.201  16.335  0.00  0.00    +0.000 A 
ATOM     15  C   UNL     1       4.040   3.958  17.213  0.00  0.00    +0.000 A 
ATOM     16  C   UNL     1       2.787   3.331  16.666  0.00  0.00    +0.000 C 
ENDBRANCH   2   8
BRANCH   1  17
ATOM     17  C   UNL     1       2.089   6.220  19.776  0.00  0.00    +0.000 C 
ATOM     18  O   UNL     1       1.935   7.105  20.599  0.00  0.00    +0.000 OA
BRANCH  17  20
ATOM     19  C   UNL     1       2.741   7.644  18.050  0.00  0.00    +0.000 C 
ATOM     20  O   UNL     1       2.131   6.410  18.431  0.00  0.00    +0.000 OA
ENDBRANCH  17  20
ENDBRANCH   1  17
TORSDOF 3
ENDMDL
MODEL 7
REMARK VINA RESULT:      -7.0      2.727      3.884
REMARK  Name = 
REMARK  7 active torsions:
REMARK  status: ('A' for Active; 'I' for Inactive)
REMARK    1  A    between atoms: C_1  and  O_2
REMARK    2  A    between atoms: O_2  and  C_3
REMARK    3  A    between atoms: C_3  and  C_5
REMARK    4  A    between atoms: C_6  and  C_7
REMARK    5  A    between atoms: C_9  and  C_10
REMARK    6  A    between atoms: C_11  and  C_12
REMARK    7  A    between atoms: C_14  and  C_15
REMARK                            x       y       z     vdW  Elec       q    Type
REMARK                         _______ _______ _______ _____ _____    ______ ____
ROOT
ATOM      1  C   UNL     1       3.549   4.514  17.347  0.00  0.00    +0.000 C 
ATOM      2  C   UNL     1       3.977   5.527  18.131  0.00  0.00    +0.000 C 
ATOM      3  C   UNL     1       5.313   5.987  17.563  0.00  0.00    +0.000 C 
ATOM      4  C   UNL     1       6.379   4.881  17.745  0.00  0.00    +0.000 C 
ATOM      5  C   UNL     1       5.867   3.744  16.830  0.00  0.00    +0.000 C 
ATOM      6  C   UNL     1       4.579   4.341  16.243  0.00  0.00    +0.000 C 
ATOM      7  C   UNL     1       4.991   5.810  16.076  0.00  0.00    +0.000 C 
ENDROOT
BRANCH   2   8
ATOM      8  C   UNL     1       3.109   6.416  18.910  0.00  0.00    +0.000 A 
ATOM      9  C   UNL     1       2.844   7.663  18.311  0.00  0.00    +0.000 A 
ATOM     10  C   UNL     1       1.923   8.578  18.830  0.00  0.00    +0.000 A 
ATOM     11  C   UNL     1       1.663   9.842  18.064  0.00  0.00    +0.000 C 
ATOM     12  C   UNL     1       1.256   8.250  20.018  0.00  0.00    +0.000 A 
ATOM     13  C   UNL     1       0.236   9.157  20.649  0.00  0.00    +0.000 C 
ATOM     14  C   UNL     1       1.538   7.018  20.644  0.00  0.00    +0.000 A 
ATOM     15  C   UNL     1       2.454   6.093  20.104  0.00  0.00    +0.000 A 
ATOM     16  C   UNL     1       2.658   4.781  20.812  0.00  0.00    +0.000 C 
ENDBRANCH   2   8
BRANCH   1  17
ATOM     17  C   UNL     1       2.202   3.905  17.316  0.00  0.00    +0.000 C 
ATOM     18  O   UNL     1       1.145   4.510  17.344  0.00  0.00    +0.000 OA
BRANCH  17  20
ATOM     19  C   UNL     1       2.822   1.966  18.448  0.00  0.00    +0.000 C 
ATOM     20  O   UNL     1       2.321   2.554  17.246  0.00  0.00    +0.000 OA
ENDBRANCH  17  20
ENDBRANCH   1  17
TORSDOF 3
ENDMDL
MODEL 8
REMARK VINA RESULT:      -6.9      2.291      5.439
REMARK  Name = 
REMARK  7 active torsions:
REMARK  status: ('A' for Active; 'I' for Inactive)
REMARK    1  A    between atoms: C_1  and  O_2
REMARK    2  A    between atoms: O_2  and  C_3
REMARK    3  A    between atoms: C_3  and  C_5
REMARK    4  A    between atoms: C_6  and  C_7
REMARK    5  A    between atoms: C_9  and  C_10
REMARK    6  A    between atoms: C_11  and  C_12
REMARK    7  A    between atoms: C_14  and  C_15
REMARK                            x       y       z     vdW  Elec       q    Type
REMARK                         _______ _______ _______ _____ _____    ______ ____
ROOT
ATOM      1  C   UNL     1       2.930   5.135  18.692  0.00  0.00    +0.000 C 
ATOM      2  C   UNL     1       3.850   4.194  18.387  0.00  0.00    +0.000 C 
ATOM      3  C   UNL     1       3.178   2.842  18.588  0.00  0.00    +0.000 C 
ATOM      4  C   UNL     1       2.876   2.614  20.088  0.00  0.00    +0.000 C 
ATOM      5  C   UNL     1       1.816   3.696  20.401  0.00  0.00    +0.000 C 
ATOM      6  C   UNL     1       1.646   4.402  19.048  0.00  0.00    +0.000 C 
ATOM      7  C   UNL     1       1.781   3.215  18.084  0.00  0.00    +0.000 C 
ENDROOT
BRANCH   2   8
ATOM      8  C   UNL     1       4.974   4.381  17.464  0.00  0.00    +0.000 A 
ATOM      9  C   UNL     1       4.709   4.030  16.125  0.00  0.00    +0.000 A 
ATOM     10  C   UNL     1       5.604   4.279  15.081  0.00  0.00    +0.000 A 
ATOM     11  C   UNL     1       5.183   3.935  13.682  0.00  0.00    +0.000 C 
ATOM     12  C   UNL     1       6.834   4.877  15.386  0.00  0.00    +0.000 A 
ATOM     13  C   UNL     1       7.858   5.201  14.334  0.00  0.00    +0.000 C 
ATOM     14  C   UNL     1       7.123   5.202  16.728  0.00  0.00    +0.000 A 
ATOM     15  C   UNL     1       6.207   4.966  17.772  0.00  0.00    +0.000 A 
ATOM     16  C   UNL     1       6.578   5.389  19.168  0.00  0.00    +0.000 C 
ENDBRANCH   2   8
BRANCH   1  17
ATOM     17  C   UNL     1       2.997   6.585  18.413  0.00  0.00    +0.000 C 
ATOM     18  O   UNL     1       3.520   7.102  17.442  0.00  0.00    +0.000 OA
BRANCH  17  20
ATOM     19  C   UNL     1       1.825   8.513  18.996  0.00  0.00    +0.000 C 
ATOM     20  O   UNL     1       2.376   7.263  19.414  0.00  0.00    +0.000 OA
ENDBRANCH  17  20
ENDBRANCH   1  17
TORSDOF 3
ENDMDL
MODEL 9
REMARK VINA RESULT:      -6.7      3.032      5.563
REMARK  Name = 
REMARK  7 active torsions:
REMARK  status: ('A' for Active; 'I' for Inactive)
REMARK    1  A    between atoms: C_1  and  O_2
REMARK    2  A    between atoms: O_2  and  C_3
REMARK    3  A    between atoms: C_3  and  C_5
REMARK    4  A    between atoms: C_6  and  C_7
REMARK    5  A    between atoms: C_9  and  C_10
REMARK    6  A    between atoms: C_11  and  C_12
REMARK    7  A    between atoms: C_14  and  C_15
REMARK                            x       y       z     vdW  Elec       q    Type
REMARK                         _______ _______ _______ _____ _____    ______ ____
ROOT
ATOM      1  C   UNL     1       2.201   4.292  19.390  0.00  0.00    +0.000 C 
ATOM      2  C   UNL     1       3.165   4.252  18.445  0.00  0.00    +0.000 C 
ATOM      3  C   UNL     1       2.591   3.484  17.263  0.00  0.00    +0.000 C 
ATOM      4  C   UNL     1       2.368   2.002  17.648  0.00  0.00    +0.000 C 
ATOM      5  C   UNL     1       1.254   2.082  18.719  0.00  0.00    +0.000 C 
ATOM      6  C   UNL     1       0.983   3.591  18.811  0.00  0.00    +0.000 C 
ATOM      7  C   UNL     1       1.153   4.004  17.341  0.00  0.00    +0.000 C 
ENDROOT
BRANCH   2   8
ATOM      8  C   UNL     1       4.236   5.243  18.290  0.00  0.00    +0.000 A 
ATOM      9  C   UNL     1       5.538   4.750  18.505  0.00  0.00    +0.000 A 
ATOM     10  C   UNL     1       6.689   5.504  18.257  0.00  0.00    +0.000 A 
ATOM     11  C   UNL     1       8.027   4.849  18.446  0.00  0.00    +0.000 C 
ATOM     12  C   UNL     1       6.537   6.821  17.805  0.00  0.00    +0.000 A 
ATOM     13  C   UNL     1       7.711   7.709  17.495  0.00  0.00    +0.000 C 
ATOM     14  C   UNL     1       5.238   7.336  17.618  0.00  0.00    +0.000 A 
ATOM     15  C   UNL     1       4.083   6.563  17.851  0.00  0.00    +0.000 A 
ATOM     16  C   UNL     1       2.736   7.177  17.580  0.00  0.00    +0.000 C 
ENDBRANCH   2   8
BRANCH   1  17
ATOM     17  C   UNL     1       2.163   5.133  20.606  0.00  0.00    +0.000 C 
ATOM     18  O   UNL     1       1.690   6.253  20.684  0.00  0.00    +0.000 OA
BRANCH  17  20
ATOM     19  C   UNL     1       2.106   3.211  21.922  0.00  0.00    +0.000 C 
ATOM     20  O   UNL     1       2.739   4.459  21.635  0.00  0.00    +0.000 OA
ENDBRANCH  17  20
ENDBRANCH   1  17
TORSDOF 3
ENDMDL
