MODEL 1
REMARK VINA RESULT:      -8.8      0.000      0.000
REMARK  Name = 
REMARK  4 active torsions:
REMARK  status: ('A' for Active; 'I' for Inactive)
REMARK    1  A    between atoms: C_1  and  C_2
REMARK    2  A    between atoms: C_6  and  N_7
REMARK    3  A    between atoms: C_8  and  C_10
REMARK    4  A    between atoms: C_10  and  C_12
REMARK                            x       y       z     vdW  Elec       q    Type
REMARK                         _______ _______ _______ _____ _____    ______ ____
ROOT
ATOM      1  C   UNL     1       6.169   4.937  18.324  0.00  0.00    +0.000 C 
ATOM      2  O   UNL     1       6.892   5.088  19.306  0.00  0.00    +0.000 OA
ENDROOT
BRANCH   1   3
ATOM      3  C   UNL     1       4.711   5.023  18.367  0.00  0.00    +0.000 A 
ATOM      4  C   UNL     1       3.982   6.201  18.323  0.00  0.00    +0.000 A 
ATOM      5  N   UNL     1       2.651   5.892  18.329  0.00  0.00    +0.000 N 
ATOM      6  C   UNL     1       2.482   4.532  18.416  0.00  0.00    +0.000 A 
ATOM      7  C   UNL     1       1.304   3.778  18.453  0.00  0.00    +0.000 A 
ATOM      8  C   UNL     1       1.426   2.389  18.544  0.00  0.00    +0.000 A 
ATOM      9  C   UNL     1       2.678   1.783  18.591  0.00  0.00    +0.000 A 
ATOM     10  C   UNL     1       3.848   2.552  18.542  0.00  0.00    +0.000 A 
ATOM     11  C   UNL     1       3.755   3.957  18.454  0.00  0.00    +0.000 A 
ATOM     12  H   UNL     1       1.896   6.562  18.268  0.00  0.00    +0.000 HD
ENDBRANCH   1   3
BRANCH   1  14
ATOM     13  N   UNL     1       6.059   4.896  15.875  0.00  0.00    +0.000 N 
ATOM     14  C   UNL     1       6.854   4.669  16.987  0.00  0.00    +0.000 C 
ATOM     15  O   UNL     1       7.997   4.221  17.016  0.00  0.00    +0.000 OA
ATOM     16  H   UNL     1       5.102   5.185  16.042  0.00  0.00    +0.000 HD
BRANCH  13  22
ATOM     17  C   UNL     1       5.446   2.416  11.641  0.00  0.00    +0.000 C 
ATOM     18  C   UNL     1       6.161   3.468  12.438  0.00  0.00    +0.000 A 
ATOM     19  C   UNL     1       7.221   4.188  11.875  0.00  0.00    +0.000 A 
ATOM     20  C   UNL     1       7.887   5.149  12.628  0.00  0.00    +0.000 A 
ATOM     21  C   UNL     1       7.510   5.393  13.944  0.00  0.00    +0.000 A 
ATOM     22  C   UNL     1       6.459   4.684  14.536  0.00  0.00    +0.000 A 
ATOM     23  C   UNL     1       5.780   3.729  13.768  0.00  0.00    +0.000 A 
ENDBRANCH  13  22
ENDBRANCH   1  14
TORSDOF 3
ENDMDL
MODEL 2
REMARK VINA RESULT:      -8.3      1.277      1.814
REMARK  Name = 
REMARK  4 active torsions:
REMARK  status: ('A' for Active; 'I' for Inactive)
REMARK    1  A    between atoms: C_1  and  C_2
REMARK    2  A    between atoms: C_6  and  N_7
REMARK    3  A    between atoms: C_8  and  C_10
REMARK    4  A    between atoms: C_10  and  C_12
REMARK                            x       y       z     vdW  Elec       q    Type
REMARK                         _______ _______ _______ _____ _____    ______ ____
ROOT
ATOM      1  C   UNL     1       5.895   4.477  18.330  0.00  0.00    +0.000 C 
ATOM      2  O   UNL     1       6.403   5.112  19.250  0.00  0.00    +0.000 OA
ENDROOT
BRANCH   1   3
ATOM      3  C   UNL     1       4.612   3.783  18.433  0.00  0.00    +0.000 A 
ATOM      4  C   UNL     1       4.304   2.585  17.807  0.00  0.00    +0.000 A 
ATOM      5  N   UNL     1       3.041   2.213  18.175  0.00  0.00    +0.000 N 
ATOM      6  C   UNL     1       2.491   3.161  19.002  0.00  0.00    +0.000 A 
ATOM      7  C   UNL     1       1.232   3.194  19.611  0.00  0.00    +0.000 A 
ATOM      8  C   UNL     1       0.930   4.294  20.416  0.00  0.00    +0.000 A 
ATOM      9  C   UNL     1       1.854   5.317  20.605  0.00  0.00    +0.000 A 
ATOM     10  C   UNL     1       3.115   5.264  19.997  0.00  0.00    +0.000 A 
ATOM     11  C   UNL     1       3.446   4.165  19.175  0.00  0.00    +0.000 A 
ATOM     12  H   UNL     1       2.578   1.360  17.891  0.00  0.00    +0.000 HD
ENDBRANCH   1   3
BRANCH   1  14
ATOM     13  N   UNL     1       5.841   4.477  15.878  0.00  0.00    +0.000 N 
ATOM     14  C   UNL     1       6.649   4.442  17.004  0.00  0.00    +0.000 C 
ATOM     15  O   UNL     1       7.870   4.318  17.050  0.00  0.00    +0.000 OA
ATOM     16  H   UNL     1       4.839   4.493  16.029  0.00  0.00    +0.000 HD
BRANCH  13  22
ATOM     17  C   UNL     1       5.569   2.372  11.412  0.00  0.00    +0.000 C 
ATOM     18  C   UNL     1       6.176   3.390  12.334  0.00  0.00    +0.000 A 
ATOM     19  C   UNL     1       7.204   4.229  11.887  0.00  0.00    +0.000 A 
ATOM     20  C   UNL     1       7.770   5.157  12.753  0.00  0.00    +0.000 A 
ATOM     21  C   UNL     1       7.326   5.250  14.068  0.00  0.00    +0.000 A 
ATOM     22  C   UNL     1       6.306   4.419  14.545  0.00  0.00    +0.000 A 
ATOM     23  C   UNL     1       5.726   3.498  13.663  0.00  0.00    +0.000 A 
ENDBRANCH  13  22
ENDBRANCH   1  14
TORSDOF 3
ENDMDL
MODEL 3
REMARK VINA RESULT:      -8.2      1.170      1.175
REMARK  Name = 
REMARK  4 active torsions:
REMARK  status: ('A' for Active; 'I' for Inactive)
REMARK    1  A    between atoms: C_1  and  C_2
REMARK    2  A    between atoms: C_6  and  N_7
REMARK    3  A    between atoms: C_8  and  C_10
REMARK    4  A    between atoms: C_10  and  C_12
REMARK                            x       y       z     vdW  Elec       q    Type
REMARK                         _______ _______ _______ _____ _____    ______ ____
ROOT
ATOM      1  C   UNL     1       5.379   5.524  18.065  0.00  0.00    +0.000 C 
ATOM      2  O   UNL     1       6.407   5.667  18.722  0.00  0.00    +0.000 OA
ENDROOT
BRANCH   1   3
ATOM      3  C   UNL     1       4.061   5.295  18.656  0.00  0.00    +0.000 A 
ATOM      4  C   UNL     1       3.373   6.206  19.441  0.00  0.00    +0.000 A 
ATOM      5  N   UNL     1       2.159   5.671  19.768  0.00  0.00    +0.000 N 
ATOM      6  C   UNL     1       2.044   4.406  19.246  0.00  0.00    +0.000 A 
ATOM      7  C   UNL     1       0.984   3.496  19.331  0.00  0.00    +0.000 A 
ATOM      8  C   UNL     1       1.137   2.262  18.696  0.00  0.00    +0.000 A 
ATOM      9  C   UNL     1       2.303   1.954  18.002  0.00  0.00    +0.000 A 
ATOM     10  C   UNL     1       3.351   2.880  17.917  0.00  0.00    +0.000 A 
ATOM     11  C   UNL     1       3.226   4.134  18.552  0.00  0.00    +0.000 A 
ATOM     12  H   UNL     1       1.441   6.137  20.306  0.00  0.00    +0.000 HD
ENDBRANCH   1   3
BRANCH   1  14
ATOM     13  N   UNL     1       6.277   4.628  15.967  0.00  0.00    +0.000 N 
ATOM     14  C   UNL     1       5.501   5.618  16.547  0.00  0.00    +0.000 C 
ATOM     15  O   UNL     1       4.972   6.580  15.994  0.00  0.00    +0.000 OA
ATOM     16  H   UNL     1       6.712   3.957  16.590  0.00  0.00    +0.000 HD
BRANCH  13  22
ATOM     17  C   UNL     1       5.332   2.479  11.615  0.00  0.00    +0.000 C 
ATOM     18  C   UNL     1       6.103   3.475  12.431  0.00  0.00    +0.000 A 
ATOM     19  C   UNL     1       7.107   4.252  11.842  0.00  0.00    +0.000 A 
ATOM     20  C   UNL     1       7.826   5.160  12.610  0.00  0.00    +0.000 A 
ATOM     21  C   UNL     1       7.558   5.295  13.969  0.00  0.00    +0.000 A 
ATOM     22  C   UNL     1       6.565   4.527  14.587  0.00  0.00    +0.000 A 
ATOM     23  C   UNL     1       5.831   3.625  13.805  0.00  0.00    +0.000 A 
ENDBRANCH  13  22
ENDBRANCH   1  14
TORSDOF 3
ENDMDL
MODEL 4
REMARK VINA RESULT:      -8.1      1.881      2.250
REMARK  Name = 
REMARK  4 active torsions:
REMARK  status: ('A' for Active; 'I' for Inactive)
REMARK    1  A    between atoms: C_1  and  C_2
REMARK    2  A    between atoms: C_6  and  N_7
REMARK    3  A    between atoms: C_8  and  C_10
REMARK    4  A    between atoms: C_10  and  C_12
REMARK                            x       y       z     vdW  Elec       q    Type
REMARK                         _______ _______ _______ _____ _____    ______ ____
ROOT
ATOM      1  C   UNL     1       4.352   6.229  17.466  0.00  0.00    +0.000 C 
ATOM      2  O   UNL     1       3.844   7.293  17.811  0.00  0.00    +0.000 OA
ENDROOT
BRANCH   1   3
ATOM      3  C   UNL     1       4.382   5.033  18.306  0.00  0.00    +0.000 A 
ATOM      4  C   UNL     1       5.518   4.294  18.597  0.00  0.00    +0.000 A 
ATOM      5  N   UNL     1       5.175   3.284  19.451  0.00  0.00    +0.000 N 
ATOM      6  C   UNL     1       3.825   3.315  19.702  0.00  0.00    +0.000 A 
ATOM      7  C   UNL     1       3.046   2.478  20.509  0.00  0.00    +0.000 A 
ATOM      8  C   UNL     1       1.677   2.741  20.584  0.00  0.00    +0.000 A 
ATOM      9  C   UNL     1       1.113   3.803  19.882  0.00  0.00    +0.000 A 
ATOM     10  C   UNL     1       1.909   4.638  19.087  0.00  0.00    +0.000 A 
ATOM     11  C   UNL     1       3.295   4.393  18.989  0.00  0.00    +0.000 A 
ATOM     12  H   UNL     1       5.818   2.614  19.851  0.00  0.00    +0.000 HD
ENDBRANCH   1   3
BRANCH   1  14
ATOM     13  N   UNL     1       5.356   4.899  15.667  0.00  0.00    +0.000 N 
ATOM     14  C   UNL     1       4.958   6.165  16.067  0.00  0.00    +0.000 C 
ATOM     15  O   UNL     1       5.101   7.224  15.462  0.00  0.00    +0.000 OA
ATOM     16  H   UNL     1       5.240   4.145  16.335  0.00  0.00    +0.000 HD
BRANCH  13  22
ATOM     17  C   UNL     1       5.261   2.370  11.419  0.00  0.00    +0.000 C 
ATOM     18  C   UNL     1       5.935   3.355  12.329  0.00  0.00    +0.000 A 
ATOM     19  C   UNL     1       7.165   3.923  11.976  0.00  0.00    +0.000 A 
ATOM     20  C   UNL     1       7.788   4.822  12.834  0.00  0.00    +0.000 A 
ATOM     21  C   UNL     1       7.200   5.154  14.050  0.00  0.00    +0.000 A 
ATOM     22  C   UNL     1       5.975   4.596  14.433  0.00  0.00    +0.000 A 
ATOM     23  C   UNL     1       5.342   3.704  13.557  0.00  0.00    +0.000 A 
ENDBRANCH  13  22
ENDBRANCH   1  14
TORSDOF 3
ENDMDL
MODEL 5
REMARK VINA RESULT:      -7.8      0.590      1.574
REMARK  Name = 
REMARK  4 active torsions:
REMARK  status: ('A' for Active; 'I' for Inactive)
REMARK    1  A    between atoms: C_1  and  C_2
REMARK    2  A    between atoms: C_6  and  N_7
REMARK    3  A    between atoms: C_8  and  C_10
REMARK    4  A    between atoms: C_10  and  C_12
REMARK                            x       y       z     vdW  Elec       q    Type
REMARK                         _______ _______ _______ _____ _____    ______ ____
ROOT
ATOM      1  C   UNL     1       6.072   5.037  18.768  0.00  0.00    +0.000 C 
ATOM      2  O   UNL     1       6.821   5.265  19.715  0.00  0.00    +0.000 OA
ENDROOT
BRANCH   1   3
ATOM      3  C   UNL     1       4.613   5.046  18.865  0.00  0.00    +0.000 A 
ATOM      4  C   UNL     1       3.836   6.177  19.057  0.00  0.00    +0.000 A 
ATOM      5  N   UNL     1       2.520   5.812  19.041  0.00  0.00    +0.000 N 
ATOM      6  C   UNL     1       2.410   4.452  18.880  0.00  0.00    +0.000 A 
ATOM      7  C   UNL     1       1.265   3.649  18.809  0.00  0.00    +0.000 A 
ATOM      8  C   UNL     1       1.447   2.275  18.640  0.00  0.00    +0.000 A 
ATOM      9  C   UNL     1       2.723   1.729  18.542  0.00  0.00    +0.000 A 
ATOM     10  C   UNL     1       3.858   2.548  18.604  0.00  0.00    +0.000 A 
ATOM     11  C   UNL     1       3.705   3.940  18.778  0.00  0.00    +0.000 A 
ATOM     12  H   UNL     1       1.736   6.445  19.124  0.00  0.00    +0.000 HD
ENDBRANCH   1   3
BRANCH   1  14
ATOM     13  N   UNL     1       5.867   4.868  16.331  0.00  0.00    +0.000 N 
ATOM     14  C   UNL     1       6.721   4.755  17.416  0.00  0.00    +0.000 C 
ATOM     15  O   UNL     1       7.895   4.392  17.416  0.00  0.00    +0.000 OA
ATOM     16  H   UNL     1       4.899   5.095  16.525  0.00  0.00    +0.000 HD
BRANCH  13  22
ATOM     17  C   UNL     1       8.703   6.029  12.450  0.00  0.00    +0.000 C 
ATOM     18  C   UNL     1       7.627   5.183  13.065  0.00  0.00    +0.000 A 
ATOM     19  C   UNL     1       6.974   4.202  12.308  0.00  0.00    +0.000 A 
ATOM     20  C   UNL     1       5.968   3.434  12.883  0.00  0.00    +0.000 A 
ATOM     21  C   UNL     1       5.598   3.642  14.208  0.00  0.00    +0.000 A 
ATOM     22  C   UNL     1       6.228   4.620  14.987  0.00  0.00    +0.000 A 
ATOM     23  C   UNL     1       7.253   5.379  14.408  0.00  0.00    +0.000 A 
ENDBRANCH  13  22
ENDBRANCH   1  14
TORSDOF 3
ENDMDL
MODEL 6
REMARK VINA RESULT:      -7.8      3.064      6.917
REMARK  Name = 
REMARK  4 active torsions:
REMARK  status: ('A' for Active; 'I' for Inactive)
REMARK    1  A    between atoms: C_1  and  C_2
REMARK    2  A    between atoms: C_6  and  N_7
REMARK    3  A    between atoms: C_8  and  C_10
REMARK    4  A    between atoms: C_10  and  C_12
REMARK                            x       y       z     vdW  Elec       q    Type
REMARK                         _______ _______ _______ _____ _____    ______ ____
ROOT
ATOM      1  C   UNL     1       3.875   4.140  19.346  0.00  0.00    +0.000 C 
ATOM      2  O   UNL     1       3.646   3.071  19.907  0.00  0.00    +0.000 OA
ENDROOT
BRANCH   1   3
ATOM      3  C   UNL     1       5.148   4.465  18.704  0.00  0.00    +0.000 A 
ATOM      4  C   UNL     1       6.297   4.859  19.371  0.00  0.00    +0.000 A 
ATOM      5  N   UNL     1       7.299   5.023  18.456  0.00  0.00    +0.000 N 
ATOM      6  C   UNL     1       6.826   4.782  17.190  0.00  0.00    +0.000 A 
ATOM      7  C   UNL     1       7.494   4.833  15.961  0.00  0.00    +0.000 A 
ATOM      8  C   UNL     1       6.759   4.537  14.811  0.00  0.00    +0.000 A 
ATOM      9  C   UNL     1       5.411   4.199  14.891  0.00  0.00    +0.000 A 
ATOM     10  C   UNL     1       4.759   4.142  16.130  0.00  0.00    +0.000 A 
ATOM     11  C   UNL     1       5.476   4.441  17.308  0.00  0.00    +0.000 A 
ATOM     12  H   UNL     1       8.253   5.275  18.675  0.00  0.00    +0.000 HD
ENDBRANCH   1   3
BRANCH   1  14
ATOM     13  N   UNL     1       3.164   6.482  19.203  0.00  0.00    +0.000 N 
ATOM     14  C   UNL     1       2.746   5.165  19.307  0.00  0.00    +0.000 C 
ATOM     15  O   UNL     1       1.598   4.748  19.439  0.00  0.00    +0.000 OA
ATOM     16  H   UNL     1       4.163   6.650  19.192  0.00  0.00    +0.000 HD
BRANCH  13  22
ATOM     17  C   UNL     1       0.118   9.493  21.674  0.00  0.00    +0.000 C 
ATOM     18  C   UNL     1       0.804   9.102  20.397  0.00  0.00    +0.000 A 
ATOM     19  C   UNL     1       0.564   9.812  19.215  0.00  0.00    +0.000 A 
ATOM     20  C   UNL     1       1.193   9.431  18.035  0.00  0.00    +0.000 A 
ATOM     21  C   UNL     1       2.054   8.339  18.020  0.00  0.00    +0.000 A 
ATOM     22  C   UNL     1       2.306   7.605  19.185  0.00  0.00    +0.000 A 
ATOM     23  C   UNL     1       1.684   8.003  20.376  0.00  0.00    +0.000 A 
ENDBRANCH  13  22
ENDBRANCH   1  14
TORSDOF 3
ENDMDL
MODEL 7
REMARK VINA RESULT:      -7.7      1.106      1.106
REMARK  Name = 
REMARK  4 active torsions:
REMARK  status: ('A' for Active; 'I' for Inactive)
REMARK    1  A    between atoms: C_1  and  C_2
REMARK    2  A    between atoms: C_6  and  N_7
REMARK    3  A    between atoms: C_8  and  C_10
REMARK    4  A    between atoms: C_10  and  C_12
REMARK                            x       y       z     vdW  Elec       q    Type
REMARK                         _______ _______ _______ _____ _____    ______ ____
ROOT
ATOM      1  C   UNL     1       5.814   4.794  18.504  0.00  0.00    +0.000 C 
ATOM      2  O   UNL     1       6.552   4.643  19.475  0.00  0.00    +0.000 OA
ENDROOT
BRANCH   1   3
ATOM      3  C   UNL     1       4.356   4.855  18.593  0.00  0.00    +0.000 A 
ATOM      4  C   UNL     1       3.546   5.663  17.811  0.00  0.00    +0.000 A 
ATOM      5  N   UNL     1       2.241   5.416  18.133  0.00  0.00    +0.000 N 
ATOM      6  C   UNL     1       2.172   4.486  19.142  0.00  0.00    +0.000 A 
ATOM      7  C   UNL     1       1.052   3.941  19.780  0.00  0.00    +0.000 A 
ATOM      8  C   UNL     1       1.275   3.000  20.788  0.00  0.00    +0.000 A 
ATOM      9  C   UNL     1       2.567   2.619  21.138  0.00  0.00    +0.000 A 
ATOM     10  C   UNL     1       3.677   3.166  20.482  0.00  0.00    +0.000 A 
ATOM     11  C   UNL     1       3.482   4.122  19.462  0.00  0.00    +0.000 A 
ATOM     12  H   UNL     1       1.439   5.843  17.690  0.00  0.00    +0.000 HD
ENDBRANCH   1   3
BRANCH   1  14
ATOM     13  N   UNL     1       5.794   4.349  16.093  0.00  0.00    +0.000 N 
ATOM     14  C   UNL     1       6.478   4.947  17.139  0.00  0.00    +0.000 C 
ATOM     15  O   UNL     1       7.569   5.512  17.099  0.00  0.00    +0.000 OA
ATOM     16  H   UNL     1       4.945   3.846  16.323  0.00  0.00    +0.000 HD
BRANCH  13  22
ATOM     17  C   UNL     1       5.300   2.482  11.541  0.00  0.00    +0.000 C 
ATOM     18  C   UNL     1       5.990   3.413  12.495  0.00  0.00    +0.000 A 
ATOM     19  C   UNL     1       7.061   4.206  12.065  0.00  0.00    +0.000 A 
ATOM     20  C   UNL     1       7.703   5.053  12.961  0.00  0.00    +0.000 A 
ATOM     21  C   UNL     1       7.291   5.112  14.288  0.00  0.00    +0.000 A 
ATOM     22  C   UNL     1       6.228   4.325  14.748  0.00  0.00    +0.000 A 
ATOM     23  C   UNL     1       5.573   3.486  13.838  0.00  0.00    +0.000 A 
ENDBRANCH  13  22
ENDBRANCH   1  14
TORSDOF 3
ENDMDL
MODEL 8
REMARK VINA RESULT:      -7.6      1.755      2.200
REMARK  Name = 
REMARK  4 active torsions:
REMARK  status: ('A' for Active; 'I' for Inactive)
REMARK    1  A    between atoms: C_1  and  C_2
REMARK    2  A    between atoms: C_6  and  N_7
REMARK    3  A    between atoms: C_8  and  C_10
REMARK    4  A    between atoms: C_10  and  C_12
REMARK                            x       y       z     vdW  Elec       q    Type
REMARK                         _______ _______ _______ _____ _____    ______ ____
ROOT
ATOM      1  C   UNL     1       5.365   4.253  18.054  0.00  0.00    +0.000 C 
ATOM      2  O   UNL     1       6.203   4.691  18.839  0.00  0.00    +0.000 OA
ENDROOT
BRANCH   1   3
ATOM      3  C   UNL     1       4.262   3.378  18.447  0.00  0.00    +0.000 A 
ATOM      4  C   UNL     1       4.001   2.132  17.899  0.00  0.00    +0.000 A 
ATOM      5  N   UNL     1       2.930   1.585  18.548  0.00  0.00    +0.000 N 
ATOM      6  C   UNL     1       2.451   2.461  19.491  0.00  0.00    +0.000 A 
ATOM      7  C   UNL     1       1.377   2.322  20.377  0.00  0.00    +0.000 A 
ATOM      8  C   UNL     1       1.107   3.386  21.240  0.00  0.00    +0.000 A 
ATOM      9  C   UNL     1       1.885   4.540  21.218  0.00  0.00    +0.000 A 
ATOM     10  C   UNL     1       2.963   4.660  20.332  0.00  0.00    +0.000 A 
ATOM     11  C   UNL     1       3.256   3.602  19.445  0.00  0.00    +0.000 A 
ATOM     12  H   UNL     1       2.548   0.666  18.372  0.00  0.00    +0.000 HD
ENDBRANCH   1   3
BRANCH   1  14
ATOM     13  N   UNL     1       6.266   3.840  15.811  0.00  0.00    +0.000 N 
ATOM     14  C   UNL     1       5.487   4.678  16.593  0.00  0.00    +0.000 C 
ATOM     15  O   UNL     1       4.955   5.735  16.265  0.00  0.00    +0.000 OA
ATOM     16  H   UNL     1       6.703   3.051  16.273  0.00  0.00    +0.000 HD
BRANCH  13  22
ATOM     17  C   UNL     1       5.463   2.562  11.103  0.00  0.00    +0.000 C 
ATOM     18  C   UNL     1       6.161   3.425  12.113  0.00  0.00    +0.000 A 
ATOM     19  C   UNL     1       7.101   4.378  11.705  0.00  0.00    +0.000 A 
ATOM     20  C   UNL     1       7.754   5.161  12.650  0.00  0.00    +0.000 A 
ATOM     21  C   UNL     1       7.484   4.995  14.005  0.00  0.00    +0.000 A 
ATOM     22  C   UNL     1       6.554   4.045  14.443  0.00  0.00    +0.000 A 
ATOM     23  C   UNL     1       5.886   3.271  13.485  0.00  0.00    +0.000 A 
ENDBRANCH  13  22
ENDBRANCH   1  14
TORSDOF 3
ENDMDL
MODEL 9
REMARK VINA RESULT:      -7.6      1.171      2.347
REMARK  Name = 
REMARK  4 active torsions:
REMARK  status: ('A' for Active; 'I' for Inactive)
REMARK    1  A    between atoms: C_1  and  C_2
REMARK    2  A    between atoms: C_6  and  N_7
REMARK    3  A    between atoms: C_8  and  C_10
REMARK    4  A    between atoms: C_10  and  C_12
REMARK                            x       y       z     vdW  Elec       q    Type
REMARK                         _______ _______ _______ _____ _____    ______ ____
ROOT
ATOM      1  C   UNL     1       6.456   4.755  18.322  0.00  0.00    +0.000 C 
ATOM      2  O   UNL     1       7.230   4.854  19.271  0.00  0.00    +0.000 OA
ENDROOT
BRANCH   1   3
ATOM      3  C   UNL     1       5.002   4.829  18.448  0.00  0.00    +0.000 A 
ATOM      4  C   UNL     1       4.187   3.794  18.878  0.00  0.00    +0.000 A 
ATOM      5  N   UNL     1       2.897   4.242  18.922  0.00  0.00    +0.000 N 
ATOM      6  C   UNL     1       2.835   5.545  18.492  0.00  0.00    +0.000 A 
ATOM      7  C   UNL     1       1.730   6.396  18.371  0.00  0.00    +0.000 A 
ATOM      8  C   UNL     1       1.957   7.691  17.900  0.00  0.00    +0.000 A 
ATOM      9  C   UNL     1       3.240   8.116  17.569  0.00  0.00    +0.000 A 
ATOM     10  C   UNL     1       4.338   7.256  17.706  0.00  0.00    +0.000 A 
ATOM     11  C   UNL     1       4.137   5.940  18.175  0.00  0.00    +0.000 A 
ATOM     12  H   UNL     1       2.101   3.703  19.234  0.00  0.00    +0.000 HD
ENDBRANCH   1   3
BRANCH   1  14
ATOM     13  N   UNL     1       6.182   4.735  15.886  0.00  0.00    +0.000 N 
ATOM     14  C   UNL     1       7.069   4.568  16.937  0.00  0.00    +0.000 C 
ATOM     15  O   UNL     1       8.247   4.224  16.880  0.00  0.00    +0.000 OA
ATOM     16  H   UNL     1       5.216   4.935  16.122  0.00  0.00    +0.000 HD
BRANCH  13  22
ATOM     17  C   UNL     1       5.344   2.415  11.600  0.00  0.00    +0.000 C 
ATOM     18  C   UNL     1       6.097   3.441  12.396  0.00  0.00    +0.000 A 
ATOM     19  C   UNL     1       7.119   4.191  11.802  0.00  0.00    +0.000 A 
ATOM     20  C   UNL     1       7.820   5.129  12.552  0.00  0.00    +0.000 A 
ATOM     21  C   UNL     1       7.517   5.319  13.897  0.00  0.00    +0.000 A 
ATOM     22  C   UNL     1       6.506   4.578  14.519  0.00  0.00    +0.000 A 
ATOM     23  C   UNL     1       5.790   3.648  13.754  0.00  0.00    +0.000 A 
ENDBRANCH  13  22
ENDBRANCH   1  14
TORSDOF 3
ENDMDL
