MODEL 1
REMARK VINA RESULT:      -7.3      0.000      0.000
REMARK  Name = 
REMARK  10 active torsions:
REMARK  status: ('A' for Active; 'I' for Inactive)
REMARK    1  A    between atoms: C_1  and  O_2
REMARK    2  A    between atoms: O_2  and  C_3
REMARK    3  A    between atoms: C_3  and  C_5
REMARK    4  A    between atoms: C_9  and  N_10
REMARK    5  A    between atoms: C_11  and  C_13
REMARK    6  A    between atoms: C_13  and  S_14
REMARK    7  A    between atoms: S_14  and  C_15
REMARK    8  A    between atoms: C_17  and  O_18
REMARK    9  A    between atoms: C_19  and  C_20
REMARK   10  A    between atoms: C_26  and  O_27
REMARK                            x       y       z     vdW  Elec       q    Type
REMARK                         _______ _______ _______ _____ _____    ______ ____
ROOT
ATOM      1  S   UNL     1       2.572   2.058  21.268  0.00  0.00    +0.000 S 
ENDROOT
BRANCH   1   2
ATOM      2  C   UNL     1       3.312   2.658  19.775  0.00  0.00    +0.000 A 
ATOM      3  N   UNL     1       4.556   3.129  19.874  0.00  0.00    +0.000 NA
ATOM      4  C   UNL     1       5.084   3.606  18.738  0.00  0.00    +0.000 A 
ATOM      5  C   UNL     1       4.482   3.638  17.487  0.00  0.00    +0.000 A 
ATOM      6  C   UNL     1       3.212   3.078  17.536  0.00  0.00    +0.000 A 
ATOM      7  N   UNL     1       2.609   2.604  18.642  0.00  0.00    +0.000 NA
BRANCH   5   8
ATOM      8  C   UNL     1       5.121   4.216  16.278  0.00  0.00    +0.000 A 
ATOM      9  C   UNL     1       5.068   5.598  16.006  0.00  0.00    +0.000 A 
ATOM     10  C   UNL     1       5.635   6.146  14.850  0.00  0.00    +0.000 A 
ATOM     11  C   UNL     1       6.309   5.330  13.951  0.00  0.00    +0.000 A 
ATOM     12  C   UNL     1       6.394   3.964  14.195  0.00  0.00    +0.000 A 
ATOM     13  C   UNL     1       5.788   3.413  15.331  0.00  0.00    +0.000 A 
ENDBRANCH   5   8
BRANCH   4  14
ATOM     14  O   UNL     1       6.334   4.098  18.954  0.00  0.00    +0.000 OA
ATOM     15  H   UNL     1       6.821   3.276  19.147  0.00  0.00    +0.000 HD
ENDBRANCH   4  14
BRANCH   6  16
ATOM     16  O   UNL     1       2.424   2.926  16.428  0.00  0.00    +0.000 OA
ATOM     17  H   UNL     1       2.360   1.979  16.230  0.00  0.00    +0.000 HD
ENDBRANCH   6  16
ENDBRANCH   1   2
BRANCH   1  18
ATOM     18  C   UNL     1       2.165   3.658  22.028  0.00  0.00    +0.000 C 
BRANCH  18  20
ATOM     19  N   UNL     1       2.534   5.707  20.754  0.00  0.00    +0.000 N 
ATOM     20  C   UNL     1       1.674   4.640  20.981  0.00  0.00    +0.000 C 
ATOM     21  O   UNL     1       0.580   4.468  20.446  0.00  0.00    +0.000 OA
ATOM     22  H   UNL     1       3.462   5.622  21.156  0.00  0.00    +0.000 HD
BRANCH  19  27
ATOM     23  C   UNL     1       1.394   9.033  19.558  0.00  0.00    +0.000 A 
ATOM     24  C   UNL     1       1.852   9.024  18.233  0.00  0.00    +0.000 A 
ATOM     25  C   UNL     1       2.512   7.907  17.730  0.00  0.00    +0.000 A 
ATOM     26  C   UNL     1       2.737   6.802  18.551  0.00  0.00    +0.000 A 
ATOM     27  C   UNL     1       2.311   6.794  19.881  0.00  0.00    +0.000 A 
ATOM     28  C   UNL     1       1.623   7.913  20.377  0.00  0.00    +0.000 A 
BRANCH  23  29
ATOM     29  C   UNL     1       0.665  10.208  20.119  0.00  0.00    +0.000 C 
ATOM     30  O   UNL     1       0.982  11.371  19.910  0.00  0.00    +0.000 OA
BRANCH  29  32
ATOM     31  C   UNL     1      -0.459  10.403  22.171  0.00  0.00    +0.000 C 
ATOM     32  O   UNL     1      -0.367   9.783  20.888  0.00  0.00    +0.000 OA
ENDBRANCH  29  32
ENDBRANCH  23  29
ENDBRANCH  19  27
ENDBRANCH  18  20
ENDBRANCH   1  18
TORSDOF 9
ENDMDL
MODEL 2
REMARK VINA RESULT:      -7.3      0.594      1.170
REMARK  Name = 
REMARK  10 active torsions:
REMARK  status: ('A' for Active; 'I' for Inactive)
REMARK    1  A    between atoms: C_1  and  O_2
REMARK    2  A    between atoms: O_2  and  C_3
REMARK    3  A    between atoms: C_3  and  C_5
REMARK    4  A    between atoms: C_9  and  N_10
REMARK    5  A    between atoms: C_11  and  C_13
REMARK    6  A    between atoms: C_13  and  S_14
REMARK    7  A    between atoms: S_14  and  C_15
REMARK    8  A    between atoms: C_17  and  O_18
REMARK    9  A    between atoms: C_19  and  C_20
REMARK   10  A    between atoms: C_26  and  O_27
REMARK                            x       y       z     vdW  Elec       q    Type
REMARK                         _______ _______ _______ _____ _____    ______ ____
ROOT
ATOM      1  S   UNL     1       2.580   2.054  21.263  0.00  0.00    +0.000 S 
ENDROOT
BRANCH   1   2
ATOM      2  C   UNL     1       3.312   2.662  19.769  0.00  0.00    +0.000 A 
ATOM      3  N   UNL     1       4.561   3.121  19.861  0.00  0.00    +0.000 NA
ATOM      4  C   UNL     1       5.083   3.605  18.726  0.00  0.00    +0.000 A 
ATOM      5  C   UNL     1       4.470   3.655  17.481  0.00  0.00    +0.000 A 
ATOM      6  C   UNL     1       3.195   3.106  17.535  0.00  0.00    +0.000 A 
ATOM      7  N   UNL     1       2.599   2.626  18.642  0.00  0.00    +0.000 NA
BRANCH   5   8
ATOM      8  C   UNL     1       5.103   4.240  16.271  0.00  0.00    +0.000 A 
ATOM      9  C   UNL     1       5.803   3.442  15.346  0.00  0.00    +0.000 A 
ATOM     10  C   UNL     1       6.434   3.990  14.224  0.00  0.00    +0.000 A 
ATOM     11  C   UNL     1       6.347   5.353  13.974  0.00  0.00    +0.000 A 
ATOM     12  C   UNL     1       5.651   6.170  14.857  0.00  0.00    +0.000 A 
ATOM     13  C   UNL     1       5.058   5.624  16.002  0.00  0.00    +0.000 A 
ENDBRANCH   5   8
BRANCH   4  14
ATOM     14  O   UNL     1       6.339   4.085  18.935  0.00  0.00    +0.000 OA
ATOM     15  H   UNL     1       6.261   4.401  19.853  0.00  0.00    +0.000 HD
ENDBRANCH   4  14
BRANCH   6  16
ATOM     16  O   UNL     1       2.397   2.971  16.433  0.00  0.00    +0.000 OA
ATOM     17  H   UNL     1       1.472   3.001  16.724  0.00  0.00    +0.000 HD
ENDBRANCH   6  16
ENDBRANCH   1   2
BRANCH   1  18
ATOM     18  C   UNL     1       2.188   3.649  22.039  0.00  0.00    +0.000 C 
BRANCH  18  20
ATOM     19  N   UNL     1       2.520   5.714  20.780  0.00  0.00    +0.000 N 
ATOM     20  C   UNL     1       1.674   4.636  21.007  0.00  0.00    +0.000 C 
ATOM     21  O   UNL     1       0.575   4.458  20.485  0.00  0.00    +0.000 OA
ATOM     22  H   UNL     1       3.454   5.635  21.169  0.00  0.00    +0.000 HD
BRANCH  19  27
ATOM     23  C   UNL     1       1.411   9.073  19.650  0.00  0.00    +0.000 A 
ATOM     24  C   UNL     1       1.780   9.049  18.298  0.00  0.00    +0.000 A 
ATOM     25  C   UNL     1       2.371   7.911  17.757  0.00  0.00    +0.000 A 
ATOM     26  C   UNL     1       2.614   6.799  18.565  0.00  0.00    +0.000 A 
ATOM     27  C   UNL     1       2.275   6.807  19.920  0.00  0.00    +0.000 A 
ATOM     28  C   UNL     1       1.657   7.947  20.457  0.00  0.00    +0.000 A 
BRANCH  23  29
ATOM     29  C   UNL     1       0.757  10.271  20.254  0.00  0.00    +0.000 C 
ATOM     30  O   UNL     1       1.023  10.706  21.366  0.00  0.00    +0.000 OA
BRANCH  29  32
ATOM     31  C   UNL     1      -0.313  12.192  19.429  0.00  0.00    +0.000 C 
ATOM     32  O   UNL     1      -0.165  10.772  19.396  0.00  0.00    +0.000 OA
ENDBRANCH  29  32
ENDBRANCH  23  29
ENDBRANCH  19  27
ENDBRANCH  18  20
ENDBRANCH   1  18
TORSDOF 9
ENDMDL
MODEL 3
REMARK VINA RESULT:      -7.2      0.568      1.957
REMARK  Name = 
REMARK  10 active torsions:
REMARK  status: ('A' for Active; 'I' for Inactive)
REMARK    1  A    between atoms: C_1  and  O_2
REMARK    2  A    between atoms: O_2  and  C_3
REMARK    3  A    between atoms: C_3  and  C_5
REMARK    4  A    between atoms: C_9  and  N_10
REMARK    5  A    between atoms: C_11  and  C_13
REMARK    6  A    between atoms: C_13  and  S_14
REMARK    7  A    between atoms: S_14  and  C_15
REMARK    8  A    between atoms: C_17  and  O_18
REMARK    9  A    between atoms: C_19  and  C_20
REMARK   10  A    between atoms: C_26  and  O_27
REMARK                            x       y       z     vdW  Elec       q    Type
REMARK                         _______ _______ _______ _____ _____    ______ ____
ROOT
ATOM      1  S   UNL     1       2.669   2.089  21.225  0.00  0.00    +0.000 S 
ENDROOT
BRANCH   1   2
ATOM      2  C   UNL     1       3.416   2.762  19.768  0.00  0.00    +0.000 A 
ATOM      3  N   UNL     1       2.658   2.795  18.670  0.00  0.00    +0.000 NA
ATOM      4  C   UNL     1       3.254   3.280  17.572  0.00  0.00    +0.000 A 
ATOM      5  C   UNL     1       4.552   3.762  17.471  0.00  0.00    +0.000 A 
ATOM      6  C   UNL     1       5.199   3.702  18.700  0.00  0.00    +0.000 A 
ATOM      7  N   UNL     1       4.673   3.206  19.835  0.00  0.00    +0.000 NA
BRANCH   5   8
ATOM      8  C   UNL     1       5.155   4.253  16.206  0.00  0.00    +0.000 A 
ATOM      9  C   UNL     1       5.760   3.372  15.288  0.00  0.00    +0.000 A 
ATOM     10  C   UNL     1       6.363   3.830  14.111  0.00  0.00    +0.000 A 
ATOM     11  C   UNL     1       6.342   5.184  13.800  0.00  0.00    +0.000 A 
ATOM     12  C   UNL     1       5.741   6.080  14.676  0.00  0.00    +0.000 A 
ATOM     13  C   UNL     1       5.177   5.623  15.873  0.00  0.00    +0.000 A 
ENDBRANCH   5   8
BRANCH   4  14
ATOM     14  O   UNL     1       2.414   3.231  16.502  0.00  0.00    +0.000 OA
ATOM     15  H   UNL     1       1.753   2.590  16.822  0.00  0.00    +0.000 HD
ENDBRANCH   4  14
BRANCH   6  16
ATOM     16  O   UNL     1       6.467   4.173  18.896  0.00  0.00    +0.000 OA
ATOM     17  H   UNL     1       7.002   3.457  19.273  0.00  0.00    +0.000 HD
ENDBRANCH   6  16
ENDBRANCH   1   2
BRANCH   1  18
ATOM     18  C   UNL     1       2.129   3.644  21.994  0.00  0.00    +0.000 C 
BRANCH  18  20
ATOM     19  N   UNL     1       2.546   5.682  20.715  0.00  0.00    +0.000 N 
ATOM     20  C   UNL     1       1.665   4.631  20.939  0.00  0.00    +0.000 C 
ATOM     21  O   UNL     1       0.572   4.478  20.397  0.00  0.00    +0.000 OA
ATOM     22  H   UNL     1       3.470   5.580  21.124  0.00  0.00    +0.000 HD
BRANCH  19  27
ATOM     23  C   UNL     1       1.419   8.996  19.478  0.00  0.00    +0.000 A 
ATOM     24  C   UNL     1       1.940   9.000  18.176  0.00  0.00    +0.000 A 
ATOM     25  C   UNL     1       2.640   7.895  17.702  0.00  0.00    +0.000 A 
ATOM     26  C   UNL     1       2.841   6.788  18.529  0.00  0.00    +0.000 A 
ATOM     27  C   UNL     1       2.350   6.769  19.837  0.00  0.00    +0.000 A 
ATOM     28  C   UNL     1       1.624   7.876  20.303  0.00  0.00    +0.000 A 
BRANCH  23  29
ATOM     29  C   UNL     1       0.647  10.158  20.007  0.00  0.00    +0.000 C 
ATOM     30  O   UNL     1       0.459  10.367  21.197  0.00  0.00    +0.000 OA
BRANCH  29  32
ATOM     31  C   UNL     1      -1.234  11.002  18.882  0.00  0.00    +0.000 C 
ATOM     32  O   UNL     1       0.188  10.911  18.977  0.00  0.00    +0.000 OA
ENDBRANCH  29  32
ENDBRANCH  23  29
ENDBRANCH  19  27
ENDBRANCH  18  20
ENDBRANCH   1  18
TORSDOF 9
ENDMDL
MODEL 4
REMARK VINA RESULT:      -7.1      2.730      8.211
REMARK  Name = 
REMARK  10 active torsions:
REMARK  status: ('A' for Active; 'I' for Inactive)
REMARK    1  A    between atoms: C_1  and  O_2
REMARK    2  A    between atoms: O_2  and  C_3
REMARK    3  A    between atoms: C_3  and  C_5
REMARK    4  A    between atoms: C_9  and  N_10
REMARK    5  A    between atoms: C_11  and  C_13
REMARK    6  A    between atoms: C_13  and  S_14
REMARK    7  A    between atoms: S_14  and  C_15
REMARK    8  A    between atoms: C_17  and  O_18
REMARK    9  A    between atoms: C_19  and  C_20
REMARK   10  A    between atoms: C_26  and  O_27
REMARK                            x       y       z     vdW  Elec       q    Type
REMARK                         _______ _______ _______ _____ _____    ______ ____
ROOT
ATOM      1  S   UNL     1       4.589   4.039  18.436  0.00  0.00    +0.000 S 
ENDROOT
BRANCH   1   2
ATOM      2  C   UNL     1       3.593   5.479  18.707  0.00  0.00    +0.000 A 
ATOM      3  N   UNL     1       3.629   6.415  17.757  0.00  0.00    +0.000 NA
ATOM      4  C   UNL     1       2.892   7.508  17.997  0.00  0.00    +0.000 A 
ATOM      5  C   UNL     1       2.094   7.749  19.108  0.00  0.00    +0.000 A 
ATOM      6  C   UNL     1       2.128   6.672  19.984  0.00  0.00    +0.000 A 
ATOM      7  N   UNL     1       2.862   5.555  19.820  0.00  0.00    +0.000 NA
BRANCH   5   8
ATOM      8  C   UNL     1       1.332   9.006  19.320  0.00  0.00    +0.000 A 
ATOM      9  C   UNL     1       1.299   9.645  20.575  0.00  0.00    +0.000 A 
ATOM     10  C   UNL     1       0.553  10.808  20.794  0.00  0.00    +0.000 A 
ATOM     11  C   UNL     1      -0.150  11.390  19.747  0.00  0.00    +0.000 A 
ATOM     12  C   UNL     1      -0.128  10.795  18.491  0.00  0.00    +0.000 A 
ATOM     13  C   UNL     1       0.584   9.607  18.288  0.00  0.00    +0.000 A 
ENDBRANCH   5   8
BRANCH   4  14
ATOM     14  O   UNL     1       3.029   8.416  16.993  0.00  0.00    +0.000 OA
ATOM     15  H   UNL     1       2.269   8.179  16.431  0.00  0.00    +0.000 HD
ENDBRANCH   4  14
BRANCH   6  16
ATOM     16  O   UNL     1       1.380   6.620  21.128  0.00  0.00    +0.000 OA
ATOM     17  H   UNL     1       1.848   6.065  21.771  0.00  0.00    +0.000 HD
ENDBRANCH   6  16
ENDBRANCH   1   2
BRANCH   1  18
ATOM     18  C   UNL     1       6.223   4.831  18.475  0.00  0.00    +0.000 C 
BRANCH  18  20
ATOM     19  N   UNL     1       6.109   4.820  16.036  0.00  0.00    +0.000 N 
ATOM     20  C   UNL     1       6.932   4.664  17.144  0.00  0.00    +0.000 C 
ATOM     21  O   UNL     1       8.127   4.374  17.119  0.00  0.00    +0.000 OA
ATOM     22  H   UNL     1       5.189   5.210  16.219  0.00  0.00    +0.000 HD
BRANCH  19  27
ATOM     23  C   UNL     1       6.049   3.615  12.524  0.00  0.00    +0.000 A 
ATOM     24  C   UNL     1       7.125   4.323  11.968  0.00  0.00    +0.000 A 
ATOM     25  C   UNL     1       7.884   5.177  12.764  0.00  0.00    +0.000 A 
ATOM     26  C   UNL     1       7.563   5.344  14.111  0.00  0.00    +0.000 A 
ATOM     27  C   UNL     1       6.482   4.667  14.683  0.00  0.00    +0.000 A 
ATOM     28  C   UNL     1       5.735   3.788  13.884  0.00  0.00    +0.000 A 
BRANCH  23  29
ATOM     29  C   UNL     1       5.230   2.678  11.701  0.00  0.00    +0.000 C 
ATOM     30  O   UNL     1       5.660   1.638  11.222  0.00  0.00    +0.000 OA
BRANCH  29  32
ATOM     31  C   UNL     1       3.630   3.591  10.246  0.00  0.00    +0.000 C 
ATOM     32  O   UNL     1       3.973   3.166  11.565  0.00  0.00    +0.000 OA
ENDBRANCH  29  32
ENDBRANCH  23  29
ENDBRANCH  19  27
ENDBRANCH  18  20
ENDBRANCH   1  18
TORSDOF 9
ENDMDL
MODEL 5
REMARK VINA RESULT:      -7.1      6.313      7.532
REMARK  Name = 
REMARK  10 active torsions:
REMARK  status: ('A' for Active; 'I' for Inactive)
REMARK    1  A    between atoms: C_1  and  O_2
REMARK    2  A    between atoms: O_2  and  C_3
REMARK    3  A    between atoms: C_3  and  C_5
REMARK    4  A    between atoms: C_9  and  N_10
REMARK    5  A    between atoms: C_11  and  C_13
REMARK    6  A    between atoms: C_13  and  S_14
REMARK    7  A    between atoms: S_14  and  C_15
REMARK    8  A    between atoms: C_17  and  O_18
REMARK    9  A    between atoms: C_19  and  C_20
REMARK   10  A    between atoms: C_26  and  O_27
REMARK                            x       y       z     vdW  Elec       q    Type
REMARK                         _______ _______ _______ _____ _____    ______ ____
ROOT
ATOM      1  S   UNL     1       7.432   7.356  16.889  0.00  0.00    +0.000 S 
ENDROOT
BRANCH   1   2
ATOM      2  C   UNL     1       6.036   6.483  17.540  0.00  0.00    +0.000 A 
ATOM      3  N   UNL     1       6.280   5.292  18.090  0.00  0.00    +0.000 NA
ATOM      4  C   UNL     1       5.205   4.636  18.548  0.00  0.00    +0.000 A 
ATOM      5  C   UNL     1       3.888   5.076  18.525  0.00  0.00    +0.000 A 
ATOM      6  C   UNL     1       3.799   6.343  17.962  0.00  0.00    +0.000 A 
ATOM      7  N   UNL     1       4.829   7.048  17.460  0.00  0.00    +0.000 NA
BRANCH   5   8
ATOM      8  C   UNL     1       2.741   4.274  19.023  0.00  0.00    +0.000 A 
ATOM      9  C   UNL     1       2.285   4.384  20.351  0.00  0.00    +0.000 A 
ATOM     10  C   UNL     1       1.230   3.606  20.838  0.00  0.00    +0.000 A 
ATOM     11  C   UNL     1       0.572   2.720  19.994  0.00  0.00    +0.000 A 
ATOM     12  C   UNL     1       0.984   2.596  18.673  0.00  0.00    +0.000 A 
ATOM     13  C   UNL     1       2.069   3.345  18.201  0.00  0.00    +0.000 A 
ENDBRANCH   5   8
BRANCH   4  14
ATOM     14  O   UNL     1       5.555   3.421  19.049  0.00  0.00    +0.000 OA
ATOM     15  H   UNL     1       4.713   2.938  18.954  0.00  0.00    +0.000 HD
ENDBRANCH   4  14
BRANCH   6  16
ATOM     16  O   UNL     1       2.624   7.037  17.876  0.00  0.00    +0.000 OA
ATOM     17  H   UNL     1       1.900   6.397  17.786  0.00  0.00    +0.000 HD
ENDBRANCH   6  16
ENDBRANCH   1   2
BRANCH   1  18
ATOM     18  C   UNL     1       8.239   7.781  18.460  0.00  0.00    +0.000 C 
BRANCH  18  20
ATOM     19  N   UNL     1       9.403   9.627  19.555  0.00  0.00    +0.000 N 
ATOM     20  C   UNL     1       8.552   9.265  18.519  0.00  0.00    +0.000 C 
ATOM     21  O   UNL     1       8.030  10.032  17.712  0.00  0.00    +0.000 OA
ATOM     22  H   UNL     1       9.869   8.862  20.034  0.00  0.00    +0.000 HD
BRANCH  19  27
ATOM     23  C   UNL     1       9.623  12.854  21.379  0.00  0.00    +0.000 A 
ATOM     24  C   UNL     1      10.605  13.526  20.638  0.00  0.00    +0.000 A 
ATOM     25  C   UNL     1      11.173  12.921  19.521  0.00  0.00    +0.000 A 
ATOM     26  C   UNL     1      10.779  11.635  19.148  0.00  0.00    +0.000 A 
ATOM     27  C   UNL     1       9.818  10.936  19.883  0.00  0.00    +0.000 A 
ATOM     28  C   UNL     1       9.230  11.560  20.994  0.00  0.00    +0.000 A 
BRANCH  23  29
ATOM     29  C   UNL     1       8.983  13.486  22.569  0.00  0.00    +0.000 C 
ATOM     30  O   UNL     1       8.558  12.858  23.529  0.00  0.00    +0.000 OA
BRANCH  29  32
ATOM     31  C   UNL     1       9.327  15.591  23.550  0.00  0.00    +0.000 C 
ATOM     32  O   UNL     1       8.937  14.831  22.406  0.00  0.00    +0.000 OA
ENDBRANCH  29  32
ENDBRANCH  23  29
ENDBRANCH  19  27
ENDBRANCH  18  20
ENDBRANCH   1  18
TORSDOF 9
ENDMDL
MODEL 6
REMARK VINA RESULT:      -7.1      6.152      7.488
REMARK  Name = 
REMARK  10 active torsions:
REMARK  status: ('A' for Active; 'I' for Inactive)
REMARK    1  A    between atoms: C_1  and  O_2
REMARK    2  A    between atoms: O_2  and  C_3
REMARK    3  A    between atoms: C_3  and  C_5
REMARK    4  A    between atoms: C_9  and  N_10
REMARK    5  A    between atoms: C_11  and  C_13
REMARK    6  A    between atoms: C_13  and  S_14
REMARK    7  A    between atoms: S_14  and  C_15
REMARK    8  A    between atoms: C_17  and  O_18
REMARK    9  A    between atoms: C_19  and  C_20
REMARK   10  A    between atoms: C_26  and  O_27
REMARK                            x       y       z     vdW  Elec       q    Type
REMARK                         _______ _______ _______ _____ _____    ______ ____
ROOT
ATOM      1  S   UNL     1       7.433   7.423  16.902  0.00  0.00    +0.000 S 
ENDROOT
BRANCH   1   2
ATOM      2  C   UNL     1       6.087   6.464  17.539  0.00  0.00    +0.000 A 
ATOM      3  N   UNL     1       4.870   6.999  17.431  0.00  0.00    +0.000 NA
ATOM      4  C   UNL     1       3.871   6.270  17.947  0.00  0.00    +0.000 A 
ATOM      5  C   UNL     1       3.974   5.025  18.554  0.00  0.00    +0.000 A 
ATOM      6  C   UNL     1       5.291   4.583  18.555  0.00  0.00    +0.000 A 
ATOM      7  N   UNL     1       6.345   5.271  18.078  0.00  0.00    +0.000 NA
BRANCH   5   8
ATOM      8  C   UNL     1       2.821   4.292  19.136  0.00  0.00    +0.000 A 
ATOM      9  C   UNL     1       2.509   4.378  20.506  0.00  0.00    +0.000 A 
ATOM     10  C   UNL     1       1.447   3.662  21.070  0.00  0.00    +0.000 A 
ATOM     11  C   UNL     1       0.640   2.867  20.266  0.00  0.00    +0.000 A 
ATOM     12  C   UNL     1       0.910   2.770  18.906  0.00  0.00    +0.000 A 
ATOM     13  C   UNL     1       1.999   3.455  18.354  0.00  0.00    +0.000 A 
ENDBRANCH   5   8
BRANCH   4  14
ATOM     14  O   UNL     1       2.682   6.920  17.824  0.00  0.00    +0.000 OA
ATOM     15  H   UNL     1       2.631   7.367  18.689  0.00  0.00    +0.000 HD
ENDBRANCH   4  14
BRANCH   6  16
ATOM     16  O   UNL     1       5.663   3.358  19.034  0.00  0.00    +0.000 OA
ATOM     17  H   UNL     1       6.359   3.491  19.697  0.00  0.00    +0.000 HD
ENDBRANCH   6  16
ENDBRANCH   1   2
BRANCH   1  18
ATOM     18  C   UNL     1       8.243   7.827  18.476  0.00  0.00    +0.000 C 
BRANCH  18  20
ATOM     19  N   UNL     1       9.388   9.658  19.616  0.00  0.00    +0.000 N 
ATOM     20  C   UNL     1       8.577   9.306  18.544  0.00  0.00    +0.000 C 
ATOM     21  O   UNL     1       8.105  10.079  17.713  0.00  0.00    +0.000 OA
ATOM     22  H   UNL     1       9.820   8.887  20.117  0.00  0.00    +0.000 HD
BRANCH  19  27
ATOM     23  C   UNL     1       9.533  12.916  21.392  0.00  0.00    +0.000 A 
ATOM     24  C   UNL     1      10.602  13.543  20.736  0.00  0.00    +0.000 A 
ATOM     25  C   UNL     1      11.255  12.897  19.691  0.00  0.00    +0.000 A 
ATOM     26  C   UNL     1      10.858  11.616  19.306  0.00  0.00    +0.000 A 
ATOM     27  C   UNL     1       9.810  10.961  19.958  0.00  0.00    +0.000 A 
ATOM     28  C   UNL     1       9.139  11.625  20.996  0.00  0.00    +0.000 A 
BRANCH  23  29
ATOM     29  C   UNL     1       8.801  13.591  22.503  0.00  0.00    +0.000 C 
ATOM     30  O   UNL     1       8.651  13.105  23.615  0.00  0.00    +0.000 OA
BRANCH  29  32
ATOM     31  C   UNL     1       7.016  14.762  21.526  0.00  0.00    +0.000 C 
ATOM     32  O   UNL     1       8.331  14.790  22.081  0.00  0.00    +0.000 OA
ENDBRANCH  29  32
ENDBRANCH  23  29
ENDBRANCH  19  27
ENDBRANCH  18  20
ENDBRANCH   1  18
TORSDOF 9
ENDMDL
MODEL 7
REMARK VINA RESULT:      -7.1      3.843     10.203
REMARK  Name = 
REMARK  10 active torsions:
REMARK  status: ('A' for Active; 'I' for Inactive)
REMARK    1  A    between atoms: C_1  and  O_2
REMARK    2  A    between atoms: O_2  and  C_3
REMARK    3  A    between atoms: C_3  and  C_5
REMARK    4  A    between atoms: C_9  and  N_10
REMARK    5  A    between atoms: C_11  and  C_13
REMARK    6  A    between atoms: C_13  and  S_14
REMARK    7  A    between atoms: S_14  and  C_15
REMARK    8  A    between atoms: C_17  and  O_18
REMARK    9  A    between atoms: C_19  and  C_20
REMARK   10  A    between atoms: C_26  and  O_27
REMARK                            x       y       z     vdW  Elec       q    Type
REMARK                         _______ _______ _______ _____ _____    ______ ____
ROOT
ATOM      1  S   UNL     1      -0.029  10.064  18.451  0.00  0.00    +0.000 S 
ENDROOT
BRANCH   1   2
ATOM      2  C   UNL     1      -0.629  10.977  19.844  0.00  0.00    +0.000 A 
ATOM      3  N   UNL     1      -1.395  12.037  19.577  0.00  0.00    +0.000 NA
ATOM      4  C   UNL     1      -1.812  12.731  20.646  0.00  0.00    +0.000 A 
ATOM      5  C   UNL     1      -1.547  12.448  21.979  0.00  0.00    +0.000 A 
ATOM      6  C   UNL     1      -0.777  11.298  22.097  0.00  0.00    +0.000 A 
ATOM      7  N   UNL     1      -0.302  10.567  21.071  0.00  0.00    +0.000 NA
BRANCH   5   8
ATOM      8  C   UNL     1      -2.018  13.287  23.110  0.00  0.00    +0.000 A 
ATOM      9  C   UNL     1      -3.311  13.142  23.648  0.00  0.00    +0.000 A 
ATOM     10  C   UNL     1      -3.776  13.953  24.689  0.00  0.00    +0.000 A 
ATOM     11  C   UNL     1      -2.940  14.910  25.250  0.00  0.00    +0.000 A 
ATOM     12  C   UNL     1      -1.652  15.072  24.755  0.00  0.00    +0.000 A 
ATOM     13  C   UNL     1      -1.206  14.287  23.684  0.00  0.00    +0.000 A 
ENDBRANCH   5   8
BRANCH   4  14
ATOM     14  O   UNL     1      -2.547  13.810  20.266  0.00  0.00    +0.000 OA
ATOM     15  H   UNL     1      -3.184  13.862  21.002  0.00  0.00    +0.000 HD
ENDBRANCH   4  14
BRANCH   6  16
ATOM     16  O   UNL     1      -0.426  10.759  23.304  0.00  0.00    +0.000 OA
ATOM     17  H   UNL     1      -1.228  10.675  23.842  0.00  0.00    +0.000 HD
ENDBRANCH   6  16
ENDBRANCH   1   2
BRANCH   1  18
ATOM     18  C   UNL     1       1.307   9.154  19.281  0.00  0.00    +0.000 C 
BRANCH  18  20
ATOM     19  N   UNL     1       2.401   7.035  18.759  0.00  0.00    +0.000 N 
ATOM     20  C   UNL     1       2.073   8.300  18.287  0.00  0.00    +0.000 C 
ATOM     21  O   UNL     1       2.380   8.764  17.191  0.00  0.00    +0.000 OA
ATOM     22  H   UNL     1       1.942   6.749  19.618  0.00  0.00    +0.000 HD
BRANCH  19  27
ATOM     23  C   UNL     1       5.239   5.451  16.963  0.00  0.00    +0.000 A 
ATOM     24  C   UNL     1       4.744   4.158  16.744  0.00  0.00    +0.000 A 
ATOM     25  C   UNL     1       3.461   3.821  17.168  0.00  0.00    +0.000 A 
ATOM     26  C   UNL     1       2.674   4.765  17.828  0.00  0.00    +0.000 A 
ATOM     27  C   UNL     1       3.153   6.054  18.077  0.00  0.00    +0.000 A 
ATOM     28  C   UNL     1       4.438   6.397  17.627  0.00  0.00    +0.000 A 
BRANCH  23  29
ATOM     29  C   UNL     1       6.602   5.847  16.503  0.00  0.00    +0.000 C 
ATOM     30  O   UNL     1       7.416   5.066  16.029  0.00  0.00    +0.000 OA
BRANCH  29  32
ATOM     31  C   UNL     1       7.725   7.503  17.733  0.00  0.00    +0.000 C 
ATOM     32  O   UNL     1       6.788   7.174  16.707  0.00  0.00    +0.000 OA
ENDBRANCH  29  32
ENDBRANCH  23  29
ENDBRANCH  19  27
ENDBRANCH  18  20
ENDBRANCH   1  18
TORSDOF 9
ENDMDL
MODEL 8
REMARK VINA RESULT:      -7.1      6.242      7.534
REMARK  Name = 
REMARK  10 active torsions:
REMARK  status: ('A' for Active; 'I' for Inactive)
REMARK    1  A    between atoms: C_1  and  O_2
REMARK    2  A    between atoms: O_2  and  C_3
REMARK    3  A    between atoms: C_3  and  C_5
REMARK    4  A    between atoms: C_9  and  N_10
REMARK    5  A    between atoms: C_11  and  C_13
REMARK    6  A    between atoms: C_13  and  S_14
REMARK    7  A    between atoms: S_14  and  C_15
REMARK    8  A    between atoms: C_17  and  O_18
REMARK    9  A    between atoms: C_19  and  C_20
REMARK   10  A    between atoms: C_26  and  O_27
REMARK                            x       y       z     vdW  Elec       q    Type
REMARK                         _______ _______ _______ _____ _____    ______ ____
ROOT
ATOM      1  S   UNL     1       7.480   7.440  16.904  0.00  0.00    +0.000 S 
ENDROOT
BRANCH   1   2
ATOM      2  C   UNL     1       6.126   6.475  17.513  0.00  0.00    +0.000 A 
ATOM      3  N   UNL     1       4.911   7.014  17.398  0.00  0.00    +0.000 NA
ATOM      4  C   UNL     1       3.905   6.280  17.893  0.00  0.00    +0.000 A 
ATOM      5  C   UNL     1       3.999   5.027  18.485  0.00  0.00    +0.000 A 
ATOM      6  C   UNL     1       5.315   4.583  18.496  0.00  0.00    +0.000 A 
ATOM      7  N   UNL     1       6.376   5.275  18.040  0.00  0.00    +0.000 NA
BRANCH   5   8
ATOM      8  C   UNL     1       2.838   4.289  19.044  0.00  0.00    +0.000 A 
ATOM      9  C   UNL     1       2.075   3.408  18.253  0.00  0.00    +0.000 A 
ATOM     10  C   UNL     1       0.958   2.736  18.762  0.00  0.00    +0.000 A 
ATOM     11  C   UNL     1       0.596   2.898  20.093  0.00  0.00    +0.000 A 
ATOM     12  C   UNL     1       1.335   3.747  20.907  0.00  0.00    +0.000 A 
ATOM     13  C   UNL     1       2.427   4.451  20.383  0.00  0.00    +0.000 A 
ENDBRANCH   5   8
BRANCH   4  14
ATOM     14  O   UNL     1       2.718   6.933  17.765  0.00  0.00    +0.000 OA
ATOM     15  H   UNL     1       2.985   7.839  18.007  0.00  0.00    +0.000 HD
ENDBRANCH   4  14
BRANCH   6  16
ATOM     16  O   UNL     1       5.680   3.351  18.964  0.00  0.00    +0.000 OA
ATOM     17  H   UNL     1       6.505   3.092  18.524  0.00  0.00    +0.000 HD
ENDBRANCH   6  16
ENDBRANCH   1   2
BRANCH   1  18
ATOM     18  C   UNL     1       8.252   7.855  18.495  0.00  0.00    +0.000 C 
BRANCH  18  20
ATOM     19  N   UNL     1       9.392   9.687  19.638  0.00  0.00    +0.000 N 
ATOM     20  C   UNL     1       8.593   9.332  18.558  0.00  0.00    +0.000 C 
ATOM     21  O   UNL     1       8.136  10.102  17.715  0.00  0.00    +0.000 OA
ATOM     22  H   UNL     1       9.813   8.917  20.149  0.00  0.00    +0.000 HD
BRANCH  19  27
ATOM     23  C   UNL     1       9.507  12.971  21.367  0.00  0.00    +0.000 A 
ATOM     24  C   UNL     1      10.609  13.574  20.747  0.00  0.00    +0.000 A 
ATOM     25  C   UNL     1      11.296  12.904  19.739  0.00  0.00    +0.000 A 
ATOM     26  C   UNL     1      10.899  11.621  19.358  0.00  0.00    +0.000 A 
ATOM     27  C   UNL     1       9.817  10.990  19.976  0.00  0.00    +0.000 A 
ATOM     28  C   UNL     1       9.112  11.679  20.975  0.00  0.00    +0.000 A 
BRANCH  23  29
ATOM     29  C   UNL     1       8.739  13.673  22.436  0.00  0.00    +0.000 C 
ATOM     30  O   UNL     1       8.240  14.782  22.302  0.00  0.00    +0.000 OA
BRANCH  29  32
ATOM     31  C   UNL     1       8.303  13.589  24.742  0.00  0.00    +0.000 C 
ATOM     32  O   UNL     1       8.701  12.906  23.553  0.00  0.00    +0.000 OA
ENDBRANCH  29  32
ENDBRANCH  23  29
ENDBRANCH  19  27
ENDBRANCH  18  20
ENDBRANCH   1  18
TORSDOF 9
ENDMDL
MODEL 9
REMARK VINA RESULT:      -7.0      3.735     10.145
REMARK  Name = 
REMARK  10 active torsions:
REMARK  status: ('A' for Active; 'I' for Inactive)
REMARK    1  A    between atoms: C_1  and  O_2
REMARK    2  A    between atoms: O_2  and  C_3
REMARK    3  A    between atoms: C_3  and  C_5
REMARK    4  A    between atoms: C_9  and  N_10
REMARK    5  A    between atoms: C_11  and  C_13
REMARK    6  A    between atoms: C_13  and  S_14
REMARK    7  A    between atoms: S_14  and  C_15
REMARK    8  A    between atoms: C_17  and  O_18
REMARK    9  A    between atoms: C_19  and  C_20
REMARK   10  A    between atoms: C_26  and  O_27
REMARK                            x       y       z     vdW  Elec       q    Type
REMARK                         _______ _______ _______ _____ _____    ______ ____
ROOT
ATOM      1  S   UNL     1       0.155  10.002  18.405  0.00  0.00    +0.000 S 
ENDROOT
BRANCH   1   2
ATOM      2  C   UNL     1      -0.496  10.893  19.790  0.00  0.00    +0.000 A 
ATOM      3  N   UNL     1      -1.301  11.921  19.513  0.00  0.00    +0.000 NA
ATOM      4  C   UNL     1      -1.757  12.599  20.575  0.00  0.00    +0.000 A 
ATOM      5  C   UNL     1      -1.495  12.331  21.911  0.00  0.00    +0.000 A 
ATOM      6  C   UNL     1      -0.679  11.213  22.040  0.00  0.00    +0.000 A 
ATOM      7  N   UNL     1      -0.166  10.500  21.021  0.00  0.00    +0.000 NA
BRANCH   5   8
ATOM      8  C   UNL     1      -2.010  13.153  23.036  0.00  0.00    +0.000 A 
ATOM      9  C   UNL     1      -1.248  14.198  23.594  0.00  0.00    +0.000 A 
ATOM     10  C   UNL     1      -1.710  14.953  24.677  0.00  0.00    +0.000 A 
ATOM     11  C   UNL     1      -2.970  14.709  25.208  0.00  0.00    +0.000 A 
ATOM     12  C   UNL     1      -3.756  13.696  24.672  0.00  0.00    +0.000 A 
ATOM     13  C   UNL     1      -3.272  12.914  23.617  0.00  0.00    +0.000 A 
ENDBRANCH   5   8
BRANCH   4  14
ATOM     14  O   UNL     1      -2.531  13.648  20.185  0.00  0.00    +0.000 OA
ATOM     15  H   UNL     1      -2.987  13.259  19.416  0.00  0.00    +0.000 HD
ENDBRANCH   4  14
BRANCH   6  16
ATOM     16  O   UNL     1      -0.320  10.691  23.252  0.00  0.00    +0.000 OA
ATOM     17  H   UNL     1      -1.056  10.825  23.870  0.00  0.00    +0.000 HD
ENDBRANCH   6  16
ENDBRANCH   1   2
BRANCH   1  18
ATOM     18  C   UNL     1       1.488   9.112  19.260  0.00  0.00    +0.000 C 
BRANCH  18  20
ATOM     19  N   UNL     1       2.522   6.940  18.843  0.00  0.00    +0.000 N 
ATOM     20  C   UNL     1       2.213   8.183  18.304  0.00  0.00    +0.000 C 
ATOM     21  O   UNL     1       2.507   8.574  17.176  0.00  0.00    +0.000 OA
ATOM     22  H   UNL     1       2.075   6.716  19.727  0.00  0.00    +0.000 HD
BRANCH  19  27
ATOM     23  C   UNL     1       5.379   5.067  17.388  0.00  0.00    +0.000 A 
ATOM     24  C   UNL     1       4.755   3.879  16.981  0.00  0.00    +0.000 A 
ATOM     25  C   UNL     1       3.386   3.712  17.165  0.00  0.00    +0.000 A 
ATOM     26  C   UNL     1       2.635   4.719  17.772  0.00  0.00    +0.000 A 
ATOM     27  C   UNL     1       3.237   5.903  18.206  0.00  0.00    +0.000 A 
ATOM     28  C   UNL     1       4.614   6.078  17.997  0.00  0.00    +0.000 A 
BRANCH  23  29
ATOM     29  C   UNL     1       6.841   5.283  17.186  0.00  0.00    +0.000 C 
ATOM     30  O   UNL     1       7.516   4.666  16.374  0.00  0.00    +0.000 OA
BRANCH  29  32
ATOM     31  C   UNL     1       7.875   5.745  19.244  0.00  0.00    +0.000 C 
ATOM     32  O   UNL     1       7.286   6.237  18.040  0.00  0.00    +0.000 OA
ENDBRANCH  29  32
ENDBRANCH  23  29
ENDBRANCH  19  27
ENDBRANCH  18  20
ENDBRANCH   1  18
TORSDOF 9
ENDMDL
