MODEL 1
REMARK VINA RESULT:      -7.4      0.000      0.000
REMARK  Name = 
REMARK  9 active torsions:
REMARK  status: ('A' for Active; 'I' for Inactive)
REMARK    1  A    between atoms: C_2  and  C_3
REMARK    2  A    between atoms: C_2  and  C_4
REMARK    3  A    between atoms: C_4  and  O_5
REMARK    4  A    between atoms: C_10  and  C_11
REMARK    5  A    between atoms: C_11  and  C_12
REMARK    6  A    between atoms: C_12  and  S_13
REMARK    7  A    between atoms: C_12  and  S_20
REMARK    8  A    between atoms: S_13  and  C_14
REMARK    9  A    between atoms: S_20  and  C_21
REMARK                            x       y       z     vdW  Elec       q    Type
REMARK                         _______ _______ _______ _____ _____    ______ ____
ROOT
ATOM      1  C   UNL     1       3.130   7.322  18.030  0.00  0.00    +0.000 C 
ENDROOT
BRANCH   1   2
ATOM      2  C   UNL     1       2.311   6.065  18.430  0.00  0.00    +0.000 C 
BRANCH   2   8
ATOM      3  C   UNL     1       2.804   3.525  18.404  0.00  0.00    +0.000 C 
ATOM      4  C   UNL     1       1.328   3.067  18.236  0.00  0.00    +0.000 C 
ATOM      5  C   UNL     1       0.691   2.742  19.578  0.00  0.00    +0.000 C 
ATOM      6  C   UNL     1       0.713   3.949  20.510  0.00  0.00    +0.000 C 
ATOM      7  C   UNL     1       2.067   4.663  20.609  0.00  0.00    +0.000 C 
ATOM      8  C   UNL     1       2.828   4.862  19.282  0.00  0.00    +0.000 C 
BRANCH   3  10
ATOM      9  C   UNL     1       3.752   1.202  18.133  0.00  0.00    +0.000 C 
ATOM     10  C   UNL     1       3.672   2.337  18.861  0.00  0.00    +0.000 C 
ATOM     11  C   UNL     1       4.513   2.435  20.102  0.00  0.00    +0.000 C 
ENDBRANCH   3  10
BRANCH   3  12
ATOM     12  O   UNL     1       3.331   3.823  17.101  0.00  0.00    +0.000 OA
ATOM     13  H   UNL     1       2.936   3.217  16.455  0.00  0.00    +0.000 HD
ENDBRANCH   3  12
ENDBRANCH   2   8
ENDBRANCH   1   2
BRANCH   1  14
ATOM     14  S   UNL     1       4.384   7.259  16.664  0.00  0.00    +0.000 S 
BRANCH  14  15
ATOM     15  C   UNL     1       5.898   6.830  17.569  0.00  0.00    +0.000 A 
ATOM     16  C   UNL     1       5.973   5.653  18.320  0.00  0.00    +0.000 A 
ATOM     17  C   UNL     1       7.112   5.343  19.075  0.00  0.00    +0.000 A 
ATOM     18  C   UNL     1       8.208   6.203  19.074  0.00  0.00    +0.000 A 
ATOM     19  C   UNL     1       8.169   7.359  18.300  0.00  0.00    +0.000 A 
ATOM     20  C   UNL     1       7.025   7.672  17.544  0.00  0.00    +0.000 A 
ENDBRANCH  14  15
ENDBRANCH   1  14
BRANCH   1  21
ATOM     21  S   UNL     1       1.880   8.703  17.697  0.00  0.00    +0.000 S 
BRANCH  21  22
ATOM     22  C   UNL     1       1.281   9.106  19.340  0.00  0.00    +0.000 A 
ATOM     23  C   UNL     1       1.663   8.305  20.424  0.00  0.00    +0.000 A 
ATOM     24  C   UNL     1       1.163   8.555  21.707  0.00  0.00    +0.000 A 
ATOM     25  C   UNL     1       0.281   9.614  21.916  0.00  0.00    +0.000 A 
ATOM     26  C   UNL     1      -0.083  10.432  20.852  0.00  0.00    +0.000 A 
ATOM     27  C   UNL     1       0.425  10.188  19.572  0.00  0.00    +0.000 A 
ENDBRANCH  21  22
ENDBRANCH   1  21
TORSDOF 8
ENDMDL
MODEL 2
REMARK VINA RESULT:      -7.3      0.731      1.514
REMARK  Name = 
REMARK  9 active torsions:
REMARK  status: ('A' for Active; 'I' for Inactive)
REMARK    1  A    between atoms: C_2  and  C_3
REMARK    2  A    between atoms: C_2  and  C_4
REMARK    3  A    between atoms: C_4  and  O_5
REMARK    4  A    between atoms: C_10  and  C_11
REMARK    5  A    between atoms: C_11  and  C_12
REMARK    6  A    between atoms: C_12  and  S_13
REMARK    7  A    between atoms: C_12  and  S_20
REMARK    8  A    between atoms: S_13  and  C_14
REMARK    9  A    between atoms: S_20  and  C_21
REMARK                            x       y       z     vdW  Elec       q    Type
REMARK                         _______ _______ _______ _____ _____    ______ ____
ROOT
ATOM      1  C   UNL     1       3.202   7.470  17.935  0.00  0.00    +0.000 C 
ENDROOT
BRANCH   1   2
ATOM      2  C   UNL     1       2.414   6.202  18.361  0.00  0.00    +0.000 C 
BRANCH   2   8
ATOM      3  C   UNL     1       2.901   3.661  18.398  0.00  0.00    +0.000 C 
ATOM      4  C   UNL     1       1.419   3.203  18.306  0.00  0.00    +0.000 C 
ATOM      5  C   UNL     1       0.836   2.924  19.682  0.00  0.00    +0.000 C 
ATOM      6  C   UNL     1       0.899   4.160  20.572  0.00  0.00    +0.000 C 
ATOM      7  C   UNL     1       2.257   4.873  20.593  0.00  0.00    +0.000 C 
ATOM      8  C   UNL     1       2.963   5.026  19.230  0.00  0.00    +0.000 C 
BRANCH   3  10
ATOM      9  C   UNL     1       4.603   2.597  19.928  0.00  0.00    +0.000 C 
ATOM     10  C   UNL     1       3.785   2.486  18.859  0.00  0.00    +0.000 C 
ATOM     11  C   UNL     1       3.708   1.153  18.171  0.00  0.00    +0.000 C 
ENDBRANCH   3  10
BRANCH   3  12
ATOM     12  O   UNL     1       3.376   3.915  17.066  0.00  0.00    +0.000 OA
ATOM     13  H   UNL     1       4.337   3.784  17.045  0.00  0.00    +0.000 HD
ENDBRANCH   3  12
ENDBRANCH   2   8
ENDBRANCH   1   2
BRANCH   1  14
ATOM     14  S   UNL     1       4.348   7.448  16.476  0.00  0.00    +0.000 S 
BRANCH  14  15
ATOM     15  C   UNL     1       5.673   6.355  17.062  0.00  0.00    +0.000 A 
ATOM     16  C   UNL     1       6.280   5.438  16.197  0.00  0.00    +0.000 A 
ATOM     17  C   UNL     1       7.258   4.545  16.653  0.00  0.00    +0.000 A 
ATOM     18  C   UNL     1       7.661   4.569  17.986  0.00  0.00    +0.000 A 
ATOM     19  C   UNL     1       7.100   5.501  18.853  0.00  0.00    +0.000 A 
ATOM     20  C   UNL     1       6.117   6.397  18.397  0.00  0.00    +0.000 A 
ENDBRANCH  14  15
ENDBRANCH   1  14
BRANCH   1  21
ATOM     21  S   UNL     1       1.932   8.860  17.738  0.00  0.00    +0.000 S 
BRANCH  21  22
ATOM     22  C   UNL     1       1.259   9.025  19.394  0.00  0.00    +0.000 A 
ATOM     23  C   UNL     1       0.203   9.918  19.618  0.00  0.00    +0.000 A 
ATOM     24  C   UNL     1      -0.302  10.116  20.908  0.00  0.00    +0.000 A 
ATOM     25  C   UNL     1       0.244   9.417  21.984  0.00  0.00    +0.000 A 
ATOM     26  C   UNL     1       1.274   8.508  21.768  0.00  0.00    +0.000 A 
ATOM     27  C   UNL     1       1.771   8.303  20.477  0.00  0.00    +0.000 A 
ENDBRANCH  21  22
ENDBRANCH   1  21
TORSDOF 8
ENDMDL
MODEL 3
REMARK VINA RESULT:      -7.3      1.056      1.702
REMARK  Name = 
REMARK  9 active torsions:
REMARK  status: ('A' for Active; 'I' for Inactive)
REMARK    1  A    between atoms: C_2  and  C_3
REMARK    2  A    between atoms: C_2  and  C_4
REMARK    3  A    between atoms: C_4  and  O_5
REMARK    4  A    between atoms: C_10  and  C_11
REMARK    5  A    between atoms: C_11  and  C_12
REMARK    6  A    between atoms: C_12  and  S_13
REMARK    7  A    between atoms: C_12  and  S_20
REMARK    8  A    between atoms: S_13  and  C_14
REMARK    9  A    between atoms: S_20  and  C_21
REMARK                            x       y       z     vdW  Elec       q    Type
REMARK                         _______ _______ _______ _____ _____    ______ ____
ROOT
ATOM      1  C   UNL     1       3.125   7.510  18.223  0.00  0.00    +0.000 C 
ENDROOT
BRANCH   1   2
ATOM      2  C   UNL     1       2.633   6.039  18.170  0.00  0.00    +0.000 C 
BRANCH   2   8
ATOM      3  C   UNL     1       2.883   3.471  18.366  0.00  0.00    +0.000 C 
ATOM      4  C   UNL     1       1.362   3.151  18.361  0.00  0.00    +0.000 C 
ATOM      5  C   UNL     1       0.816   3.020  19.774  0.00  0.00    +0.000 C 
ATOM      6  C   UNL     1       1.032   4.301  20.573  0.00  0.00    +0.000 C 
ATOM      7  C   UNL     1       2.450   4.881  20.494  0.00  0.00    +0.000 C 
ATOM      8  C   UNL     1       3.107   4.875  19.098  0.00  0.00    +0.000 C 
BRANCH   3  10
ATOM      9  C   UNL     1       3.720   1.099  18.169  0.00  0.00    +0.000 C 
ATOM     10  C   UNL     1       3.673   2.249  18.874  0.00  0.00    +0.000 C 
ATOM     11  C   UNL     1       4.474   2.328  20.142  0.00  0.00    +0.000 C 
ENDBRANCH   3  10
BRANCH   3  12
ATOM     12  O   UNL     1       3.320   3.590  17.002  0.00  0.00    +0.000 OA
ATOM     13  H   UNL     1       3.925   2.858  16.802  0.00  0.00    +0.000 HD
ENDBRANCH   3  12
ENDBRANCH   2   8
ENDBRANCH   1   2
BRANCH   1  14
ATOM     14  S   UNL     1       4.548   8.087  17.181  0.00  0.00    +0.000 S 
BRANCH  14  15
ATOM     15  C   UNL     1       5.397   6.525  16.815  0.00  0.00    +0.000 A 
ATOM     16  C   UNL     1       6.187   5.896  17.783  0.00  0.00    +0.000 A 
ATOM     17  C   UNL     1       6.899   4.725  17.493  0.00  0.00    +0.000 A 
ATOM     18  C   UNL     1       6.815   4.151  16.226  0.00  0.00    +0.000 A 
ATOM     19  C   UNL     1       6.003   4.739  15.261  0.00  0.00    +0.000 A 
ATOM     20  C   UNL     1       5.289   5.915  15.552  0.00  0.00    +0.000 A 
ENDBRANCH  14  15
ENDBRANCH   1  14
BRANCH   1  21
ATOM     21  S   UNL     1       1.611   8.603  17.911  0.00  0.00    +0.000 S 
BRANCH  21  22
ATOM     22  C   UNL     1       1.120   9.089  19.567  0.00  0.00    +0.000 A 
ATOM     23  C   UNL     1       0.461  10.311  19.756  0.00  0.00    +0.000 A 
ATOM     24  C   UNL     1       0.121  10.747  21.041  0.00  0.00    +0.000 A 
ATOM     25  C   UNL     1       0.434   9.960  22.149  0.00  0.00    +0.000 A 
ATOM     26  C   UNL     1       1.064   8.733  21.970  0.00  0.00    +0.000 A 
ATOM     27  C   UNL     1       1.394   8.293  20.684  0.00  0.00    +0.000 A 
ENDBRANCH  21  22
ENDBRANCH   1  21
TORSDOF 8
ENDMDL
MODEL 4
REMARK VINA RESULT:      -7.2      2.145      6.854
REMARK  Name = 
REMARK  9 active torsions:
REMARK  status: ('A' for Active; 'I' for Inactive)
REMARK    1  A    between atoms: C_2  and  C_3
REMARK    2  A    between atoms: C_2  and  C_4
REMARK    3  A    between atoms: C_4  and  O_5
REMARK    4  A    between atoms: C_10  and  C_11
REMARK    5  A    between atoms: C_11  and  C_12
REMARK    6  A    between atoms: C_12  and  S_13
REMARK    7  A    between atoms: C_12  and  S_20
REMARK    8  A    between atoms: S_13  and  C_14
REMARK    9  A    between atoms: S_20  and  C_21
REMARK                            x       y       z     vdW  Elec       q    Type
REMARK                         _______ _______ _______ _____ _____    ______ ____
ROOT
ATOM      1  C   UNL     1       2.220   6.516  20.063  0.00  0.00    +0.000 C 
ENDROOT
BRANCH   1   2
ATOM      2  C   UNL     1       1.786   7.938  20.510  0.00  0.00    +0.000 C 
BRANCH   2   8
ATOM      3  C   UNL     1       0.534  10.092  19.815  0.00  0.00    +0.000 C 
ATOM      4  C   UNL     1       1.001  10.957  21.019  0.00  0.00    +0.000 C 
ATOM      5  C   UNL     1      -0.024  10.944  22.143  0.00  0.00    +0.000 C 
ATOM      6  C   UNL     1      -0.282   9.527  22.643  0.00  0.00    +0.000 C 
ATOM      7  C   UNL     1      -0.537   8.490  21.543  0.00  0.00    +0.000 C 
ATOM      8  C   UNL     1       0.377   8.578  20.303  0.00  0.00    +0.000 C 
BRANCH   3  10
ATOM      9  C   UNL     1      -0.804  12.108  19.097  0.00  0.00    +0.000 C 
ATOM     10  C   UNL     1      -0.668  10.764  19.124  0.00  0.00    +0.000 C 
ATOM     11  C   UNL     1      -1.692   9.941  18.395  0.00  0.00    +0.000 C 
ENDBRANCH   3  10
BRANCH   3  12
ATOM     12  O   UNL     1       1.554  10.145  18.804  0.00  0.00    +0.000 OA
ATOM     13  H   UNL     1       1.754   9.241  18.512  0.00  0.00    +0.000 HD
ENDBRANCH   3  12
ENDBRANCH   2   8
ENDBRANCH   1   2
BRANCH   1  14
ATOM     14  S   UNL     1       1.186   5.026  20.455  0.00  0.00    +0.000 S 
BRANCH  14  15
ATOM     15  C   UNL     1       2.100   3.707  19.606  0.00  0.00    +0.000 A 
ATOM     16  C   UNL     1       3.251   3.152  20.176  0.00  0.00    +0.000 A 
ATOM     17  C   UNL     1       4.001   2.180  19.502  0.00  0.00    +0.000 A 
ATOM     18  C   UNL     1       3.597   1.730  18.246  0.00  0.00    +0.000 A 
ATOM     19  C   UNL     1       2.433   2.240  17.679  0.00  0.00    +0.000 A 
ATOM     20  C   UNL     1       1.681   3.217  18.355  0.00  0.00    +0.000 A 
ENDBRANCH  14  15
ENDBRANCH   1  14
BRANCH   1  21
ATOM     21  S   UNL     1       2.544   6.605  18.201  0.00  0.00    +0.000 S 
BRANCH  21  22
ATOM     22  C   UNL     1       4.172   5.865  18.041  0.00  0.00    +0.000 A 
ATOM     23  C   UNL     1       4.524   5.236  16.840  0.00  0.00    +0.000 A 
ATOM     24  C   UNL     1       5.761   4.595  16.706  0.00  0.00    +0.000 A 
ATOM     25  C   UNL     1       6.657   4.583  17.773  0.00  0.00    +0.000 A 
ATOM     26  C   UNL     1       6.328   5.227  18.961  0.00  0.00    +0.000 A 
ATOM     27  C   UNL     1       5.096   5.876  19.090  0.00  0.00    +0.000 A 
ENDBRANCH  21  22
ENDBRANCH   1  21
TORSDOF 8
ENDMDL
MODEL 5
REMARK VINA RESULT:      -7.1      2.137      6.818
REMARK  Name = 
REMARK  9 active torsions:
REMARK  status: ('A' for Active; 'I' for Inactive)
REMARK    1  A    between atoms: C_2  and  C_3
REMARK    2  A    between atoms: C_2  and  C_4
REMARK    3  A    between atoms: C_4  and  O_5
REMARK    4  A    between atoms: C_10  and  C_11
REMARK    5  A    between atoms: C_11  and  C_12
REMARK    6  A    between atoms: C_12  and  S_13
REMARK    7  A    between atoms: C_12  and  S_20
REMARK    8  A    between atoms: S_13  and  C_14
REMARK    9  A    between atoms: S_20  and  C_21
REMARK                            x       y       z     vdW  Elec       q    Type
REMARK                         _______ _______ _______ _____ _____    ______ ____
ROOT
ATOM      1  C   UNL     1       2.215   6.483  20.061  0.00  0.00    +0.000 C 
ENDROOT
BRANCH   1   2
ATOM      2  C   UNL     1       1.788   7.905  20.515  0.00  0.00    +0.000 C 
BRANCH   2   8
ATOM      3  C   UNL     1       0.557  10.061  19.788  0.00  0.00    +0.000 C 
ATOM      4  C   UNL     1       1.038  10.940  20.976  0.00  0.00    +0.000 C 
ATOM      5  C   UNL     1       0.017  10.959  22.103  0.00  0.00    +0.000 C 
ATOM      6  C   UNL     1      -0.254   9.553  22.628  0.00  0.00    +0.000 C 
ATOM      7  C   UNL     1      -0.526   8.500  21.546  0.00  0.00    +0.000 C 
ATOM      8  C   UNL     1       0.385   8.557  20.302  0.00  0.00    +0.000 C 
BRANCH   3  10
ATOM      9  C   UNL     1      -1.613  10.006  18.501  0.00  0.00    +0.000 C 
ATOM     10  C   UNL     1      -0.641  10.735  19.090  0.00  0.00    +0.000 C 
ATOM     11  C   UNL     1      -0.796  12.229  19.106  0.00  0.00    +0.000 C 
ENDBRANCH   3  10
BRANCH   3  12
ATOM     12  O   UNL     1       1.573  10.085  18.772  0.00  0.00    +0.000 OA
ATOM     13  H   UNL     1       1.147  10.132  17.902  0.00  0.00    +0.000 HD
ENDBRANCH   3  12
ENDBRANCH   2   8
ENDBRANCH   1   2
BRANCH   1  14
ATOM     14  S   UNL     1       1.167   4.998  20.437  0.00  0.00    +0.000 S 
BRANCH  14  15
ATOM     15  C   UNL     1       2.092   3.673  19.609  0.00  0.00    +0.000 A 
ATOM     16  C   UNL     1       3.238   3.126  20.194  0.00  0.00    +0.000 A 
ATOM     17  C   UNL     1       3.996   2.150  19.536  0.00  0.00    +0.000 A 
ATOM     18  C   UNL     1       3.605   1.688  18.280  0.00  0.00    +0.000 A 
ATOM     19  C   UNL     1       2.445   2.190  17.699  0.00  0.00    +0.000 A 
ATOM     20  C   UNL     1       1.685   3.171  18.359  0.00  0.00    +0.000 A 
ENDBRANCH  14  15
ENDBRANCH   1  14
BRANCH   1  21
ATOM     21  S   UNL     1       2.550   6.582  18.201  0.00  0.00    +0.000 S 
BRANCH  21  22
ATOM     22  C   UNL     1       4.154   5.791  18.042  0.00  0.00    +0.000 A 
ATOM     23  C   UNL     1       5.051   5.837  19.118  0.00  0.00    +0.000 A 
ATOM     24  C   UNL     1       6.332   5.285  19.002  0.00  0.00    +0.000 A 
ATOM     25  C   UNL     1       6.723   4.677  17.811  0.00  0.00    +0.000 A 
ATOM     26  C   UNL     1       5.831   4.602  16.746  0.00  0.00    +0.000 A 
ATOM     27  C   UNL     1       4.547   5.144  16.866  0.00  0.00    +0.000 A 
ENDBRANCH  21  22
ENDBRANCH   1  21
TORSDOF 8
ENDMDL
MODEL 6
REMARK VINA RESULT:      -7.1      2.151      6.834
REMARK  Name = 
REMARK  9 active torsions:
REMARK  status: ('A' for Active; 'I' for Inactive)
REMARK    1  A    between atoms: C_2  and  C_3
REMARK    2  A    between atoms: C_2  and  C_4
REMARK    3  A    between atoms: C_4  and  O_5
REMARK    4  A    between atoms: C_10  and  C_11
REMARK    5  A    between atoms: C_11  and  C_12
REMARK    6  A    between atoms: C_12  and  S_13
REMARK    7  A    between atoms: C_12  and  S_20
REMARK    8  A    between atoms: S_13  and  C_14
REMARK    9  A    between atoms: S_20  and  C_21
REMARK                            x       y       z     vdW  Elec       q    Type
REMARK                         _______ _______ _______ _____ _____    ______ ____
ROOT
ATOM      1  C   UNL     1       2.209   6.532  20.083  0.00  0.00    +0.000 C 
ENDROOT
BRANCH   1   2
ATOM      2  C   UNL     1       1.752   7.934  20.569  0.00  0.00    +0.000 C 
BRANCH   2   8
ATOM      3  C   UNL     1       0.442  10.075  19.941  0.00  0.00    +0.000 C 
ATOM      4  C   UNL     1       0.911  10.923  21.156  0.00  0.00    +0.000 C 
ATOM      5  C   UNL     1      -0.094  10.865  22.296  0.00  0.00    +0.000 C 
ATOM      6  C   UNL     1      -0.313   9.433  22.770  0.00  0.00    +0.000 C 
ATOM      7  C   UNL     1      -0.566   8.414  21.651  0.00  0.00    +0.000 C 
ATOM      8  C   UNL     1       0.325   8.547  20.399  0.00  0.00    +0.000 C 
BRANCH   3  10
ATOM      9  C   UNL     1      -1.607  10.040  18.469  0.00  0.00    +0.000 C 
ATOM     10  C   UNL     1      -0.786  10.735  19.285  0.00  0.00    +0.000 C 
ATOM     11  C   UNL     1      -1.145  12.161  19.591  0.00  0.00    +0.000 C 
ENDBRANCH   3  10
BRANCH   3  12
ATOM     12  O   UNL     1       1.443  10.171  18.915  0.00  0.00    +0.000 OA
ATOM     13  H   UNL     1       1.588  11.106  18.703  0.00  0.00    +0.000 HD
ENDBRANCH   3  12
ENDBRANCH   2   8
ENDBRANCH   1   2
BRANCH   1  14
ATOM     14  S   UNL     1       1.186   5.019  20.409  0.00  0.00    +0.000 S 
BRANCH  14  15
ATOM     15  C   UNL     1       2.148   3.732  19.565  0.00  0.00    +0.000 A 
ATOM     16  C   UNL     1       1.750   3.243  18.317  0.00  0.00    +0.000 A 
ATOM     17  C   UNL     1       2.447   2.205  17.686  0.00  0.00    +0.000 A 
ATOM     18  C   UNL     1       3.574   1.650  18.289  0.00  0.00    +0.000 A 
ATOM     19  C   UNL     1       4.011   2.150  19.512  0.00  0.00    +0.000 A 
ATOM     20  C   UNL     1       3.310   3.191  20.146  0.00  0.00    +0.000 A 
ENDBRANCH  14  15
ENDBRANCH   1  14
BRANCH   1  21
ATOM     21  S   UNL     1       2.560   6.686  18.229  0.00  0.00    +0.000 S 
BRANCH  21  22
ATOM     22  C   UNL     1       4.173   5.915  18.063  0.00  0.00    +0.000 A 
ATOM     23  C   UNL     1       4.502   5.266  16.865  0.00  0.00    +0.000 A 
ATOM     24  C   UNL     1       5.725   4.602  16.727  0.00  0.00    +0.000 A 
ATOM     25  C   UNL     1       6.633   4.587  17.785  0.00  0.00    +0.000 A 
ATOM     26  C   UNL     1       6.327   5.251  18.968  0.00  0.00    +0.000 A 
ATOM     27  C   UNL     1       5.108   5.923  19.102  0.00  0.00    +0.000 A 
ENDBRANCH  21  22
ENDBRANCH   1  21
TORSDOF 8
ENDMDL
MODEL 7
REMARK VINA RESULT:      -7.1      1.234      5.500
REMARK  Name = 
REMARK  9 active torsions:
REMARK  status: ('A' for Active; 'I' for Inactive)
REMARK    1  A    between atoms: C_2  and  C_3
REMARK    2  A    between atoms: C_2  and  C_4
REMARK    3  A    between atoms: C_4  and  O_5
REMARK    4  A    between atoms: C_10  and  C_11
REMARK    5  A    between atoms: C_11  and  C_12
REMARK    6  A    between atoms: C_12  and  S_13
REMARK    7  A    between atoms: C_12  and  S_20
REMARK    8  A    between atoms: S_13  and  C_14
REMARK    9  A    between atoms: S_20  and  C_21
REMARK                            x       y       z     vdW  Elec       q    Type
REMARK                         _______ _______ _______ _____ _____    ______ ____
ROOT
ATOM      1  C   UNL     1       2.928   7.340  17.585  0.00  0.00    +0.000 C 
ENDROOT
BRANCH   1   2
ATOM      2  C   UNL     1       2.175   6.175  18.283  0.00  0.00    +0.000 C 
BRANCH   2   8
ATOM      3  C   UNL     1       2.718   3.645  18.332  0.00  0.00    +0.000 C 
ATOM      4  C   UNL     1       1.244   3.156  18.387  0.00  0.00    +0.000 C 
ATOM      5  C   UNL     1       0.796   2.900  19.818  0.00  0.00    +0.000 C 
ATOM      6  C   UNL     1       0.915   4.158  20.670  0.00  0.00    +0.000 C 
ATOM      7  C   UNL     1       2.253   4.898  20.549  0.00  0.00    +0.000 C 
ATOM      8  C   UNL     1       2.827   5.031  19.123  0.00  0.00    +0.000 C 
BRANCH   3  10
ATOM      9  C   UNL     1       3.654   1.315  18.084  0.00  0.00    +0.000 C 
ATOM     10  C   UNL     1       3.665   2.499  18.735  0.00  0.00    +0.000 C 
ATOM     11  C   UNL     1       4.682   2.691  19.824  0.00  0.00    +0.000 C 
ENDBRANCH   3  10
BRANCH   3  12
ATOM     12  O   UNL     1       3.062   3.875  16.955  0.00  0.00    +0.000 OA
ATOM     13  H   UNL     1       3.787   4.519  16.916  0.00  0.00    +0.000 HD
ENDBRANCH   3  12
ENDBRANCH   2   8
ENDBRANCH   1   2
BRANCH   1  14
ATOM     14  S   UNL     1       2.283   9.079  17.651  0.00  0.00    +0.000 S 
BRANCH  14  15
ATOM     15  C   UNL     1       1.365   9.074  19.217  0.00  0.00    +0.000 A 
ATOM     16  C   UNL     1       1.827   8.344  20.316  0.00  0.00    +0.000 A 
ATOM     17  C   UNL     1       1.094   8.280  21.508  0.00  0.00    +0.000 A 
ATOM     18  C   UNL     1      -0.112   8.968  21.626  0.00  0.00    +0.000 A 
ATOM     19  C   UNL     1      -0.569   9.734  20.558  0.00  0.00    +0.000 A 
ATOM     20  C   UNL     1       0.165   9.796  19.361  0.00  0.00    +0.000 A 
ENDBRANCH  14  15
ENDBRANCH   1  14
BRANCH   1  21
ATOM     21  S   UNL     1       4.713   7.289  18.212  0.00  0.00    +0.000 S 
BRANCH  21  22
ATOM     22  C   UNL     1       5.506   6.154  17.069  0.00  0.00    +0.000 A 
ATOM     23  C   UNL     1       5.174   6.208  15.708  0.00  0.00    +0.000 A 
ATOM     24  C   UNL     1       5.727   5.296  14.803  0.00  0.00    +0.000 A 
ATOM     25  C   UNL     1       6.621   4.325  15.251  0.00  0.00    +0.000 A 
ATOM     26  C   UNL     1       6.978   4.280  16.595  0.00  0.00    +0.000 A 
ATOM     27  C   UNL     1       6.433   5.198  17.497  0.00  0.00    +0.000 A 
ENDBRANCH  21  22
ENDBRANCH   1  21
TORSDOF 8
ENDMDL
MODEL 8
REMARK VINA RESULT:      -7.1      1.832      4.748
REMARK  Name = 
REMARK  9 active torsions:
REMARK  status: ('A' for Active; 'I' for Inactive)
REMARK    1  A    between atoms: C_2  and  C_3
REMARK    2  A    between atoms: C_2  and  C_4
REMARK    3  A    between atoms: C_4  and  O_5
REMARK    4  A    between atoms: C_10  and  C_11
REMARK    5  A    between atoms: C_11  and  C_12
REMARK    6  A    between atoms: C_12  and  S_13
REMARK    7  A    between atoms: C_12  and  S_20
REMARK    8  A    between atoms: S_13  and  C_14
REMARK    9  A    between atoms: S_20  and  C_21
REMARK                            x       y       z     vdW  Elec       q    Type
REMARK                         _______ _______ _______ _____ _____    ______ ____
ROOT
ATOM      1  C   UNL     1       2.163   7.212  18.438  0.00  0.00    +0.000 C 
ENDROOT
BRANCH   1   2
ATOM      2  C   UNL     1       3.175   6.420  17.568  0.00  0.00    +0.000 C 
BRANCH   2   8
ATOM      3  C   UNL     1       5.708   6.137  17.123  0.00  0.00    +0.000 C 
ATOM      4  C   UNL     1       5.560   5.379  15.775  0.00  0.00    +0.000 C 
ATOM      5  C   UNL     1       5.615   3.873  15.974  0.00  0.00    +0.000 C 
ATOM      6  C   UNL     1       4.512   3.397  16.912  0.00  0.00    +0.000 C 
ATOM      7  C   UNL     1       4.375   4.203  18.211  0.00  0.00    +0.000 C 
ATOM      8  C   UNL     1       4.484   5.735  18.072  0.00  0.00    +0.000 C 
BRANCH   3  10
ATOM      9  C   UNL     1       7.847   7.016  18.133  0.00  0.00    +0.000 C 
ATOM     10  C   UNL     1       7.139   5.964  17.667  0.00  0.00    +0.000 C 
ATOM     11  C   UNL     1       7.765   4.602  17.760  0.00  0.00    +0.000 C 
ENDBRANCH   3  10
BRANCH   3  12
ATOM     12  O   UNL     1       5.636   7.547  16.855  0.00  0.00    +0.000 OA
ATOM     13  H   UNL     1       5.003   7.952  17.469  0.00  0.00    +0.000 HD
ENDBRANCH   3  12
ENDBRANCH   2   8
ENDBRANCH   1   2
BRANCH   1  14
ATOM     14  S   UNL     1       2.097   6.992  20.279  0.00  0.00    +0.000 S 
BRANCH  14  15
ATOM     15  C   UNL     1       1.835   5.202  20.430  0.00  0.00    +0.000 A 
ATOM     16  C   UNL     1       2.471   4.468  21.435  0.00  0.00    +0.000 A 
ATOM     17  C   UNL     1       2.328   3.077  21.522  0.00  0.00    +0.000 A 
ATOM     18  C   UNL     1       1.524   2.397  20.609  0.00  0.00    +0.000 A 
ATOM     19  C   UNL     1       0.850   3.115  19.626  0.00  0.00    +0.000 A 
ATOM     20  C   UNL     1       0.995   4.511  19.537  0.00  0.00    +0.000 A 
ENDBRANCH  14  15
ENDBRANCH   1  14
BRANCH   1  21
ATOM     21  S   UNL     1       2.396   9.042  18.015  0.00  0.00    +0.000 S 
BRANCH  21  22
ATOM     22  C   UNL     1       0.871   9.786  18.603  0.00  0.00    +0.000 A 
ATOM     23  C   UNL     1      -0.284   9.695  17.816  0.00  0.00    +0.000 A 
ATOM     24  C   UNL     1      -1.471  10.318  18.217  0.00  0.00    +0.000 A 
ATOM     25  C   UNL     1      -1.513  11.033  19.413  0.00  0.00    +0.000 A 
ATOM     26  C   UNL     1      -0.379  11.107  20.215  0.00  0.00    +0.000 A 
ATOM     27  C   UNL     1       0.804  10.475  19.819  0.00  0.00    +0.000 A 
ENDBRANCH  21  22
ENDBRANCH   1  21
TORSDOF 8
ENDMDL
MODEL 9
REMARK VINA RESULT:      -7.0      1.244      5.588
REMARK  Name = 
REMARK  9 active torsions:
REMARK  status: ('A' for Active; 'I' for Inactive)
REMARK    1  A    between atoms: C_2  and  C_3
REMARK    2  A    between atoms: C_2  and  C_4
REMARK    3  A    between atoms: C_4  and  O_5
REMARK    4  A    between atoms: C_10  and  C_11
REMARK    5  A    between atoms: C_11  and  C_12
REMARK    6  A    between atoms: C_12  and  S_13
REMARK    7  A    between atoms: C_12  and  S_20
REMARK    8  A    between atoms: S_13  and  C_14
REMARK    9  A    between atoms: S_20  and  C_21
REMARK                            x       y       z     vdW  Elec       q    Type
REMARK                         _______ _______ _______ _____ _____    ______ ____
ROOT
ATOM      1  C   UNL     1       2.983   7.320  17.596  0.00  0.00    +0.000 C 
ENDROOT
BRANCH   1   2
ATOM      2  C   UNL     1       2.229   6.160  18.300  0.00  0.00    +0.000 C 
BRANCH   2   8
ATOM      3  C   UNL     1       2.808   3.640  18.379  0.00  0.00    +0.000 C 
ATOM      4  C   UNL     1       1.340   3.129  18.399  0.00  0.00    +0.000 C 
ATOM      5  C   UNL     1       0.860   2.874  19.820  0.00  0.00    +0.000 C 
ATOM      6  C   UNL     1       0.937   4.139  20.667  0.00  0.00    +0.000 C 
ATOM      7  C   UNL     1       2.267   4.898  20.575  0.00  0.00    +0.000 C 
ATOM      8  C   UNL     1       2.876   5.031  19.164  0.00  0.00    +0.000 C 
BRANCH   3  10
ATOM      9  C   UNL     1       4.599   2.661  19.862  0.00  0.00    +0.000 C 
ATOM     10  C   UNL     1       3.762   2.510  18.813  0.00  0.00    +0.000 C 
ATOM     11  C   UNL     1       3.737   1.177  18.122  0.00  0.00    +0.000 C 
ENDBRANCH   3  10
BRANCH   3  12
ATOM     12  O   UNL     1       3.184   3.867  17.010  0.00  0.00    +0.000 OA
ATOM     13  H   UNL     1       3.152   3.024  16.531  0.00  0.00    +0.000 HD
ENDBRANCH   3  12
ENDBRANCH   2   8
ENDBRANCH   1   2
BRANCH   1  14
ATOM     14  S   UNL     1       2.347   9.062  17.660  0.00  0.00    +0.000 S 
BRANCH  14  15
ATOM     15  C   UNL     1       1.370   9.043  19.189  0.00  0.00    +0.000 A 
ATOM     16  C   UNL     1       0.182   9.776  19.288  0.00  0.00    +0.000 A 
ATOM     17  C   UNL     1      -0.546   9.822  20.484  0.00  0.00    +0.000 A 
ATOM     18  C   UNL     1      -0.106   9.114  21.600  0.00  0.00    +0.000 A 
ATOM     19  C   UNL     1       1.051   8.346  21.510  0.00  0.00    +0.000 A 
ATOM     20  C   UNL     1       1.784   8.302  20.311  0.00  0.00    +0.000 A 
ENDBRANCH  14  15
ENDBRANCH   1  14
BRANCH   1  21
ATOM     21  S   UNL     1       4.771   7.262  18.216  0.00  0.00    +0.000 S 
BRANCH  21  22
ATOM     22  C   UNL     1       5.563   6.150  17.050  0.00  0.00    +0.000 A 
ATOM     23  C   UNL     1       5.185   6.188  15.701  0.00  0.00    +0.000 A 
ATOM     24  C   UNL     1       5.738   5.292  14.780  0.00  0.00    +0.000 A 
ATOM     25  C   UNL     1       6.678   4.353  15.201  0.00  0.00    +0.000 A 
ATOM     26  C   UNL     1       7.080   4.324  16.533  0.00  0.00    +0.000 A 
ATOM     27  C   UNL     1       6.534   5.227  17.451  0.00  0.00    +0.000 A 
ENDBRANCH  21  22
ENDBRANCH   1  21
TORSDOF 8
ENDMDL
