MODEL 1
REMARK VINA RESULT:      -8.0      0.000      0.000
REMARK  Name = 
REMARK  9 active torsions:
REMARK  status: ('A' for Active; 'I' for Inactive)
REMARK    1  A    between atoms: C_1  and  O_2
REMARK    2  A    between atoms: O_2  and  C_3
REMARK    3  A    between atoms: C_3  and  O_4
REMARK    4  A    between atoms: O_4  and  C_5
REMARK    5  A    between atoms: C_9  and  C_10
REMARK    6  A    between atoms: C_10  and  C_11
REMARK    7  A    between atoms: C_17  and  O_18
REMARK    8  A    between atoms: O_18  and  C_19
REMARK    9  A    between atoms: C_19  and  C_20
REMARK                            x       y       z     vdW  Elec       q    Type
REMARK                         _______ _______ _______ _____ _____    ______ ____
ROOT
ATOM      1  C   UNL     1       1.470   7.124  20.252  0.00  0.00    +0.000 C 
ATOM      2  C   UNL     1       1.495   5.891  21.162  0.00  0.00    +0.000 C 
ATOM      3  C   UNL     1       1.470   4.801  20.145  0.00  0.00    +0.000 A 
ATOM      4  C   UNL     1       0.845   3.572  20.233  0.00  0.00    +0.000 A 
ATOM      5  C   UNL     1       0.931   2.721  19.131  0.00  0.00    +0.000 A 
ATOM      6  C   UNL     1       1.733   3.063  18.025  0.00  0.00    +0.000 A 
ATOM      7  C   UNL     1       2.420   4.280  17.974  0.00  0.00    +0.000 A 
ATOM      8  C   UNL     1       2.172   5.179  18.995  0.00  0.00    +0.000 A 
ATOM      9  C   UNL     1       2.335   6.643  19.086  0.00  0.00    +0.000 C 
ATOM     10  O   UNL     1       2.935   7.344  18.297  0.00  0.00    +0.000 OA
ENDROOT
BRANCH   1  11
ATOM     11  C   UNL     1       1.915   8.382  20.986  0.00  0.00    +0.000 C 
BRANCH  11  16
ATOM     12  C   UNL     1      -0.797  11.088  20.740  0.00  0.00    +0.000 A 
ATOM     13  C   UNL     1      -1.240  11.115  22.062  0.00  0.00    +0.000 A 
ATOM     14  C   UNL     1      -0.697  10.252  23.013  0.00  0.00    +0.000 A 
ATOM     15  C   UNL     1       0.319   9.372  22.654  0.00  0.00    +0.000 A 
ATOM     16  C   UNL     1       0.798   9.343  21.337  0.00  0.00    +0.000 A 
ATOM     17  C   UNL     1       0.211  10.191  20.374  0.00  0.00    +0.000 A 
BRANCH  12  18
ATOM     18  O   UNL     1      -1.368  12.014  19.915  0.00  0.00    +0.000 OA
BRANCH  18  19
ATOM     19  C   UNL     1      -1.375  11.699  18.527  0.00  0.00    +0.000 C 
BRANCH  19  21
ATOM     20  C   UNL     1      -2.179   9.984  17.105  0.00  0.00    +0.000 C 
ATOM     21  O   UNL     1      -2.481  10.855  18.185  0.00  0.00    +0.000 OA
ENDBRANCH  19  21
ENDBRANCH  18  19
ENDBRANCH  12  18
ENDBRANCH  11  16
ENDBRANCH   1  11
BRANCH   7  22
ATOM     22  O   UNL     1       3.204   4.492  16.884  0.00  0.00    +0.000 OA
BRANCH  22  23
ATOM     23  C   UNL     1       4.531   3.942  16.994  0.00  0.00    +0.000 C 
BRANCH  23  24
ATOM     24  C   UNL     1       5.439   4.624  15.943  0.00  0.00    +0.000 C 
ATOM     25  C   UNL     1       5.259   6.151  15.933  0.00  0.00    +0.000 C 
ATOM     26  C   UNL     1       5.806   6.774  17.212  0.00  0.00    +0.000 C 
ATOM     27  C   UNL     1       7.299   6.497  17.340  0.00  0.00    +0.000 C 
ATOM     28  C   UNL     1       7.625   5.006  17.266  0.00  0.00    +0.000 C 
ATOM     29  C   UNL     1       6.931   4.278  16.109  0.00  0.00    +0.000 C 
ENDBRANCH  23  24
ENDBRANCH  22  23
ENDBRANCH   7  22
TORSDOF 8
ENDMDL
MODEL 2
REMARK VINA RESULT:      -8.0      2.226      8.477
REMARK  Name = 
REMARK  9 active torsions:
REMARK  status: ('A' for Active; 'I' for Inactive)
REMARK    1  A    between atoms: C_1  and  O_2
REMARK    2  A    between atoms: O_2  and  C_3
REMARK    3  A    between atoms: C_3  and  O_4
REMARK    4  A    between atoms: O_4  and  C_5
REMARK    5  A    between atoms: C_9  and  C_10
REMARK    6  A    between atoms: C_10  and  C_11
REMARK    7  A    between atoms: C_17  and  O_18
REMARK    8  A    between atoms: O_18  and  C_19
REMARK    9  A    between atoms: C_19  and  C_20
REMARK                            x       y       z     vdW  Elec       q    Type
REMARK                         _______ _______ _______ _____ _____    ______ ____
ROOT
ATOM      1  C   UNL     1       2.739   7.501  18.862  0.00  0.00    +0.000 C 
ATOM      2  C   UNL     1       1.882   7.051  20.051  0.00  0.00    +0.000 C 
ATOM      3  C   UNL     1       1.310   8.358  20.484  0.00  0.00    +0.000 A 
ATOM      4  C   UNL     1       1.030   8.778  21.770  0.00  0.00    +0.000 A 
ATOM      5  C   UNL     1       0.525  10.068  21.936  0.00  0.00    +0.000 A 
ATOM      6  C   UNL     1       0.200  10.857  20.815  0.00  0.00    +0.000 A 
ATOM      7  C   UNL     1       0.420  10.396  19.513  0.00  0.00    +0.000 A 
ATOM      8  C   UNL     1       1.088   9.192  19.382  0.00  0.00    +0.000 A 
ATOM      9  C   UNL     1       1.859   8.604  18.270  0.00  0.00    +0.000 C 
ATOM     10  O   UNL     1       1.888   9.013  17.127  0.00  0.00    +0.000 OA
ENDROOT
BRANCH   1  11
ATOM     11  C   UNL     1       3.110   6.334  17.955  0.00  0.00    +0.000 C 
BRANCH  11  16
ATOM     12  C   UNL     1       6.881   6.801  17.409  0.00  0.00    +0.000 A 
ATOM     13  C   UNL     1       7.323   5.494  17.610  0.00  0.00    +0.000 A 
ATOM     14  C   UNL     1       6.426   4.482  17.949  0.00  0.00    +0.000 A 
ATOM     15  C   UNL     1       5.068   4.765  18.060  0.00  0.00    +0.000 A 
ATOM     16  C   UNL     1       4.596   6.067  17.839  0.00  0.00    +0.000 A 
ATOM     17  C   UNL     1       5.520   7.091  17.539  0.00  0.00    +0.000 A 
BRANCH  12  18
ATOM     18  O   UNL     1       7.845   7.691  17.033  0.00  0.00    +0.000 OA
BRANCH  18  19
ATOM     19  C   UNL     1       7.812   8.961  17.675  0.00  0.00    +0.000 C 
BRANCH  19  21
ATOM     20  C   UNL     1       9.204  10.378  18.965  0.00  0.00    +0.000 C 
ATOM     21  O   UNL     1       8.779   9.044  18.728  0.00  0.00    +0.000 OA
ENDBRANCH  19  21
ENDBRANCH  18  19
ENDBRANCH  12  18
ENDBRANCH  11  16
ENDBRANCH   1  11
BRANCH   7  22
ATOM     22  O   UNL     1       0.028  11.215  18.502  0.00  0.00    +0.000 OA
BRANCH  22  23
ATOM     23  C   UNL     1      -1.370  11.566  18.534  0.00  0.00    +0.000 C 
BRANCH  23  24
ATOM     24  C   UNL     1      -2.203  10.318  18.158  0.00  0.00    +0.000 C 
ATOM     25  C   UNL     1      -3.710  10.556  18.346  0.00  0.00    +0.000 C 
ATOM     26  C   UNL     1      -4.237  11.555  17.321  0.00  0.00    +0.000 C 
ATOM     27  C   UNL     1      -4.036  11.020  15.908  0.00  0.00    +0.000 C 
ATOM     28  C   UNL     1      -2.581  10.649  15.624  0.00  0.00    +0.000 C 
ATOM     29  C   UNL     1      -1.931   9.810  16.729  0.00  0.00    +0.000 C 
ENDBRANCH  23  24
ENDBRANCH  22  23
ENDBRANCH   7  22
TORSDOF 8
ENDMDL
MODEL 3
REMARK VINA RESULT:      -7.9      1.497      2.033
REMARK  Name = 
REMARK  9 active torsions:
REMARK  status: ('A' for Active; 'I' for Inactive)
REMARK    1  A    between atoms: C_1  and  O_2
REMARK    2  A    between atoms: O_2  and  C_3
REMARK    3  A    between atoms: C_3  and  O_4
REMARK    4  A    between atoms: O_4  and  C_5
REMARK    5  A    between atoms: C_9  and  C_10
REMARK    6  A    between atoms: C_10  and  C_11
REMARK    7  A    between atoms: C_17  and  O_18
REMARK    8  A    between atoms: O_18  and  C_19
REMARK    9  A    between atoms: C_19  and  C_20
REMARK                            x       y       z     vdW  Elec       q    Type
REMARK                         _______ _______ _______ _____ _____    ______ ____
ROOT
ATOM      1  C   UNL     1       1.832   6.117  19.984  0.00  0.00    +0.000 C 
ATOM      2  C   UNL     1       1.353   4.865  20.729  0.00  0.00    +0.000 C 
ATOM      3  C   UNL     1       1.966   3.797  19.891  0.00  0.00    +0.000 A 
ATOM      4  C   UNL     1       1.448   2.552  19.588  0.00  0.00    +0.000 A 
ATOM      5  C   UNL     1       2.193   1.726  18.748  0.00  0.00    +0.000 A 
ATOM      6  C   UNL     1       3.483   2.109  18.329  0.00  0.00    +0.000 A 
ATOM      7  C   UNL     1       4.030   3.342  18.698  0.00  0.00    +0.000 A 
ATOM      8  C   UNL     1       3.200   4.214  19.378  0.00  0.00    +0.000 A 
ATOM      9  C   UNL     1       3.233   5.679  19.552  0.00  0.00    +0.000 C 
ATOM     10  O   UNL     1       4.161   6.410  19.272  0.00  0.00    +0.000 OA
ENDROOT
BRANCH   1  11
ATOM     11  C   UNL     1       1.719   7.369  20.844  0.00  0.00    +0.000 C 
BRANCH  11  16
ATOM     12  C   UNL     1      -0.295  10.526  19.999  0.00  0.00    +0.000 A 
ATOM     13  C   UNL     1       0.202  10.803  18.726  0.00  0.00    +0.000 A 
ATOM     14  C   UNL     1       1.197  10.005  18.160  0.00  0.00    +0.000 A 
ATOM     15  C   UNL     1       1.681   8.901  18.853  0.00  0.00    +0.000 A 
ATOM     16  C   UNL     1       1.179   8.587  20.125  0.00  0.00    +0.000 A 
ATOM     17  C   UNL     1       0.204   9.428  20.704  0.00  0.00    +0.000 A 
BRANCH  12  18
ATOM     18  O   UNL     1      -1.299  11.347  20.423  0.00  0.00    +0.000 OA
BRANCH  18  19
ATOM     19  C   UNL     1      -1.880  12.191  19.434  0.00  0.00    +0.000 C 
BRANCH  19  21
ATOM     20  C   UNL     1      -3.742  11.548  18.120  0.00  0.00    +0.000 C 
ATOM     21  O   UNL     1      -3.302  12.035  19.380  0.00  0.00    +0.000 OA
ENDBRANCH  19  21
ENDBRANCH  18  19
ENDBRANCH  12  18
ENDBRANCH  11  16
ENDBRANCH   1  11
BRANCH   7  22
ATOM     22  O   UNL     1       5.299   3.595  18.282  0.00  0.00    +0.000 OA
BRANCH  22  23
ATOM     23  C   UNL     1       5.386   4.173  16.965  0.00  0.00    +0.000 C 
BRANCH  23  24
ATOM     24  C   UNL     1       6.868   4.496  16.662  0.00  0.00    +0.000 C 
ATOM     25  C   UNL     1       7.026   5.847  15.944  0.00  0.00    +0.000 C 
ATOM     26  C   UNL     1       6.678   7.003  16.874  0.00  0.00    +0.000 C 
ATOM     27  C   UNL     1       7.616   7.018  18.075  0.00  0.00    +0.000 C 
ATOM     28  C   UNL     1       7.626   5.687  18.826  0.00  0.00    +0.000 C 
ATOM     29  C   UNL     1       7.767   4.464  17.913  0.00  0.00    +0.000 C 
ENDBRANCH  23  24
ENDBRANCH  22  23
ENDBRANCH   7  22
TORSDOF 8
ENDMDL
MODEL 4
REMARK VINA RESULT:      -7.9      0.918      1.030
REMARK  Name = 
REMARK  9 active torsions:
REMARK  status: ('A' for Active; 'I' for Inactive)
REMARK    1  A    between atoms: C_1  and  O_2
REMARK    2  A    between atoms: O_2  and  C_3
REMARK    3  A    between atoms: C_3  and  O_4
REMARK    4  A    between atoms: O_4  and  C_5
REMARK    5  A    between atoms: C_9  and  C_10
REMARK    6  A    between atoms: C_10  and  C_11
REMARK    7  A    between atoms: C_17  and  O_18
REMARK    8  A    between atoms: O_18  and  C_19
REMARK    9  A    between atoms: C_19  and  C_20
REMARK                            x       y       z     vdW  Elec       q    Type
REMARK                         _______ _______ _______ _____ _____    ______ ____
ROOT
ATOM      1  C   UNL     1       1.462   6.577  20.198  0.00  0.00    +0.000 C 
ATOM      2  C   UNL     1       1.260   5.283  20.995  0.00  0.00    +0.000 C 
ATOM      3  C   UNL     1       1.432   4.268  19.917  0.00  0.00    +0.000 A 
ATOM      4  C   UNL     1       0.775   3.061  19.773  0.00  0.00    +0.000 A 
ATOM      5  C   UNL     1       1.081   2.286  18.655  0.00  0.00    +0.000 A 
ATOM      6  C   UNL     1       2.112   2.672  17.777  0.00  0.00    +0.000 A 
ATOM      7  C   UNL     1       2.822   3.862  17.969  0.00  0.00    +0.000 A 
ATOM      8  C   UNL     1       2.377   4.698  18.978  0.00  0.00    +0.000 A 
ATOM      9  C   UNL     1       2.550   6.144  19.213  0.00  0.00    +0.000 C 
ATOM     10  O   UNL     1       3.324   6.874  18.629  0.00  0.00    +0.000 OA
ENDROOT
BRANCH   1  11
ATOM     11  C   UNL     1       1.765   7.762  21.105  0.00  0.00    +0.000 C 
BRANCH  11  16
ATOM     12  C   UNL     1      -0.252  10.603  19.493  0.00  0.00    +0.000 A 
ATOM     13  C   UNL     1      -0.801  11.192  20.631  0.00  0.00    +0.000 A 
ATOM     14  C   UNL     1      -0.554  10.664  21.897  0.00  0.00    +0.000 A 
ATOM     15  C   UNL     1       0.274   9.555  22.038  0.00  0.00    +0.000 A 
ATOM     16  C   UNL     1       0.858   8.959  20.911  0.00  0.00    +0.000 A 
ATOM     17  C   UNL     1       0.565   9.477  19.632  0.00  0.00    +0.000 A 
BRANCH  12  18
ATOM     18  O   UNL     1      -0.525  11.240  18.317  0.00  0.00    +0.000 OA
BRANCH  18  19
ATOM     19  C   UNL     1      -1.671  12.085  18.312  0.00  0.00    +0.000 C 
BRANCH  19  21
ATOM     20  C   UNL     1      -3.997  11.648  18.238  0.00  0.00    +0.000 C 
ATOM     21  O   UNL     1      -2.750  11.502  17.574  0.00  0.00    +0.000 OA
ENDBRANCH  19  21
ENDBRANCH  18  19
ENDBRANCH  12  18
ENDBRANCH  11  16
ENDBRANCH   1  11
BRANCH   7  22
ATOM     22  O   UNL     1       3.829   4.119  17.094  0.00  0.00    +0.000 OA
BRANCH  22  23
ATOM     23  C   UNL     1       5.149   3.990  17.657  0.00  0.00    +0.000 C 
BRANCH  23  24
ATOM     24  C   UNL     1       6.184   4.470  16.612  0.00  0.00    +0.000 C 
ATOM     25  C   UNL     1       5.748   5.778  15.932  0.00  0.00    +0.000 C 
ATOM     26  C   UNL     1       5.789   6.944  16.913  0.00  0.00    +0.000 C 
ATOM     27  C   UNL     1       7.208   7.154  17.427  0.00  0.00    +0.000 C 
ATOM     28  C   UNL     1       7.800   5.888  18.045  0.00  0.00    +0.000 C 
ATOM     29  C   UNL     1       7.604   4.632  17.188  0.00  0.00    +0.000 C 
ENDBRANCH  23  24
ENDBRANCH  22  23
ENDBRANCH   7  22
TORSDOF 8
ENDMDL
MODEL 5
REMARK VINA RESULT:      -7.8      1.284      2.438
REMARK  Name = 
REMARK  9 active torsions:
REMARK  status: ('A' for Active; 'I' for Inactive)
REMARK    1  A    between atoms: C_1  and  O_2
REMARK    2  A    between atoms: O_2  and  C_3
REMARK    3  A    between atoms: C_3  and  O_4
REMARK    4  A    between atoms: O_4  and  C_5
REMARK    5  A    between atoms: C_9  and  C_10
REMARK    6  A    between atoms: C_10  and  C_11
REMARK    7  A    between atoms: C_17  and  O_18
REMARK    8  A    between atoms: O_18  and  C_19
REMARK    9  A    between atoms: C_19  and  C_20
REMARK                            x       y       z     vdW  Elec       q    Type
REMARK                         _______ _______ _______ _____ _____    ______ ____
ROOT
ATOM      1  C   UNL     1       1.421   6.574  20.044  0.00  0.00    +0.000 C 
ATOM      2  C   UNL     1       1.184   5.324  20.900  0.00  0.00    +0.000 C 
ATOM      3  C   UNL     1       1.421   4.254  19.890  0.00  0.00    +0.000 A 
ATOM      4  C   UNL     1       0.780   3.035  19.778  0.00  0.00    +0.000 A 
ATOM      5  C   UNL     1       1.150   2.202  18.722  0.00  0.00    +0.000 A 
ATOM      6  C   UNL     1       2.225   2.550  17.880  0.00  0.00    +0.000 A 
ATOM      7  C   UNL     1       2.916   3.755  18.044  0.00  0.00    +0.000 A 
ATOM      8  C   UNL     1       2.412   4.640  18.980  0.00  0.00    +0.000 A 
ATOM      9  C   UNL     1       2.563   6.098  19.144  0.00  0.00    +0.000 C 
ATOM     10  O   UNL     1       3.363   6.802  18.563  0.00  0.00    +0.000 OA
ENDROOT
BRANCH   1  11
ATOM     11  C   UNL     1       1.668   7.810  20.900  0.00  0.00    +0.000 C 
BRANCH  11  16
ATOM     12  C   UNL     1      -0.651  10.869  20.902  0.00  0.00    +0.000 A 
ATOM     13  C   UNL     1      -0.491  11.302  19.586  0.00  0.00    +0.000 A 
ATOM     14  C   UNL     1       0.378  10.639  18.719  0.00  0.00    +0.000 A 
ATOM     15  C   UNL     1       1.071   9.515  19.154  0.00  0.00    +0.000 A 
ATOM     16  C   UNL     1       0.908   9.046  20.466  0.00  0.00    +0.000 A 
ATOM     17  C   UNL     1       0.059   9.751  21.346  0.00  0.00    +0.000 A 
BRANCH  12  18
ATOM     18  O   UNL     1      -1.565  11.568  21.637  0.00  0.00    +0.000 OA
BRANCH  18  19
ATOM     19  C   UNL     1      -1.111  12.071  22.889  0.00  0.00    +0.000 C 
BRANCH  19  21
ATOM     20  C   UNL     1      -1.254  14.292  23.696  0.00  0.00    +0.000 C 
ATOM     21  O   UNL     1      -0.628  13.413  22.773  0.00  0.00    +0.000 OA
ENDBRANCH  19  21
ENDBRANCH  18  19
ENDBRANCH  12  18
ENDBRANCH  11  16
ENDBRANCH   1  11
BRANCH   7  22
ATOM     22  O   UNL     1       3.967   3.972  17.211  0.00  0.00    +0.000 OA
BRANCH  22  23
ATOM     23  C   UNL     1       5.249   3.992  17.869  0.00  0.00    +0.000 C 
BRANCH  23  24
ATOM     24  C   UNL     1       6.327   4.409  16.842  0.00  0.00    +0.000 C 
ATOM     25  C   UNL     1       5.892   5.632  16.016  0.00  0.00    +0.000 C 
ATOM     26  C   UNL     1       5.840   6.885  16.882  0.00  0.00    +0.000 C 
ATOM     27  C   UNL     1       7.219   7.193  17.452  0.00  0.00    +0.000 C 
ATOM     28  C   UNL     1       7.812   6.013  18.220  0.00  0.00    +0.000 C 
ATOM     29  C   UNL     1       7.705   4.676  17.477  0.00  0.00    +0.000 C 
ENDBRANCH  23  24
ENDBRANCH  22  23
ENDBRANCH   7  22
TORSDOF 8
ENDMDL
MODEL 6
REMARK VINA RESULT:      -7.8      1.519      2.112
REMARK  Name = 
REMARK  9 active torsions:
REMARK  status: ('A' for Active; 'I' for Inactive)
REMARK    1  A    between atoms: C_1  and  O_2
REMARK    2  A    between atoms: O_2  and  C_3
REMARK    3  A    between atoms: C_3  and  O_4
REMARK    4  A    between atoms: O_4  and  C_5
REMARK    5  A    between atoms: C_9  and  C_10
REMARK    6  A    between atoms: C_10  and  C_11
REMARK    7  A    between atoms: C_17  and  O_18
REMARK    8  A    between atoms: O_18  and  C_19
REMARK    9  A    between atoms: C_19  and  C_20
REMARK                            x       y       z     vdW  Elec       q    Type
REMARK                         _______ _______ _______ _____ _____    ______ ____
ROOT
ATOM      1  C   UNL     1       1.385   8.768  18.954  0.00  0.00    +0.000 C 
ATOM      2  C   UNL     1       1.683   8.237  20.361  0.00  0.00    +0.000 C 
ATOM      3  C   UNL     1       1.869   6.787  20.072  0.00  0.00    +0.000 A 
ATOM      4  C   UNL     1       1.516   5.711  20.863  0.00  0.00    +0.000 A 
ATOM      5  C   UNL     1       1.760   4.431  20.364  0.00  0.00    +0.000 A 
ATOM      6  C   UNL     1       2.453   4.257  19.151  0.00  0.00    +0.000 A 
ATOM      7  C   UNL     1       2.869   5.353  18.388  0.00  0.00    +0.000 A 
ATOM      8  C   UNL     1       2.456   6.603  18.814  0.00  0.00    +0.000 A 
ATOM      9  C   UNL     1       2.311   7.891  18.110  0.00  0.00    +0.000 C 
ATOM     10  O   UNL     1       2.738   8.150  17.003  0.00  0.00    +0.000 OA
ENDROOT
BRANCH   1  11
ATOM     11  C   UNL     1       1.570  10.277  18.864  0.00  0.00    +0.000 C 
BRANCH  11  16
ATOM     12  C   UNL     1      -2.055  11.539  18.918  0.00  0.00    +0.000 A 
ATOM     13  C   UNL     1      -1.917  12.653  19.745  0.00  0.00    +0.000 A 
ATOM     14  C   UNL     1      -0.681  12.975  20.306  0.00  0.00    +0.000 A 
ATOM     15  C   UNL     1       0.437  12.200  20.017  0.00  0.00    +0.000 A 
ATOM     16  C   UNL     1       0.328  11.089  19.168  0.00  0.00    +0.000 A 
ATOM     17  C   UNL     1      -0.937  10.749  18.642  0.00  0.00    +0.000 A 
BRANCH  12  18
ATOM     18  O   UNL     1      -3.301  11.357  18.390  0.00  0.00    +0.000 OA
BRANCH  18  19
ATOM     19  C   UNL     1      -3.458  10.239  17.522  0.00  0.00    +0.000 C 
BRANCH  19  21
ATOM     20  C   UNL     1      -2.924  10.614  15.245  0.00  0.00    +0.000 C 
ATOM     21  O   UNL     1      -3.942  10.638  16.235  0.00  0.00    +0.000 OA
ENDBRANCH  19  21
ENDBRANCH  18  19
ENDBRANCH  12  18
ENDBRANCH  11  16
ENDBRANCH   1  11
BRANCH   7  22
ATOM     22  O   UNL     1       3.572   5.078  17.258  0.00  0.00    +0.000 OA
BRANCH  22  23
ATOM     23  C   UNL     1       4.743   4.267  17.473  0.00  0.00    +0.000 C 
BRANCH  23  24
ATOM     24  C   UNL     1       5.850   4.725  16.494  0.00  0.00    +0.000 C 
ATOM     25  C   UNL     1       5.700   6.206  16.110  0.00  0.00    +0.000 C 
ATOM     26  C   UNL     1       5.996   7.111  17.300  0.00  0.00    +0.000 C 
ATOM     27  C   UNL     1       7.430   6.911  17.775  0.00  0.00    +0.000 C 
ATOM     28  C   UNL     1       7.741   5.450  18.099  0.00  0.00    +0.000 C 
ATOM     29  C   UNL     1       7.275   4.466  17.020  0.00  0.00    +0.000 C 
ENDBRANCH  23  24
ENDBRANCH  22  23
ENDBRANCH   7  22
TORSDOF 8
ENDMDL
MODEL 7
REMARK VINA RESULT:      -7.7      1.744      2.873
REMARK  Name = 
REMARK  9 active torsions:
REMARK  status: ('A' for Active; 'I' for Inactive)
REMARK    1  A    between atoms: C_1  and  O_2
REMARK    2  A    between atoms: O_2  and  C_3
REMARK    3  A    between atoms: C_3  and  O_4
REMARK    4  A    between atoms: O_4  and  C_5
REMARK    5  A    between atoms: C_9  and  C_10
REMARK    6  A    between atoms: C_10  and  C_11
REMARK    7  A    between atoms: C_17  and  O_18
REMARK    8  A    between atoms: O_18  and  C_19
REMARK    9  A    between atoms: C_19  and  C_20
REMARK                            x       y       z     vdW  Elec       q    Type
REMARK                         _______ _______ _______ _____ _____    ______ ____
ROOT
ATOM      1  C   UNL     1       0.856   8.990  19.451  0.00  0.00    +0.000 C 
ATOM      2  C   UNL     1       1.337   8.324  20.746  0.00  0.00    +0.000 C 
ATOM      3  C   UNL     1       1.881   7.044  20.208  0.00  0.00    +0.000 A 
ATOM      4  C   UNL     1       1.850   5.795  20.797  0.00  0.00    +0.000 A 
ATOM      5  C   UNL     1       2.397   4.728  20.084  0.00  0.00    +0.000 A 
ATOM      6  C   UNL     1       3.063   4.952  18.863  0.00  0.00    +0.000 A 
ATOM      7  C   UNL     1       3.151   6.232  18.306  0.00  0.00    +0.000 A 
ATOM      8  C   UNL     1       2.446   7.238  18.942  0.00  0.00    +0.000 A 
ATOM      9  C   UNL     1       1.944   8.544  18.473  0.00  0.00    +0.000 C 
ATOM     10  O   UNL     1       2.245   9.090  17.431  0.00  0.00    +0.000 OA
ENDROOT
BRANCH   1  11
ATOM     11  C   UNL     1       0.640  10.488  19.628  0.00  0.00    +0.000 C 
BRANCH  11  16
ATOM     12  C   UNL     1      -2.678  11.029  17.775  0.00  0.00    +0.000 A 
ATOM     13  C   UNL     1      -3.288  11.951  18.626  0.00  0.00    +0.000 A 
ATOM     14  C   UNL     1      -2.655  12.368  19.797  0.00  0.00    +0.000 A 
ATOM     15  C   UNL     1      -1.389  11.887  20.112  0.00  0.00    +0.000 A 
ATOM     16  C   UNL     1      -0.744  10.978  19.260  0.00  0.00    +0.000 A 
ATOM     17  C   UNL     1      -1.414  10.531  18.101  0.00  0.00    +0.000 A 
BRANCH  12  18
ATOM     18  O   UNL     1      -3.373  10.738  16.638  0.00  0.00    +0.000 OA
BRANCH  18  19
ATOM     19  C   UNL     1      -2.782   9.778  15.769  0.00  0.00    +0.000 C 
BRANCH  19  21
ATOM     20  C   UNL     1      -3.929  10.073  13.719  0.00  0.00    +0.000 C 
ATOM     21  O   UNL     1      -2.710  10.260  14.423  0.00  0.00    +0.000 OA
ENDBRANCH  19  21
ENDBRANCH  18  19
ENDBRANCH  12  18
ENDBRANCH  11  16
ENDBRANCH   1  11
BRANCH   7  22
ATOM     22  O   UNL     1       3.856   6.347  17.151  0.00  0.00    +0.000 OA
BRANCH  22  23
ATOM     23  C   UNL     1       5.010   7.204  17.245  0.00  0.00    +0.000 C 
BRANCH  23  24
ATOM     24  C   UNL     1       6.206   6.502  16.559  0.00  0.00    +0.000 C 
ATOM     25  C   UNL     1       7.555   7.055  17.050  0.00  0.00    +0.000 C 
ATOM     26  C   UNL     1       7.807   6.669  18.502  0.00  0.00    +0.000 C 
ATOM     27  C   UNL     1       7.862   5.153  18.647  0.00  0.00    +0.000 C 
ATOM     28  C   UNL     1       6.609   4.468  18.102  0.00  0.00    +0.000 C 
ATOM     29  C   UNL     1       6.185   4.969  16.716  0.00  0.00    +0.000 C 
ENDBRANCH  23  24
ENDBRANCH  22  23
ENDBRANCH   7  22
TORSDOF 8
ENDMDL
MODEL 8
REMARK VINA RESULT:      -7.6      1.699      2.469
REMARK  Name = 
REMARK  9 active torsions:
REMARK  status: ('A' for Active; 'I' for Inactive)
REMARK    1  A    between atoms: C_1  and  O_2
REMARK    2  A    between atoms: O_2  and  C_3
REMARK    3  A    between atoms: C_3  and  O_4
REMARK    4  A    between atoms: O_4  and  C_5
REMARK    5  A    between atoms: C_9  and  C_10
REMARK    6  A    between atoms: C_10  and  C_11
REMARK    7  A    between atoms: C_17  and  O_18
REMARK    8  A    between atoms: O_18  and  C_19
REMARK    9  A    between atoms: C_19  and  C_20
REMARK                            x       y       z     vdW  Elec       q    Type
REMARK                         _______ _______ _______ _____ _____    ______ ____
ROOT
ATOM      1  C   UNL     1       1.356   8.724  18.786  0.00  0.00    +0.000 C 
ATOM      2  C   UNL     1       1.569   8.274  20.236  0.00  0.00    +0.000 C 
ATOM      3  C   UNL     1       1.970   6.854  20.026  0.00  0.00    +0.000 A 
ATOM      4  C   UNL     1       1.677   5.762  20.819  0.00  0.00    +0.000 A 
ATOM      5  C   UNL     1       2.136   4.513  20.400  0.00  0.00    +0.000 A 
ATOM      6  C   UNL     1       2.971   4.401  19.271  0.00  0.00    +0.000 A 
ATOM      7  C   UNL     1       3.321   5.522  18.512  0.00  0.00    +0.000 A 
ATOM      8  C   UNL     1       2.707   6.717  18.844  0.00  0.00    +0.000 A 
ATOM      9  C   UNL     1       2.473   7.955  18.077  0.00  0.00    +0.000 C 
ATOM     10  O   UNL     1       2.978   8.240  17.010  0.00  0.00    +0.000 OA
ENDROOT
BRANCH   1  11
ATOM     11  C   UNL     1       1.354  10.241  18.655  0.00  0.00    +0.000 C 
BRANCH  11  16
ATOM     12  C   UNL     1      -2.298  11.384  18.344  0.00  0.00    +0.000 A 
ATOM     13  C   UNL     1      -2.408  12.175  19.488  0.00  0.00    +0.000 A 
ATOM     14  C   UNL     1      -1.333  12.312  20.366  0.00  0.00    +0.000 A 
ATOM     15  C   UNL     1      -0.124  11.681  20.088  0.00  0.00    +0.000 A 
ATOM     16  C   UNL     1       0.019  10.901  18.932  0.00  0.00    +0.000 A 
ATOM     17  C   UNL     1      -1.091  10.734  18.075  0.00  0.00    +0.000 A 
BRANCH  12  18
ATOM     18  O   UNL     1      -3.400  11.368  17.540  0.00  0.00    +0.000 OA
BRANCH  18  19
ATOM     19  C   UNL     1      -4.626  11.765  18.145  0.00  0.00    +0.000 C 
BRANCH  19  21
ATOM     20  C   UNL     1      -6.856  11.018  18.418  0.00  0.00    +0.000 C 
ATOM     21  O   UNL     1      -5.487  10.644  18.374  0.00  0.00    +0.000 OA
ENDBRANCH  19  21
ENDBRANCH  18  19
ENDBRANCH  12  18
ENDBRANCH  11  16
ENDBRANCH   1  11
BRANCH   7  22
ATOM     22  O   UNL     1       4.170   5.313  17.472  0.00  0.00    +0.000 OA
BRANCH  22  23
ATOM     23  C   UNL     1       5.119   4.250  17.687  0.00  0.00    +0.000 C 
BRANCH  23  24
ATOM     24  C   UNL     1       6.397   4.553  16.869  0.00  0.00    +0.000 C 
ATOM     25  C   UNL     1       6.284   5.879  16.098  0.00  0.00    +0.000 C 
ATOM     26  C   UNL     1       6.283   7.067  17.053  0.00  0.00    +0.000 C 
ATOM     27  C   UNL     1       7.585   7.113  17.844  0.00  0.00    +0.000 C 
ATOM     28  C   UNL     1       7.866   5.807  18.585  0.00  0.00    +0.000 C 
ATOM     29  C   UNL     1       7.680   4.554  17.721  0.00  0.00    +0.000 C 
ENDBRANCH  23  24
ENDBRANCH  22  23
ENDBRANCH   7  22
TORSDOF 8
ENDMDL
MODEL 9
REMARK VINA RESULT:      -7.5      1.110      1.620
REMARK  Name = 
REMARK  9 active torsions:
REMARK  status: ('A' for Active; 'I' for Inactive)
REMARK    1  A    between atoms: C_1  and  O_2
REMARK    2  A    between atoms: O_2  and  C_3
REMARK    3  A    between atoms: C_3  and  O_4
REMARK    4  A    between atoms: O_4  and  C_5
REMARK    5  A    between atoms: C_9  and  C_10
REMARK    6  A    between atoms: C_10  and  C_11
REMARK    7  A    between atoms: C_17  and  O_18
REMARK    8  A    between atoms: O_18  and  C_19
REMARK    9  A    between atoms: C_19  and  C_20
REMARK                            x       y       z     vdW  Elec       q    Type
REMARK                         _______ _______ _______ _____ _____    ______ ____
ROOT
ATOM      1  C   UNL     1       1.479   7.214  20.132  0.00  0.00    +0.000 C 
ATOM      2  C   UNL     1       1.609   6.064  21.137  0.00  0.00    +0.000 C 
ATOM      3  C   UNL     1       1.547   4.892  20.218  0.00  0.00    +0.000 A 
ATOM      4  C   UNL     1       0.970   3.658  20.453  0.00  0.00    +0.000 A 
ATOM      5  C   UNL     1       1.005   2.719  19.423  0.00  0.00    +0.000 A 
ATOM      6  C   UNL     1       1.713   2.987  18.235  0.00  0.00    +0.000 A 
ATOM      7  C   UNL     1       2.355   4.213  18.033  0.00  0.00    +0.000 A 
ATOM      8  C   UNL     1       2.152   5.189  18.992  0.00  0.00    +0.000 A 
ATOM      9  C   UNL     1       2.273   6.659  18.949  0.00  0.00    +0.000 C 
ATOM     10  O   UNL     1       2.792   7.306  18.062  0.00  0.00    +0.000 OA
ENDROOT
BRANCH   1  11
ATOM     11  C   UNL     1       1.934   8.542  20.725  0.00  0.00    +0.000 C 
BRANCH  11  16
ATOM     12  C   UNL     1      -0.872  11.132  21.112  0.00  0.00    +0.000 A 
ATOM     13  C   UNL     1      -1.192  10.951  22.457  0.00  0.00    +0.000 A 
ATOM     14  C   UNL     1      -0.537   9.986  23.221  0.00  0.00    +0.000 A 
ATOM     15  C   UNL     1       0.468   9.212  22.651  0.00  0.00    +0.000 A 
ATOM     16  C   UNL     1       0.825   9.392  21.307  0.00  0.00    +0.000 A 
ATOM     17  C   UNL     1       0.125  10.342  20.533  0.00  0.00    +0.000 A 
BRANCH  12  18
ATOM     18  O   UNL     1      -1.545  12.140  20.484  0.00  0.00    +0.000 OA
BRANCH  18  19
ATOM     19  C   UNL     1      -2.533  12.812  21.258  0.00  0.00    +0.000 C 
BRANCH  19  21
ATOM     20  C   UNL     1      -3.229  15.062  21.010  0.00  0.00    +0.000 C 
ATOM     21  O   UNL     1      -2.199  14.191  21.453  0.00  0.00    +0.000 OA
ENDBRANCH  19  21
ENDBRANCH  18  19
ENDBRANCH  12  18
ENDBRANCH  11  16
ENDBRANCH   1  11
BRANCH   7  22
ATOM     22  O   UNL     1       3.051   4.353  16.874  0.00  0.00    +0.000 OA
BRANCH  22  23
ATOM     23  C   UNL     1       4.386   3.812  16.917  0.00  0.00    +0.000 C 
BRANCH  23  24
ATOM     24  C   UNL     1       5.259   4.563  15.884  0.00  0.00    +0.000 C 
ATOM     25  C   UNL     1       5.174   6.088  16.061  0.00  0.00    +0.000 C 
ATOM     26  C   UNL     1       5.846   6.526  17.357  0.00  0.00    +0.000 C 
ATOM     27  C   UNL     1       7.324   6.155  17.338  0.00  0.00    +0.000 C 
ATOM     28  C   UNL     1       7.552   4.668  17.071  0.00  0.00    +0.000 C 
ATOM     29  C   UNL     1       6.735   4.120  15.895  0.00  0.00    +0.000 C 
ENDBRANCH  23  24
ENDBRANCH  22  23
ENDBRANCH   7  22
TORSDOF 8
ENDMDL
