MODEL 1
REMARK VINA RESULT:      -8.0      0.000      0.000
REMARK  Name = 
REMARK  10 active torsions:
REMARK  status: ('A' for Active; 'I' for Inactive)
REMARK    1  A    between atoms: C_1  and  C_2
REMARK    2  A    between atoms: C_2  and  C_3
REMARK    3  A    between atoms: C_2  and  C_4
REMARK    4  A    between atoms: C_4  and  N_5
REMARK    5  A    between atoms: C_4  and  P_22
REMARK    6  A    between atoms: N_5  and  S_6
REMARK    7  A    between atoms: S_6  and  C_9
REMARK    8  A    between atoms: C_12  and  C_13
REMARK    9  A    between atoms: P_22  and  O_24
REMARK   10  A    between atoms: P_22  and  O_25
REMARK                            x       y       z     vdW  Elec       q    Type
REMARK                         _______ _______ _______ _____ _____    ______ ____
ROOT
ATOM      1  S   UNL     1       3.800   5.820  18.418  0.00  0.00    +0.000 S 
ATOM      2  O   UNL     1       4.749   5.619  19.491  0.00  0.00    +0.000 OA
ATOM      3  O   UNL     1       4.206   6.078  17.058  0.00  0.00    +0.000 OA
ENDROOT
BRANCH   1   4
ATOM      4  C   UNL     1       2.694   7.106  18.904  0.00  0.00    +0.000 A 
ATOM      5  C   UNL     1       2.378   8.126  18.007  0.00  0.00    +0.000 A 
ATOM      6  C   UNL     1       1.548   9.171  18.424  0.00  0.00    +0.000 A 
ATOM      7  C   UNL     1       1.010   9.208  19.724  0.00  0.00    +0.000 A 
ATOM      8  C   UNL     1       1.328   8.143  20.591  0.00  0.00    +0.000 A 
ATOM      9  C   UNL     1       2.169   7.101  20.192  0.00  0.00    +0.000 A 
BRANCH   7  10
ATOM     10  C   UNL     1       0.147  10.328  20.169  0.00  0.00    +0.000 A 
ATOM     11  C   UNL     1      -0.564  11.124  19.248  0.00  0.00    +0.000 A 
ATOM     12  C   UNL     1      -1.372  12.188  19.665  0.00  0.00    +0.000 A 
ATOM     13  C   UNL     1      -1.499  12.471  21.020  0.00  0.00    +0.000 A 
ATOM     14  C   UNL     1      -0.812  11.695  21.941  0.00  0.00    +0.000 A 
ATOM     15  F   UNL     1      -0.934  11.959  23.249  0.00  0.00    +0.000 F 
ATOM     16  C   UNL     1       0.005  10.645  21.531  0.00  0.00    +0.000 A 
ENDBRANCH   7  10
ENDBRANCH   1   4
BRANCH   1  17
ATOM     17  N   UNL     1       2.774   4.470  18.380  0.00  0.00    +0.000 NA
ATOM     18  H   UNL     1       2.950   3.970  17.500  0.00  0.00    +0.000 HD
BRANCH  17  19
ATOM     19  C   UNL     1       2.838   3.544  19.580  0.00  0.00    +0.000 C 
BRANCH  19  21
ATOM     20  C   UNL     1       1.365   2.767  21.594  0.00  0.00    +0.000 C 
ATOM     21  C   UNL     1       1.429   3.490  20.243  0.00  0.00    +0.000 C 
ATOM     22  C   UNL     1       0.390   2.860  19.304  0.00  0.00    +0.000 C 
ENDBRANCH  19  21
BRANCH  19  23
ATOM     23  P   UNL     1       3.656   1.996  19.046  0.00  0.00    +0.000 P 
ATOM     24  O   UNL     1       3.490   2.336  17.564  0.00  0.00    +0.000 OA
BRANCH  23  25
ATOM     25  O   UNL     1       5.144   2.568  19.453  0.00  0.00    +0.000 OA
ATOM     26  H   UNL     1       5.060   3.275  20.120  0.00  0.00    +0.000 HD
ENDBRANCH  23  25
BRANCH  23  27
ATOM     27  O   UNL     1       4.429   0.533  18.542  0.00  0.00    +0.000 OA
ATOM     28  H   UNL     1       3.695  -0.056  18.274  0.00  0.00    +0.000 HD
ENDBRANCH  23  27
ENDBRANCH  19  23
ENDBRANCH  17  19
ENDBRANCH   1  17
TORSDOF 8
ENDMDL
MODEL 2
REMARK VINA RESULT:      -7.9      1.059      1.325
REMARK  Name = 
REMARK  10 active torsions:
REMARK  status: ('A' for Active; 'I' for Inactive)
REMARK    1  A    between atoms: C_1  and  C_2
REMARK    2  A    between atoms: C_2  and  C_3
REMARK    3  A    between atoms: C_2  and  C_4
REMARK    4  A    between atoms: C_4  and  N_5
REMARK    5  A    between atoms: C_4  and  P_22
REMARK    6  A    between atoms: N_5  and  S_6
REMARK    7  A    between atoms: S_6  and  C_9
REMARK    8  A    between atoms: C_12  and  C_13
REMARK    9  A    between atoms: P_22  and  O_24
REMARK   10  A    between atoms: P_22  and  O_25
REMARK                            x       y       z     vdW  Elec       q    Type
REMARK                         _______ _______ _______ _____ _____    ______ ____
ROOT
ATOM      1  S   UNL     1       3.804   5.816  18.359  0.00  0.00    +0.000 S 
ATOM      2  O   UNL     1       4.748   5.668  19.445  0.00  0.00    +0.000 OA
ATOM      3  O   UNL     1       4.217   5.967  16.985  0.00  0.00    +0.000 OA
ENDROOT
BRANCH   1   4
ATOM      4  C   UNL     1       2.730   7.160  18.749  0.00  0.00    +0.000 A 
ATOM      5  C   UNL     1       2.489   8.154  17.801  0.00  0.00    +0.000 A 
ATOM      6  C   UNL     1       1.684   9.245  18.144  0.00  0.00    +0.000 A 
ATOM      7  C   UNL     1       1.098   9.354  19.418  0.00  0.00    +0.000 A 
ATOM      8  C   UNL     1       1.340   8.313  20.338  0.00  0.00    +0.000 A 
ATOM      9  C   UNL     1       2.155   7.226  20.014  0.00  0.00    +0.000 A 
BRANCH   7  10
ATOM     10  C   UNL     1       0.261  10.521  19.785  0.00  0.00    +0.000 A 
ATOM     11  C   UNL     1       0.708  11.491  20.705  0.00  0.00    +0.000 A 
ATOM     12  C   UNL     1      -0.085  12.589  21.060  0.00  0.00    +0.000 A 
ATOM     13  C   UNL     1      -1.342  12.749  20.488  0.00  0.00    +0.000 A 
ATOM     14  C   UNL     1      -1.795  11.809  19.576  0.00  0.00    +0.000 A 
ATOM     15  F   UNL     1      -3.003  11.961  19.017  0.00  0.00    +0.000 F 
ATOM     16  C   UNL     1      -1.018  10.707  19.230  0.00  0.00    +0.000 A 
ENDBRANCH   7  10
ENDBRANCH   1   4
BRANCH   1  17
ATOM     17  N   UNL     1       2.745   4.492  18.414  0.00  0.00    +0.000 NA
ATOM     18  H   UNL     1       2.844   3.978  17.530  0.00  0.00    +0.000 HD
BRANCH  17  19
ATOM     19  C   UNL     1       2.875   3.578  19.619  0.00  0.00    +0.000 C 
BRANCH  19  21
ATOM     20  C   UNL     1       1.484   2.712  21.653  0.00  0.00    +0.000 C 
ATOM     21  C   UNL     1       1.503   3.527  20.355  0.00  0.00    +0.000 C 
ATOM     22  C   UNL     1       0.391   3.003  19.434  0.00  0.00    +0.000 C 
ENDBRANCH  19  21
BRANCH  19  23
ATOM     23  P   UNL     1       3.670   2.028  19.058  0.00  0.00    +0.000 P 
ATOM     24  O   UNL     1       3.422   2.350  17.583  0.00  0.00    +0.000 OA
BRANCH  23  25
ATOM     25  O   UNL     1       5.175   2.610  19.377  0.00  0.00    +0.000 OA
ATOM     26  H   UNL     1       5.151   3.583  19.444  0.00  0.00    +0.000 HD
ENDBRANCH  23  25
BRANCH  23  27
ATOM     27  O   UNL     1       4.421   0.562  18.528  0.00  0.00    +0.000 OA
ATOM     28  H   UNL     1       4.667   0.097  19.354  0.00  0.00    +0.000 HD
ENDBRANCH  23  27
ENDBRANCH  19  23
ENDBRANCH  17  19
ENDBRANCH   1  17
TORSDOF 8
ENDMDL
MODEL 3
REMARK VINA RESULT:      -7.8      1.211      1.805
REMARK  Name = 
REMARK  10 active torsions:
REMARK  status: ('A' for Active; 'I' for Inactive)
REMARK    1  A    between atoms: C_1  and  C_2
REMARK    2  A    between atoms: C_2  and  C_3
REMARK    3  A    between atoms: C_2  and  C_4
REMARK    4  A    between atoms: C_4  and  N_5
REMARK    5  A    between atoms: C_4  and  P_22
REMARK    6  A    between atoms: N_5  and  S_6
REMARK    7  A    between atoms: S_6  and  C_9
REMARK    8  A    between atoms: C_12  and  C_13
REMARK    9  A    between atoms: P_22  and  O_24
REMARK   10  A    between atoms: P_22  and  O_25
REMARK                            x       y       z     vdW  Elec       q    Type
REMARK                         _______ _______ _______ _____ _____    ______ ____
ROOT
ATOM      1  S   UNL     1       3.855   5.894  18.301  0.00  0.00    +0.000 S 
ATOM      2  O   UNL     1       4.773   5.727  19.407  0.00  0.00    +0.000 OA
ATOM      3  O   UNL     1       4.301   6.079  16.941  0.00  0.00    +0.000 OA
ENDROOT
BRANCH   1   4
ATOM      4  C   UNL     1       2.761   7.220  18.695  0.00  0.00    +0.000 A 
ATOM      5  C   UNL     1       2.189   7.294  19.965  0.00  0.00    +0.000 A 
ATOM      6  C   UNL     1       1.277   8.316  20.245  0.00  0.00    +0.000 A 
ATOM      7  C   UNL     1       0.936   9.282  19.281  0.00  0.00    +0.000 A 
ATOM      8  C   UNL     1       1.560   9.192  18.020  0.00  0.00    +0.000 A 
ATOM      9  C   UNL     1       2.460   8.166  17.721  0.00  0.00    +0.000 A 
BRANCH   7  10
ATOM     10  C   UNL     1      -0.045  10.353  19.576  0.00  0.00    +0.000 A 
ATOM     11  C   UNL     1       0.018  11.107  20.766  0.00  0.00    +0.000 A 
ATOM     12  C   UNL     1      -0.914  12.112  21.051  0.00  0.00    +0.000 A 
ATOM     13  C   UNL     1      -1.926  12.395  20.141  0.00  0.00    +0.000 A 
ATOM     14  C   UNL     1      -2.000  11.668  18.962  0.00  0.00    +0.000 A 
ATOM     15  F   UNL     1      -2.970  11.941  18.079  0.00  0.00    +0.000 F 
ATOM     16  C   UNL     1      -1.086  10.659  18.680  0.00  0.00    +0.000 A 
ENDBRANCH   7  10
ENDBRANCH   1   4
BRANCH   1  17
ATOM     17  N   UNL     1       2.805   4.561  18.299  0.00  0.00    +0.000 NA
ATOM     18  H   UNL     1       2.926   4.071  17.404  0.00  0.00    +0.000 HD
BRANCH  17  19
ATOM     19  C   UNL     1       2.917   3.617  19.482  0.00  0.00    +0.000 C 
BRANCH  19  21
ATOM     20  C   UNL     1       1.573   2.945  21.620  0.00  0.00    +0.000 C 
ATOM     21  C   UNL     1       1.551   3.593  20.230  0.00  0.00    +0.000 C 
ATOM     22  C   UNL     1       0.463   2.907  19.391  0.00  0.00    +0.000 C 
ENDBRANCH  19  21
BRANCH  19  23
ATOM     23  P   UNL     1       3.657   2.055  18.880  0.00  0.00    +0.000 P 
ATOM     24  O   UNL     1       3.959   2.646  17.501  0.00  0.00    +0.000 OA
BRANCH  23  25
ATOM     25  O   UNL     1       5.028   2.292  19.757  0.00  0.00    +0.000 OA
ATOM     26  H   UNL     1       5.185   3.247  19.882  0.00  0.00    +0.000 HD
ENDBRANCH  23  25
BRANCH  23  27
ATOM     27  O   UNL     1       4.355   0.579  18.311  0.00  0.00    +0.000 OA
ATOM     28  H   UNL     1       4.516   0.731  17.357  0.00  0.00    +0.000 HD
ENDBRANCH  23  27
ENDBRANCH  19  23
ENDBRANCH  17  19
ENDBRANCH   1  17
TORSDOF 8
ENDMDL
MODEL 4
REMARK VINA RESULT:      -7.5      5.419      6.824
REMARK  Name = 
REMARK  10 active torsions:
REMARK  status: ('A' for Active; 'I' for Inactive)
REMARK    1  A    between atoms: C_1  and  C_2
REMARK    2  A    between atoms: C_2  and  C_3
REMARK    3  A    between atoms: C_2  and  C_4
REMARK    4  A    between atoms: C_4  and  N_5
REMARK    5  A    between atoms: C_4  and  P_22
REMARK    6  A    between atoms: N_5  and  S_6
REMARK    7  A    between atoms: S_6  and  C_9
REMARK    8  A    between atoms: C_12  and  C_13
REMARK    9  A    between atoms: P_22  and  O_24
REMARK   10  A    between atoms: P_22  and  O_25
REMARK                            x       y       z     vdW  Elec       q    Type
REMARK                         _______ _______ _______ _____ _____    ______ ____
ROOT
ATOM      1  S   UNL     1       6.107   4.724  17.678  0.00  0.00    +0.000 S 
ATOM      2  O   UNL     1       6.045   4.066  18.965  0.00  0.00    +0.000 OA
ATOM      3  O   UNL     1       6.651   4.086  16.503  0.00  0.00    +0.000 OA
ENDROOT
BRANCH   1   4
ATOM      4  C   UNL     1       6.943   6.263  17.892  0.00  0.00    +0.000 A 
ATOM      5  C   UNL     1       7.952   6.378  18.848  0.00  0.00    +0.000 A 
ATOM      6  C   UNL     1       8.564   7.618  19.049  0.00  0.00    +0.000 A 
ATOM      7  C   UNL     1       8.198   8.750  18.298  0.00  0.00    +0.000 A 
ATOM      8  C   UNL     1       7.196   8.585  17.320  0.00  0.00    +0.000 A 
ATOM      9  C   UNL     1       6.564   7.356  17.119  0.00  0.00    +0.000 A 
BRANCH   7  10
ATOM     10  C   UNL     1       8.836  10.067  18.528  0.00  0.00    +0.000 A 
ATOM     11  C   UNL     1       8.627  11.153  17.652  0.00  0.00    +0.000 A 
ATOM     12  C   UNL     1       9.237  12.395  17.862  0.00  0.00    +0.000 A 
ATOM     13  C   UNL     1      10.061  12.584  18.965  0.00  0.00    +0.000 A 
ATOM     14  C   UNL     1      10.273  11.530  19.841  0.00  0.00    +0.000 A 
ATOM     15  F   UNL     1      11.062  11.708  20.909  0.00  0.00    +0.000 F 
ATOM     16  C   UNL     1       9.681  10.289  19.630  0.00  0.00    +0.000 A 
ENDBRANCH   7  10
ENDBRANCH   1   4
BRANCH   1  17
ATOM     17  N   UNL     1       4.536   5.229  17.283  0.00  0.00    +0.000 NA
ATOM     18  H   UNL     1       4.309   4.844  16.358  0.00  0.00    +0.000 HD
BRANCH  17  19
ATOM     19  C   UNL     1       3.456   4.924  18.305  0.00  0.00    +0.000 C 
BRANCH  19  21
ATOM     20  C   UNL     1       3.105   7.472  17.843  0.00  0.00    +0.000 C 
ATOM     21  C   UNL     1       2.553   6.183  18.465  0.00  0.00    +0.000 C 
ATOM     22  C   UNL     1       2.226   6.456  19.940  0.00  0.00    +0.000 C 
ENDBRANCH  19  21
BRANCH  19  23
ATOM     23  P   UNL     1       2.709   3.314  17.861  0.00  0.00    +0.000 P 
ATOM     24  O   UNL     1       2.522   2.915  19.326  0.00  0.00    +0.000 OA
BRANCH  23  25
ATOM     25  O   UNL     1       1.290   4.021  17.424  0.00  0.00    +0.000 OA
ATOM     26  H   UNL     1       1.423   4.583  16.637  0.00  0.00    +0.000 HD
ENDBRANCH  23  25
BRANCH  23  27
ATOM     27  O   UNL     1       2.004   1.791  17.441  0.00  0.00    +0.000 OA
ATOM     28  H   UNL     1       2.760   1.234  17.164  0.00  0.00    +0.000 HD
ENDBRANCH  23  27
ENDBRANCH  19  23
ENDBRANCH  17  19
ENDBRANCH   1  17
TORSDOF 8
ENDMDL
MODEL 5
REMARK VINA RESULT:      -7.5      2.864      4.209
REMARK  Name = 
REMARK  10 active torsions:
REMARK  status: ('A' for Active; 'I' for Inactive)
REMARK    1  A    between atoms: C_1  and  C_2
REMARK    2  A    between atoms: C_2  and  C_3
REMARK    3  A    between atoms: C_2  and  C_4
REMARK    4  A    between atoms: C_4  and  N_5
REMARK    5  A    between atoms: C_4  and  P_22
REMARK    6  A    between atoms: N_5  and  S_6
REMARK    7  A    between atoms: S_6  and  C_9
REMARK    8  A    between atoms: C_12  and  C_13
REMARK    9  A    between atoms: P_22  and  O_24
REMARK   10  A    between atoms: P_22  and  O_25
REMARK                            x       y       z     vdW  Elec       q    Type
REMARK                         _______ _______ _______ _____ _____    ______ ____
ROOT
ATOM      1  S   UNL     1       4.283   3.386  18.492  0.00  0.00    +0.000 S 
ATOM      2  O   UNL     1       3.862   3.051  17.149  0.00  0.00    +0.000 OA
ATOM      3  O   UNL     1       4.235   2.441  19.581  0.00  0.00    +0.000 OA
ENDROOT
BRANCH   1   4
ATOM      4  C   UNL     1       3.405   4.832  18.994  0.00  0.00    +0.000 A 
ATOM      5  C   UNL     1       3.331   5.931  18.139  0.00  0.00    +0.000 A 
ATOM      6  C   UNL     1       2.685   7.092  18.573  0.00  0.00    +0.000 A 
ATOM      7  C   UNL     1       2.090   7.170  19.846  0.00  0.00    +0.000 A 
ATOM      8  C   UNL     1       2.158   6.027  20.668  0.00  0.00    +0.000 A 
ATOM      9  C   UNL     1       2.816   4.866  20.254  0.00  0.00    +0.000 A 
BRANCH   7  10
ATOM     10  C   UNL     1       1.422   8.409  20.310  0.00  0.00    +0.000 A 
ATOM     11  C   UNL     1       1.051   8.589  21.659  0.00  0.00    +0.000 A 
ATOM     12  C   UNL     1       0.411   9.754  22.097  0.00  0.00    +0.000 A 
ATOM     13  C   UNL     1       0.139  10.776  21.195  0.00  0.00    +0.000 A 
ATOM     14  C   UNL     1       0.502  10.620  19.865  0.00  0.00    +0.000 A 
ATOM     15  F   UNL     1       0.248  11.603  18.992  0.00  0.00    +0.000 F 
ATOM     16  C   UNL     1       1.125   9.458  19.421  0.00  0.00    +0.000 A 
ENDBRANCH   7  10
ENDBRANCH   1   4
BRANCH   1  17
ATOM     17  N   UNL     1       5.878   3.957  18.403  0.00  0.00    +0.000 NA
ATOM     18  H   UNL     1       6.493   3.144  18.281  0.00  0.00    +0.000 HD
BRANCH  17  19
ATOM     19  C   UNL     1       6.149   5.034  17.368  0.00  0.00    +0.000 C 
BRANCH  19  21
ATOM     20  C   UNL     1       7.653   5.803  19.361  0.00  0.00    +0.000 C 
ATOM     21  C   UNL     1       7.334   5.915  17.866  0.00  0.00    +0.000 C 
ATOM     22  C   UNL     1       7.114   7.396  17.525  0.00  0.00    +0.000 C 
ENDBRANCH  19  21
BRANCH  19  23
ATOM     23  P   UNL     1       6.239   4.222  15.731  0.00  0.00    +0.000 P 
ATOM     24  O   UNL     1       5.407   5.317  15.062  0.00  0.00    +0.000 OA
BRANCH  23  25
ATOM     25  O   UNL     1       7.804   4.682  15.518  0.00  0.00    +0.000 OA
ATOM     26  H   UNL     1       8.334   3.929  15.193  0.00  0.00    +0.000 HD
ENDBRANCH  23  25
BRANCH  23  27
ATOM     27  O   UNL     1       6.324   3.453  14.183  0.00  0.00    +0.000 OA
ATOM     28  H   UNL     1       6.188   4.177  13.538  0.00  0.00    +0.000 HD
ENDBRANCH  23  27
ENDBRANCH  19  23
ENDBRANCH  17  19
ENDBRANCH   1  17
TORSDOF 8
ENDMDL
MODEL 6
REMARK VINA RESULT:      -7.5      5.554      7.035
REMARK  Name = 
REMARK  10 active torsions:
REMARK  status: ('A' for Active; 'I' for Inactive)
REMARK    1  A    between atoms: C_1  and  C_2
REMARK    2  A    between atoms: C_2  and  C_3
REMARK    3  A    between atoms: C_2  and  C_4
REMARK    4  A    between atoms: C_4  and  N_5
REMARK    5  A    between atoms: C_4  and  P_22
REMARK    6  A    between atoms: N_5  and  S_6
REMARK    7  A    between atoms: S_6  and  C_9
REMARK    8  A    between atoms: C_12  and  C_13
REMARK    9  A    between atoms: P_22  and  O_24
REMARK   10  A    between atoms: P_22  and  O_25
REMARK                            x       y       z     vdW  Elec       q    Type
REMARK                         _______ _______ _______ _____ _____    ______ ____
ROOT
ATOM      1  S   UNL     1       6.058   4.721  17.612  0.00  0.00    +0.000 S 
ATOM      2  O   UNL     1       5.980   3.990  18.858  0.00  0.00    +0.000 OA
ATOM      3  O   UNL     1       6.566   4.134  16.396  0.00  0.00    +0.000 OA
ENDROOT
BRANCH   1   4
ATOM      4  C   UNL     1       6.959   6.209  17.909  0.00  0.00    +0.000 A 
ATOM      5  C   UNL     1       7.921   6.248  18.918  0.00  0.00    +0.000 A 
ATOM      6  C   UNL     1       8.584   7.450  19.183  0.00  0.00    +0.000 A 
ATOM      7  C   UNL     1       8.316   8.617  18.444  0.00  0.00    +0.000 A 
ATOM      8  C   UNL     1       7.359   8.528  17.412  0.00  0.00    +0.000 A 
ATOM      9  C   UNL     1       6.677   7.338  17.147  0.00  0.00    +0.000 A 
BRANCH   7  10
ATOM     10  C   UNL     1       9.007   9.893  18.741  0.00  0.00    +0.000 A 
ATOM     11  C   UNL     1       9.283  10.294  20.065  0.00  0.00    +0.000 A 
ATOM     12  C   UNL     1       9.927  11.504  20.348  0.00  0.00    +0.000 A 
ATOM     13  C   UNL     1      10.324  12.337  19.308  0.00  0.00    +0.000 A 
ATOM     14  C   UNL     1      10.067  11.956  18.000  0.00  0.00    +0.000 A 
ATOM     15  F   UNL     1      10.452  12.752  16.993  0.00  0.00    +0.000 F 
ATOM     16  C   UNL     1       9.414  10.762  17.712  0.00  0.00    +0.000 A 
ENDBRANCH   7  10
ENDBRANCH   1   4
BRANCH   1  17
ATOM     17  N   UNL     1       4.507   5.313  17.265  0.00  0.00    +0.000 NA
ATOM     18  H   UNL     1       4.233   4.947  16.345  0.00  0.00    +0.000 HD
BRANCH  17  19
ATOM     19  C   UNL     1       3.441   5.058  18.315  0.00  0.00    +0.000 C 
BRANCH  19  21
ATOM     20  C   UNL     1       3.140   7.610  17.843  0.00  0.00    +0.000 C 
ATOM     21  C   UNL     1       2.542   6.326  18.429  0.00  0.00    +0.000 C 
ATOM     22  C   UNL     1       2.136   6.597  19.885  0.00  0.00    +0.000 C 
ENDBRANCH  19  21
BRANCH  19  23
ATOM     23  P   UNL     1       2.685   3.431  17.958  0.00  0.00    +0.000 P 
ATOM     24  O   UNL     1       2.419   3.149  19.438  0.00  0.00    +0.000 OA
BRANCH  23  25
ATOM     25  O   UNL     1       1.302   4.125  17.399  0.00  0.00    +0.000 OA
ATOM     26  H   UNL     1       1.517   4.881  16.820  0.00  0.00    +0.000 HD
ENDBRANCH  23  25
BRANCH  23  27
ATOM     27  O   UNL     1       1.970   1.892  17.620  0.00  0.00    +0.000 OA
ATOM     28  H   UNL     1       1.867   1.468  18.496  0.00  0.00    +0.000 HD
ENDBRANCH  23  27
ENDBRANCH  19  23
ENDBRANCH  17  19
ENDBRANCH   1  17
TORSDOF 8
ENDMDL
MODEL 7
REMARK VINA RESULT:      -7.4      2.841      4.208
REMARK  Name = 
REMARK  10 active torsions:
REMARK  status: ('A' for Active; 'I' for Inactive)
REMARK    1  A    between atoms: C_1  and  C_2
REMARK    2  A    between atoms: C_2  and  C_3
REMARK    3  A    between atoms: C_2  and  C_4
REMARK    4  A    between atoms: C_4  and  N_5
REMARK    5  A    between atoms: C_4  and  P_22
REMARK    6  A    between atoms: N_5  and  S_6
REMARK    7  A    between atoms: S_6  and  C_9
REMARK    8  A    between atoms: C_12  and  C_13
REMARK    9  A    between atoms: P_22  and  O_24
REMARK   10  A    between atoms: P_22  and  O_25
REMARK                            x       y       z     vdW  Elec       q    Type
REMARK                         _______ _______ _______ _____ _____    ______ ____
ROOT
ATOM      1  S   UNL     1       4.061   3.560  17.931  0.00  0.00    +0.000 S 
ATOM      2  O   UNL     1       3.543   3.461  16.583  0.00  0.00    +0.000 OA
ATOM      3  O   UNL     1       3.995   2.468  18.871  0.00  0.00    +0.000 OA
ENDROOT
BRANCH   1   4
ATOM      4  C   UNL     1       3.329   4.973  18.693  0.00  0.00    +0.000 A 
ATOM      5  C   UNL     1       2.810   4.874  19.984  0.00  0.00    +0.000 A 
ATOM      6  C   UNL     1       2.178   5.984  20.553  0.00  0.00    +0.000 A 
ATOM      7  C   UNL     1       2.070   7.204  19.860  0.00  0.00    +0.000 A 
ATOM      8  C   UNL     1       2.636   7.272  18.570  0.00  0.00    +0.000 A 
ATOM      9  C   UNL     1       3.254   6.166  17.983  0.00  0.00    +0.000 A 
BRANCH   7  10
ATOM     10  C   UNL     1       1.384   8.372  20.459  0.00  0.00    +0.000 A 
ATOM     11  C   UNL     1       1.015   9.491  19.684  0.00  0.00    +0.000 A 
ATOM     12  C   UNL     1       0.375  10.600  20.250  0.00  0.00    +0.000 A 
ATOM     13  C   UNL     1       0.076  10.609  21.607  0.00  0.00    +0.000 A 
ATOM     14  C   UNL     1       0.425   9.514  22.384  0.00  0.00    +0.000 A 
ATOM     15  F   UNL     1       0.133   9.514  23.692  0.00  0.00    +0.000 F 
ATOM     16  C   UNL     1       1.074   8.415  21.831  0.00  0.00    +0.000 A 
ENDBRANCH   7  10
ENDBRANCH   1   4
BRANCH   1  17
ATOM     17  N   UNL     1       5.689   4.022  17.823  0.00  0.00    +0.000 NA
ATOM     18  H   UNL     1       6.232   3.191  17.561  0.00  0.00    +0.000 HD
BRANCH  17  19
ATOM     19  C   UNL     1       5.993   5.205  16.922  0.00  0.00    +0.000 C 
BRANCH  19  21
ATOM     20  C   UNL     1       7.524   5.657  18.991  0.00  0.00    +0.000 C 
ATOM     21  C   UNL     1       7.177   6.009  17.540  0.00  0.00    +0.000 C 
ATOM     22  C   UNL     1       6.933   7.523  17.451  0.00  0.00    +0.000 C 
ENDBRANCH  19  21
BRANCH  19  23
ATOM     23  P   UNL     1       6.108   4.582  15.206  0.00  0.00    +0.000 P 
ATOM     24  O   UNL     1       7.513   5.157  15.015  0.00  0.00    +0.000 OA
BRANCH  23  25
ATOM     25  O   UNL     1       6.343   3.036  15.715  0.00  0.00    +0.000 OA
ATOM     26  H   UNL     1       5.485   2.611  15.903  0.00  0.00    +0.000 HD
ENDBRANCH  23  25
BRANCH  23  27
ATOM     27  O   UNL     1       6.217   3.994  13.582  0.00  0.00    +0.000 OA
ATOM     28  H   UNL     1       5.746   4.663  13.044  0.00  0.00    +0.000 HD
ENDBRANCH  23  27
ENDBRANCH  19  23
ENDBRANCH  17  19
ENDBRANCH   1  17
TORSDOF 8
ENDMDL
MODEL 8
REMARK VINA RESULT:      -7.4      1.120      1.615
REMARK  Name = 
REMARK  10 active torsions:
REMARK  status: ('A' for Active; 'I' for Inactive)
REMARK    1  A    between atoms: C_1  and  C_2
REMARK    2  A    between atoms: C_2  and  C_3
REMARK    3  A    between atoms: C_2  and  C_4
REMARK    4  A    between atoms: C_4  and  N_5
REMARK    5  A    between atoms: C_4  and  P_22
REMARK    6  A    between atoms: N_5  and  S_6
REMARK    7  A    between atoms: S_6  and  C_9
REMARK    8  A    between atoms: C_12  and  C_13
REMARK    9  A    between atoms: P_22  and  O_24
REMARK   10  A    between atoms: P_22  and  O_25
REMARK                            x       y       z     vdW  Elec       q    Type
REMARK                         _______ _______ _______ _____ _____    ______ ____
ROOT
ATOM      1  S   UNL     1       3.827   5.655  18.418  0.00  0.00    +0.000 S 
ATOM      2  O   UNL     1       4.686   5.495  19.572  0.00  0.00    +0.000 OA
ATOM      3  O   UNL     1       4.338   5.698  17.069  0.00  0.00    +0.000 OA
ENDROOT
BRANCH   1   4
ATOM      4  C   UNL     1       2.840   7.096  18.667  0.00  0.00    +0.000 A 
ATOM      5  C   UNL     1       2.257   7.331  19.912  0.00  0.00    +0.000 A 
ATOM      6  C   UNL     1       1.428   8.444  20.079  0.00  0.00    +0.000 A 
ATOM      7  C   UNL     1       1.183   9.343  19.025  0.00  0.00    +0.000 A 
ATOM      8  C   UNL     1       1.816   9.087  17.791  0.00  0.00    +0.000 A 
ATOM      9  C   UNL     1       2.633   7.970  17.605  0.00  0.00    +0.000 A 
BRANCH   7  10
ATOM     10  C   UNL     1       0.288  10.511  19.201  0.00  0.00    +0.000 A 
ATOM     11  C   UNL     1      -1.047  10.494  18.748  0.00  0.00    +0.000 A 
ATOM     12  C   UNL     1      -1.891  11.600  18.904  0.00  0.00    +0.000 A 
ATOM     13  C   UNL     1      -1.420  12.747  19.532  0.00  0.00    +0.000 A 
ATOM     14  C   UNL     1      -0.112  12.780  19.990  0.00  0.00    +0.000 A 
ATOM     15  F   UNL     1       0.346  13.880  20.601  0.00  0.00    +0.000 F 
ATOM     16  C   UNL     1       0.736  11.689  19.825  0.00  0.00    +0.000 A 
ENDBRANCH   7  10
ENDBRANCH   1   4
BRANCH   1  17
ATOM     17  N   UNL     1       2.666   4.420  18.467  0.00  0.00    +0.000 NA
ATOM     18  H   UNL     1       2.675   3.948  17.555  0.00  0.00    +0.000 HD
BRANCH  17  19
ATOM     19  C   UNL     1       2.781   3.435  19.616  0.00  0.00    +0.000 C 
BRANCH  19  21
ATOM     20  C   UNL     1       0.623   4.638  20.465  0.00  0.00    +0.000 C 
ATOM     21  C   UNL     1       1.393   3.321  20.315  0.00  0.00    +0.000 C 
ATOM     22  C   UNL     1       1.514   2.667  21.699  0.00  0.00    +0.000 C 
ENDBRANCH  19  21
BRANCH  19  23
ATOM     23  P   UNL     1       3.610   1.933  18.980  0.00  0.00    +0.000 P 
ATOM     24  O   UNL     1       3.412   2.354  17.522  0.00  0.00    +0.000 OA
BRANCH  23  25
ATOM     25  O   UNL     1       5.097   2.501  19.393  0.00  0.00    +0.000 OA
ATOM     26  H   UNL     1       5.019   3.149  20.118  0.00  0.00    +0.000 HD
ENDBRANCH  23  25
BRANCH  23  27
ATOM     27  O   UNL     1       4.393   0.512  18.379  0.00  0.00    +0.000 OA
ATOM     28  H   UNL     1       4.606   0.721  17.446  0.00  0.00    +0.000 HD
ENDBRANCH  23  27
ENDBRANCH  19  23
ENDBRANCH  17  19
ENDBRANCH   1  17
TORSDOF 8
ENDMDL
MODEL 9
REMARK VINA RESULT:      -7.3      3.067      4.237
REMARK  Name = 
REMARK  10 active torsions:
REMARK  status: ('A' for Active; 'I' for Inactive)
REMARK    1  A    between atoms: C_1  and  C_2
REMARK    2  A    between atoms: C_2  and  C_3
REMARK    3  A    between atoms: C_2  and  C_4
REMARK    4  A    between atoms: C_4  and  N_5
REMARK    5  A    between atoms: C_4  and  P_22
REMARK    6  A    between atoms: N_5  and  S_6
REMARK    7  A    between atoms: S_6  and  C_9
REMARK    8  A    between atoms: C_12  and  C_13
REMARK    9  A    between atoms: P_22  and  O_24
REMARK   10  A    between atoms: P_22  and  O_25
REMARK                            x       y       z     vdW  Elec       q    Type
REMARK                         _______ _______ _______ _____ _____    ______ ____
ROOT
ATOM      1  S   UNL     1       3.865   4.218  17.803  0.00  0.00    +0.000 S 
ATOM      2  O   UNL     1       2.888   3.398  17.121  0.00  0.00    +0.000 OA
ATOM      3  O   UNL     1       4.823   3.675  18.735  0.00  0.00    +0.000 OA
ENDROOT
BRANCH   1   4
ATOM      4  C   UNL     1       3.007   5.529  18.614  0.00  0.00    +0.000 A 
ATOM      5  C   UNL     1       2.928   6.784  18.012  0.00  0.00    +0.000 A 
ATOM      6  C   UNL     1       2.297   7.830  18.693  0.00  0.00    +0.000 A 
ATOM      7  C   UNL     1       1.724   7.640  19.964  0.00  0.00    +0.000 A 
ATOM      8  C   UNL     1       1.797   6.348  20.524  0.00  0.00    +0.000 A 
ATOM      9  C   UNL     1       2.439   5.299  19.863  0.00  0.00    +0.000 A 
BRANCH   7  10
ATOM     10  C   UNL     1       1.073   8.755  20.690  0.00  0.00    +0.000 A 
ATOM     11  C   UNL     1       0.741   9.964  20.044  0.00  0.00    +0.000 A 
ATOM     12  C   UNL     1       0.136  11.023  20.731  0.00  0.00    +0.000 A 
ATOM     13  C   UNL     1      -0.166  10.890  22.082  0.00  0.00    +0.000 A 
ATOM     14  C   UNL     1       0.147   9.706  22.732  0.00  0.00    +0.000 A 
ATOM     15  F   UNL     1      -0.146   9.570  24.032  0.00  0.00    +0.000 F 
ATOM     16  C   UNL     1       0.763   8.656  22.058  0.00  0.00    +0.000 A 
ENDBRANCH   7  10
ENDBRANCH   1   4
BRANCH   1  17
ATOM     17  N   UNL     1       4.748   5.055  16.620  0.00  0.00    +0.000 NA
ATOM     18  H   UNL     1       4.554   6.057  16.738  0.00  0.00    +0.000 HD
BRANCH  17  19
ATOM     19  C   UNL     1       6.237   4.769  16.565  0.00  0.00    +0.000 C 
BRANCH  19  21
ATOM     20  C   UNL     1       7.556   5.087  14.332  0.00  0.00    +0.000 C 
ATOM     21  C   UNL     1       6.587   4.224  15.147  0.00  0.00    +0.000 C 
ATOM     22  C   UNL     1       5.322   3.989  14.309  0.00  0.00    +0.000 C 
ENDBRANCH  19  21
BRANCH  19  23
ATOM     23  P   UNL     1       7.111   6.236  17.221  0.00  0.00    +0.000 P 
ATOM     24  O   UNL     1       6.080   7.202  16.633  0.00  0.00    +0.000 OA
BRANCH  23  25
ATOM     25  O   UNL     1       6.594   5.938  18.754  0.00  0.00    +0.000 OA
ATOM     26  H   UNL     1       7.163   5.266  19.175  0.00  0.00    +0.000 HD
ENDBRANCH  23  25
BRANCH  23  27
ATOM     27  O   UNL     1       7.938   7.623  17.841  0.00  0.00    +0.000 OA
ATOM     28  H   UNL     1       8.614   7.832  17.166  0.00  0.00    +0.000 HD
ENDBRANCH  23  27
ENDBRANCH  19  23
ENDBRANCH  17  19
ENDBRANCH   1  17
TORSDOF 8
ENDMDL
