MODEL 1
REMARK VINA RESULT:      -7.7      0.000      0.000
REMARK  Name = 
REMARK  9 active torsions:
REMARK  status: ('A' for Active; 'I' for Inactive)
REMARK    1  A    between atoms: C_1  and  C_2
REMARK    2  A    between atoms: C_2  and  C_3
REMARK    3  A    between atoms: C_2  and  C_4
REMARK    4  A    between atoms: C_6  and  C_7
REMARK    5  A    between atoms: C_7  and  O_9
REMARK    6  A    between atoms: O_9  and  C_10
REMARK    7  A    between atoms: C_10  and  C_11
REMARK    8  A    between atoms: C_10  and  C_17
REMARK    9  A    between atoms: N_14  and  C_15
REMARK                            x       y       z     vdW  Elec       q    Type
REMARK                         _______ _______ _______ _____ _____    ______ ____
ROOT
ATOM      1  O   UNL     1       5.586   4.380  17.227  0.00  0.00    +0.000 OA
ENDROOT
BRANCH   1   2
ATOM      2  C   UNL     1       6.854   4.635  16.798  0.00  0.00    +0.000 C 
ATOM      3  O   UNL     1       7.784   4.900  17.546  0.00  0.00    +0.000 OA
BRANCH   2   6
ATOM      4  C   UNL     1       6.714   4.110  13.197  0.00  0.00    +0.000 A 
ATOM      5  C   UNL     1       6.314   3.653  14.478  0.00  0.00    +0.000 A 
ATOM      6  C   UNL     1       6.935   4.505  15.365  0.00  0.00    +0.000 A 
ATOM      7  O   UNL     1       7.712   5.373  14.658  0.00  0.00    +0.000 OA
ATOM      8  N   UNL     1       7.573   5.131  13.304  0.00  0.00    +0.000 NA
BRANCH   4  10
ATOM      9  C   UNL     1       7.052   2.399  11.395  0.00  0.00    +0.000 C 
ATOM     10  C   UNL     1       6.252   3.625  11.851  0.00  0.00    +0.000 C 
ATOM     11  C   UNL     1       4.753   3.318  11.818  0.00  0.00    +0.000 C 
ENDBRANCH   4  10
ENDBRANCH   2   6
ENDBRANCH   1   2
BRANCH   1  12
ATOM     12  C   UNL     1       4.980   5.412  18.053  0.00  0.00    +0.000 C 
BRANCH  12  13
ATOM     13  C   UNL     1       3.664   4.907  18.592  0.00  0.00    +0.000 A 
ATOM     14  C   UNL     1       2.519   4.515  17.855  0.00  0.00    +0.000 A 
ATOM     15  N   UNL     1       1.535   4.067  18.637  0.00  0.00    +0.000 NA
ATOM     16  N   UNL     1       2.045   4.148  19.876  0.00  0.00    +0.000 N 
ATOM     17  C   UNL     1       1.297   3.654  21.007  0.00  0.00    +0.000 C 
ATOM     18  C   UNL     1       3.297   4.687  19.907  0.00  0.00    +0.000 A 
ENDBRANCH  12  13
BRANCH  12  19
ATOM     19  C   UNL     1       4.829   6.763  17.304  0.00  0.00    +0.000 C 
ATOM     20  F   UNL     1       5.955   7.514  17.354  0.00  0.00    +0.000 F 
ATOM     21  F   UNL     1       4.535   6.608  15.990  0.00  0.00    +0.000 F 
ATOM     22  F   UNL     1       3.825   7.499  17.843  0.00  0.00    +0.000 F 
ENDBRANCH  12  19
ENDBRANCH   1  12
TORSDOF 6
ENDMDL
MODEL 2
REMARK VINA RESULT:      -7.5      2.572      3.010
REMARK  Name = 
REMARK  9 active torsions:
REMARK  status: ('A' for Active; 'I' for Inactive)
REMARK    1  A    between atoms: C_1  and  C_2
REMARK    2  A    between atoms: C_2  and  C_3
REMARK    3  A    between atoms: C_2  and  C_4
REMARK    4  A    between atoms: C_6  and  C_7
REMARK    5  A    between atoms: C_7  and  O_9
REMARK    6  A    between atoms: O_9  and  C_10
REMARK    7  A    between atoms: C_10  and  C_11
REMARK    8  A    between atoms: C_10  and  C_17
REMARK    9  A    between atoms: N_14  and  C_15
REMARK                            x       y       z     vdW  Elec       q    Type
REMARK                         _______ _______ _______ _____ _____    ______ ____
ROOT
ATOM      1  O   UNL     1       4.703   5.546  17.887  0.00  0.00    +0.000 OA
ENDROOT
BRANCH   1   2
ATOM      2  C   UNL     1       5.562   6.337  17.184  0.00  0.00    +0.000 C 
ATOM      3  O   UNL     1       5.858   7.477  17.511  0.00  0.00    +0.000 OA
BRANCH   2   6
ATOM      4  C   UNL     1       6.508   4.478  14.200  0.00  0.00    +0.000 A 
ATOM      5  C   UNL     1       5.511   4.725  15.175  0.00  0.00    +0.000 A 
ATOM      6  C   UNL     1       6.086   5.623  16.047  0.00  0.00    +0.000 A 
ATOM      7  O   UNL     1       7.371   5.844  15.653  0.00  0.00    +0.000 OA
ATOM      8  N   UNL     1       7.636   5.133  14.497  0.00  0.00    +0.000 NA
BRANCH   4  10
ATOM      9  C   UNL     1       4.936   3.516  12.500  0.00  0.00    +0.000 C 
ATOM     10  C   UNL     1       6.397   3.661  12.942  0.00  0.00    +0.000 C 
ATOM     11  C   UNL     1       7.240   4.225  11.796  0.00  0.00    +0.000 C 
ENDBRANCH   4  10
ENDBRANCH   2   6
ENDBRANCH   1   2
BRANCH   1  12
ATOM     12  C   UNL     1       3.296   5.688  17.549  0.00  0.00    +0.000 C 
BRANCH  12  13
ATOM     13  C   UNL     1       2.692   6.785  18.390  0.00  0.00    +0.000 A 
ATOM     14  C   UNL     1       2.227   8.052  17.957  0.00  0.00    +0.000 A 
ATOM     15  N   UNL     1       1.699   8.771  18.950  0.00  0.00    +0.000 NA
ATOM     16  N   UNL     1       1.803   7.968  20.021  0.00  0.00    +0.000 N 
ATOM     17  C   UNL     1       1.243   8.367  21.289  0.00  0.00    +0.000 C 
ATOM     18  C   UNL     1       2.431   6.788  19.747  0.00  0.00    +0.000 A 
ENDBRANCH  12  13
BRANCH  12  19
ATOM     19  C   UNL     1       2.516   4.351  17.678  0.00  0.00    +0.000 C 
ATOM     20  F   UNL     1       2.844   3.463  16.710  0.00  0.00    +0.000 F 
ATOM     21  F   UNL     1       2.735   3.723  18.858  0.00  0.00    +0.000 F 
ATOM     22  F   UNL     1       1.180   4.569  17.595  0.00  0.00    +0.000 F 
ENDBRANCH  12  19
ENDBRANCH   1  12
TORSDOF 6
ENDMDL
MODEL 3
REMARK VINA RESULT:      -7.5      1.433      2.022
REMARK  Name = 
REMARK  9 active torsions:
REMARK  status: ('A' for Active; 'I' for Inactive)
REMARK    1  A    between atoms: C_1  and  C_2
REMARK    2  A    between atoms: C_2  and  C_3
REMARK    3  A    between atoms: C_2  and  C_4
REMARK    4  A    between atoms: C_6  and  C_7
REMARK    5  A    between atoms: C_7  and  O_9
REMARK    6  A    between atoms: O_9  and  C_10
REMARK    7  A    between atoms: C_10  and  C_11
REMARK    8  A    between atoms: C_10  and  C_17
REMARK    9  A    between atoms: N_14  and  C_15
REMARK                            x       y       z     vdW  Elec       q    Type
REMARK                         _______ _______ _______ _____ _____    ______ ____
ROOT
ATOM      1  O   UNL     1       4.188   5.811  17.399  0.00  0.00    +0.000 OA
ENDROOT
BRANCH   1   2
ATOM      2  C   UNL     1       5.457   5.339  17.556  0.00  0.00    +0.000 C 
ATOM      3  O   UNL     1       5.997   5.192  18.643  0.00  0.00    +0.000 OA
BRANCH   2   6
ATOM      4  C   UNL     1       6.556   4.346  14.230  0.00  0.00    +0.000 A 
ATOM      5  C   UNL     1       5.654   4.114  15.298  0.00  0.00    +0.000 A 
ATOM      6  C   UNL     1       6.032   5.007  16.277  0.00  0.00    +0.000 A 
ATOM      7  O   UNL     1       7.133   5.682  15.844  0.00  0.00    +0.000 OA
ATOM      8  N   UNL     1       7.460   5.274  14.565  0.00  0.00    +0.000 NA
BRANCH   4  10
ATOM      9  C   UNL     1       5.115   3.501  12.360  0.00  0.00    +0.000 C 
ATOM     10  C   UNL     1       6.546   3.735  12.856  0.00  0.00    +0.000 C 
ATOM     11  C   UNL     1       7.328   4.565  11.836  0.00  0.00    +0.000 C 
ENDBRANCH   4  10
ENDBRANCH   2   6
ENDBRANCH   1   2
BRANCH   1  12
ATOM     12  C   UNL     1       3.523   6.250  18.614  0.00  0.00    +0.000 C 
BRANCH  12  13
ATOM     13  C   UNL     1       2.676   5.123  19.151  0.00  0.00    +0.000 A 
ATOM     14  C   UNL     1       1.868   4.220  18.416  0.00  0.00    +0.000 A 
ATOM     15  N   UNL     1       1.285   3.304  19.193  0.00  0.00    +0.000 NA
ATOM     16  N   UNL     1       1.728   3.598  20.426  0.00  0.00    +0.000 N 
ATOM     17  C   UNL     1       1.385   2.755  21.545  0.00  0.00    +0.000 C 
ATOM     18  C   UNL     1       2.525   4.705  20.460  0.00  0.00    +0.000 A 
ENDBRANCH  12  13
BRANCH  12  19
ATOM     19  C   UNL     1       2.705   7.554  18.409  0.00  0.00    +0.000 C 
ATOM     20  F   UNL     1       1.653   7.381  17.574  0.00  0.00    +0.000 F 
ATOM     21  F   UNL     1       2.194   8.044  19.564  0.00  0.00    +0.000 F 
ATOM     22  F   UNL     1       3.485   8.530  17.884  0.00  0.00    +0.000 F 
ENDBRANCH  12  19
ENDBRANCH   1  12
TORSDOF 6
ENDMDL
MODEL 4
REMARK VINA RESULT:      -7.3      1.490      6.076
REMARK  Name = 
REMARK  9 active torsions:
REMARK  status: ('A' for Active; 'I' for Inactive)
REMARK    1  A    between atoms: C_1  and  C_2
REMARK    2  A    between atoms: C_2  and  C_3
REMARK    3  A    between atoms: C_2  and  C_4
REMARK    4  A    between atoms: C_6  and  C_7
REMARK    5  A    between atoms: C_7  and  O_9
REMARK    6  A    between atoms: O_9  and  C_10
REMARK    7  A    between atoms: C_10  and  C_11
REMARK    8  A    between atoms: C_10  and  C_17
REMARK    9  A    between atoms: N_14  and  C_15
REMARK                            x       y       z     vdW  Elec       q    Type
REMARK                         _______ _______ _______ _____ _____    ______ ____
ROOT
ATOM      1  O   UNL     1       6.529   4.803  17.610  0.00  0.00    +0.000 OA
ENDROOT
BRANCH   1   2
ATOM      2  C   UNL     1       6.164   4.848  18.922  0.00  0.00    +0.000 C 
ATOM      3  O   UNL     1       6.800   5.439  19.784  0.00  0.00    +0.000 OA
BRANCH   2   6
ATOM      4  C   UNL     1       2.864   3.424  19.502  0.00  0.00    +0.000 A 
ATOM      5  C   UNL     1       3.751   4.501  19.754  0.00  0.00    +0.000 A 
ATOM      6  C   UNL     1       4.923   4.144  19.124  0.00  0.00    +0.000 A 
ATOM      7  O   UNL     1       4.765   2.901  18.589  0.00  0.00    +0.000 OA
ATOM      8  N   UNL     1       3.479   2.451  18.821  0.00  0.00    +0.000 NA
BRANCH   4  10
ATOM      9  C   UNL     1       0.664   2.386  18.892  0.00  0.00    +0.000 C 
ATOM     10  C   UNL     1       1.406   3.320  19.855  0.00  0.00    +0.000 C 
ATOM     11  C   UNL     1       1.179   2.872  21.301  0.00  0.00    +0.000 C 
ENDBRANCH   4  10
ENDBRANCH   2   6
ENDBRANCH   1   2
BRANCH   1  12
ATOM     12  C   UNL     1       5.514   5.227  16.659  0.00  0.00    +0.000 C 
BRANCH  12  13
ATOM     13  C   UNL     1       5.924   4.797  15.271  0.00  0.00    +0.000 A 
ATOM     14  C   UNL     1       7.159   5.037  14.619  0.00  0.00    +0.000 A 
ATOM     15  N   UNL     1       7.218   4.474  13.411  0.00  0.00    +0.000 NA
ATOM     16  N   UNL     1       6.033   3.855  13.285  0.00  0.00    +0.000 N 
ATOM     17  C   UNL     1       5.754   3.042  12.126  0.00  0.00    +0.000 C 
ATOM     18  C   UNL     1       5.206   4.057  14.351  0.00  0.00    +0.000 A 
ENDBRANCH  12  13
BRANCH  12  19
ATOM     19  C   UNL     1       5.221   6.750  16.740  0.00  0.00    +0.000 C 
ATOM     20  F   UNL     1       4.259   7.046  17.645  0.00  0.00    +0.000 F 
ATOM     21  F   UNL     1       6.308   7.479  17.090  0.00  0.00    +0.000 F 
ATOM     22  F   UNL     1       4.808   7.222  15.538  0.00  0.00    +0.000 F 
ENDBRANCH  12  19
ENDBRANCH   1  12
TORSDOF 6
ENDMDL
MODEL 5
REMARK VINA RESULT:      -7.3      1.717      2.305
REMARK  Name = 
REMARK  9 active torsions:
REMARK  status: ('A' for Active; 'I' for Inactive)
REMARK    1  A    between atoms: C_1  and  C_2
REMARK    2  A    between atoms: C_2  and  C_3
REMARK    3  A    between atoms: C_2  and  C_4
REMARK    4  A    between atoms: C_6  and  C_7
REMARK    5  A    between atoms: C_7  and  O_9
REMARK    6  A    between atoms: O_9  and  C_10
REMARK    7  A    between atoms: C_10  and  C_11
REMARK    8  A    between atoms: C_10  and  C_17
REMARK    9  A    between atoms: N_14  and  C_15
REMARK                            x       y       z     vdW  Elec       q    Type
REMARK                         _______ _______ _______ _____ _____    ______ ____
ROOT
ATOM      1  O   UNL     1       4.214   6.540  16.874  0.00  0.00    +0.000 OA
ENDROOT
BRANCH   1   2
ATOM      2  C   UNL     1       5.576   6.583  16.841  0.00  0.00    +0.000 C 
ATOM      3  O   UNL     1       6.256   7.214  17.638  0.00  0.00    +0.000 OA
BRANCH   2   6
ATOM      4  C   UNL     1       6.469   4.459  14.022  0.00  0.00    +0.000 A 
ATOM      5  C   UNL     1       5.464   4.845  14.942  0.00  0.00    +0.000 A 
ATOM      6  C   UNL     1       6.079   5.756  15.773  0.00  0.00    +0.000 A 
ATOM      7  O   UNL     1       7.389   5.853  15.412  0.00  0.00    +0.000 OA
ATOM      8  N   UNL     1       7.634   5.048  14.317  0.00  0.00    +0.000 NA
BRANCH   4  10
ATOM      9  C   UNL     1       4.875   3.466  12.360  0.00  0.00    +0.000 C 
ATOM     10  C   UNL     1       6.335   3.569  12.817  0.00  0.00    +0.000 C 
ATOM     11  C   UNL     1       7.221   4.015  11.653  0.00  0.00    +0.000 C 
ENDBRANCH   4  10
ENDBRANCH   2   6
ENDBRANCH   1   2
BRANCH   1  12
ATOM     12  C   UNL     1       3.614   6.572  18.198  0.00  0.00    +0.000 C 
BRANCH  12  13
ATOM     13  C   UNL     1       3.115   5.192  18.550  0.00  0.00    +0.000 A 
ATOM     14  C   UNL     1       3.736   4.235  19.390  0.00  0.00    +0.000 A 
ATOM     15  N   UNL     1       3.005   3.128  19.535  0.00  0.00    +0.000 NA
ATOM     16  N   UNL     1       1.903   3.373  18.808  0.00  0.00    +0.000 N 
ATOM     17  C   UNL     1       0.812   2.428  18.795  0.00  0.00    +0.000 C 
ATOM     18  C   UNL     1       1.942   4.574  18.162  0.00  0.00    +0.000 A 
ENDBRANCH  12  13
BRANCH  12  19
ATOM     19  C   UNL     1       2.502   7.649  18.323  0.00  0.00    +0.000 C 
ATOM     20  F   UNL     1       1.494   7.459  17.439  0.00  0.00    +0.000 F 
ATOM     21  F   UNL     1       1.929   7.675  19.550  0.00  0.00    +0.000 F 
ATOM     22  F   UNL     1       3.009   8.887  18.103  0.00  0.00    +0.000 F 
ENDBRANCH  12  19
ENDBRANCH   1  12
TORSDOF 6
ENDMDL
MODEL 6
REMARK VINA RESULT:      -7.2      0.726      1.265
REMARK  Name = 
REMARK  9 active torsions:
REMARK  status: ('A' for Active; 'I' for Inactive)
REMARK    1  A    between atoms: C_1  and  C_2
REMARK    2  A    between atoms: C_2  and  C_3
REMARK    3  A    between atoms: C_2  and  C_4
REMARK    4  A    between atoms: C_6  and  C_7
REMARK    5  A    between atoms: C_7  and  O_9
REMARK    6  A    between atoms: O_9  and  C_10
REMARK    7  A    between atoms: C_10  and  C_11
REMARK    8  A    between atoms: C_10  and  C_17
REMARK    9  A    between atoms: N_14  and  C_15
REMARK                            x       y       z     vdW  Elec       q    Type
REMARK                         _______ _______ _______ _____ _____    ______ ____
ROOT
ATOM      1  O   UNL     1       5.720   4.460  16.964  0.00  0.00    +0.000 OA
ENDROOT
BRANCH   1   2
ATOM      2  C   UNL     1       6.864   4.888  16.359  0.00  0.00    +0.000 C 
ATOM      3  O   UNL     1       7.774   5.454  16.948  0.00  0.00    +0.000 OA
BRANCH   2   6
ATOM      4  C   UNL     1       6.471   3.863  12.887  0.00  0.00    +0.000 A 
ATOM      5  C   UNL     1       6.089   3.651  14.236  0.00  0.00    +0.000 A 
ATOM      6  C   UNL     1       6.852   4.541  14.960  0.00  0.00    +0.000 A 
ATOM      7  O   UNL     1       7.686   5.194  14.102  0.00  0.00    +0.000 OA
ATOM      8  N   UNL     1       7.447   4.775  12.807  0.00  0.00    +0.000 NA
BRANCH   4  10
ATOM      9  C   UNL     1       6.310   1.783  11.496  0.00  0.00    +0.000 C 
ATOM     10  C   UNL     1       5.883   3.247  11.647  0.00  0.00    +0.000 C 
ATOM     11  C   UNL     1       4.358   3.358  11.600  0.00  0.00    +0.000 C 
ENDBRANCH   4  10
ENDBRANCH   2   6
ENDBRANCH   1   2
BRANCH   1  12
ATOM     12  C   UNL     1       5.112   5.396  17.896  0.00  0.00    +0.000 C 
BRANCH  12  13
ATOM     13  C   UNL     1       3.963   4.717  18.601  0.00  0.00    +0.000 A 
ATOM     14  C   UNL     1       3.531   4.911  19.937  0.00  0.00    +0.000 A 
ATOM     15  N   UNL     1       2.448   4.190  20.235  0.00  0.00    +0.000 NA
ATOM     16  N   UNL     1       2.165   3.545  19.092  0.00  0.00    +0.000 N 
ATOM     17  C   UNL     1       0.983   2.725  18.991  0.00  0.00    +0.000 C 
ATOM     18  C   UNL     1       3.069   3.791  18.100  0.00  0.00    +0.000 A 
ENDBRANCH  12  13
BRANCH  12  19
ATOM     19  C   UNL     1       4.681   6.722  17.213  0.00  0.00    +0.000 C 
ATOM     20  F   UNL     1       4.594   6.609  15.866  0.00  0.00    +0.000 F 
ATOM     21  F   UNL     1       3.472   7.164  17.634  0.00  0.00    +0.000 F 
ATOM     22  F   UNL     1       5.571   7.709  17.482  0.00  0.00    +0.000 F 
ENDBRANCH  12  19
ENDBRANCH   1  12
TORSDOF 6
ENDMDL
MODEL 7
REMARK VINA RESULT:      -7.2      2.663      3.250
REMARK  Name = 
REMARK  9 active torsions:
REMARK  status: ('A' for Active; 'I' for Inactive)
REMARK    1  A    between atoms: C_1  and  C_2
REMARK    2  A    between atoms: C_2  and  C_3
REMARK    3  A    between atoms: C_2  and  C_4
REMARK    4  A    between atoms: C_6  and  C_7
REMARK    5  A    between atoms: C_7  and  O_9
REMARK    6  A    between atoms: O_9  and  C_10
REMARK    7  A    between atoms: C_10  and  C_11
REMARK    8  A    between atoms: C_10  and  C_17
REMARK    9  A    between atoms: N_14  and  C_15
REMARK                            x       y       z     vdW  Elec       q    Type
REMARK                         _______ _______ _______ _____ _____    ______ ____
ROOT
ATOM      1  O   UNL     1       4.326   4.308  18.786  0.00  0.00    +0.000 OA
ENDROOT
BRANCH   1   2
ATOM      2  C   UNL     1       5.515   4.963  18.668  0.00  0.00    +0.000 C 
ATOM      3  O   UNL     1       6.147   5.401  19.619  0.00  0.00    +0.000 OA
BRANCH   2   6
ATOM      4  C   UNL     1       6.449   4.724  15.157  0.00  0.00    +0.000 A 
ATOM      5  C   UNL     1       6.276   4.041  16.386  0.00  0.00    +0.000 A 
ATOM      6  C   UNL     1       5.922   5.021  17.287  0.00  0.00    +0.000 A 
ATOM      7  O   UNL     1       5.948   6.224  16.648  0.00  0.00    +0.000 OA
ATOM      8  N   UNL     1       6.273   6.041  15.317  0.00  0.00    +0.000 NA
BRANCH   4  10
ATOM      9  C   UNL     1       5.430   3.786  13.066  0.00  0.00    +0.000 C 
ATOM     10  C   UNL     1       6.729   4.140  13.800  0.00  0.00    +0.000 C 
ATOM     11  C   UNL     1       7.592   5.056  12.930  0.00  0.00    +0.000 C 
ENDBRANCH   4  10
ENDBRANCH   2   6
ENDBRANCH   1   2
BRANCH   1  12
ATOM     12  C   UNL     1       3.222   4.861  18.020  0.00  0.00    +0.000 C 
BRANCH  12  13
ATOM     13  C   UNL     1       2.747   6.133  18.680  0.00  0.00    +0.000 A 
ATOM     14  C   UNL     1       2.669   7.428  18.110  0.00  0.00    +0.000 A 
ATOM     15  N   UNL     1       2.155   8.328  18.951  0.00  0.00    +0.000 NA
ATOM     16  N   UNL     1       1.881   7.617  20.057  0.00  0.00    +0.000 N 
ATOM     17  C   UNL     1       1.214   8.236  21.176  0.00  0.00    +0.000 C 
ATOM     18  C   UNL     1       2.260   6.310  19.961  0.00  0.00    +0.000 A 
ENDBRANCH  12  13
BRANCH  12  19
ATOM     19  C   UNL     1       2.070   3.841  17.813  0.00  0.00    +0.000 C 
ATOM     20  F   UNL     1       0.929   4.427  17.377  0.00  0.00    +0.000 F 
ATOM     21  F   UNL     1       2.372   2.881  16.906  0.00  0.00    +0.000 F 
ATOM     22  F   UNL     1       1.782   3.203  18.974  0.00  0.00    +0.000 F 
ENDBRANCH  12  19
ENDBRANCH   1  12
TORSDOF 6
ENDMDL
MODEL 8
REMARK VINA RESULT:      -7.2      1.427      2.003
REMARK  Name = 
REMARK  9 active torsions:
REMARK  status: ('A' for Active; 'I' for Inactive)
REMARK    1  A    between atoms: C_1  and  C_2
REMARK    2  A    between atoms: C_2  and  C_3
REMARK    3  A    between atoms: C_2  and  C_4
REMARK    4  A    between atoms: C_6  and  C_7
REMARK    5  A    between atoms: C_7  and  O_9
REMARK    6  A    between atoms: O_9  and  C_10
REMARK    7  A    between atoms: C_10  and  C_11
REMARK    8  A    between atoms: C_10  and  C_17
REMARK    9  A    between atoms: N_14  and  C_15
REMARK                            x       y       z     vdW  Elec       q    Type
REMARK                         _______ _______ _______ _____ _____    ______ ____
ROOT
ATOM      1  O   UNL     1       4.635   5.133  17.505  0.00  0.00    +0.000 OA
ENDROOT
BRANCH   1   2
ATOM      2  C   UNL     1       5.994   5.051  17.448  0.00  0.00    +0.000 C 
ATOM      3  O   UNL     1       6.721   5.113  18.429  0.00  0.00    +0.000 OA
BRANCH   2   6
ATOM      4  C   UNL     1       6.757   4.319  13.963  0.00  0.00    +0.000 A 
ATOM      5  C   UNL     1       6.064   3.920  15.134  0.00  0.00    +0.000 A 
ATOM      6  C   UNL     1       6.429   4.844  16.089  0.00  0.00    +0.000 A 
ATOM      7  O   UNL     1       7.336   5.699  15.539  0.00  0.00    +0.000 OA
ATOM      8  N   UNL     1       7.540   5.376  14.211  0.00  0.00    +0.000 NA
BRANCH   4  10
ATOM      9  C   UNL     1       5.192   3.462  12.202  0.00  0.00    +0.000 C 
ATOM     10  C   UNL     1       6.651   3.742  12.579  0.00  0.00    +0.000 C 
ATOM     11  C   UNL     1       7.309   4.627  11.519  0.00  0.00    +0.000 C 
ENDBRANCH   4  10
ENDBRANCH   2   6
ENDBRANCH   1   2
BRANCH   1  12
ATOM     12  C   UNL     1       4.084   5.601  18.766  0.00  0.00    +0.000 C 
BRANCH  12  13
ATOM     13  C   UNL     1       3.514   4.427  19.524  0.00  0.00    +0.000 A 
ATOM     14  C   UNL     1       4.033   3.110  19.599  0.00  0.00    +0.000 A 
ATOM     15  N   UNL     1       3.314   2.321  20.400  0.00  0.00    +0.000 NA
ATOM     16  N   UNL     1       2.342   3.126  20.859  0.00  0.00    +0.000 N 
ATOM     17  C   UNL     1       1.404   2.648  21.845  0.00  0.00    +0.000 C 
ATOM     18  C   UNL     1       2.392   4.382  20.329  0.00  0.00    +0.000 A 
ENDBRANCH  12  13
BRANCH  12  19
ATOM     19  C   UNL     1       3.045   6.739  18.577  0.00  0.00    +0.000 C 
ATOM     20  F   UNL     1       1.930   6.322  17.930  0.00  0.00    +0.000 F 
ATOM     21  F   UNL     1       2.625   7.269  19.751  0.00  0.00    +0.000 F 
ATOM     22  F   UNL     1       3.576   7.757  17.858  0.00  0.00    +0.000 F 
ENDBRANCH  12  19
ENDBRANCH   1  12
TORSDOF 6
ENDMDL
MODEL 9
REMARK VINA RESULT:      -7.2      1.336      1.800
REMARK  Name = 
REMARK  9 active torsions:
REMARK  status: ('A' for Active; 'I' for Inactive)
REMARK    1  A    between atoms: C_1  and  C_2
REMARK    2  A    between atoms: C_2  and  C_3
REMARK    3  A    between atoms: C_2  and  C_4
REMARK    4  A    between atoms: C_6  and  C_7
REMARK    5  A    between atoms: C_7  and  O_9
REMARK    6  A    between atoms: O_9  and  C_10
REMARK    7  A    between atoms: C_10  and  C_11
REMARK    8  A    between atoms: C_10  and  C_17
REMARK    9  A    between atoms: N_14  and  C_15
REMARK                            x       y       z     vdW  Elec       q    Type
REMARK                         _______ _______ _______ _____ _____    ______ ____
ROOT
ATOM      1  O   UNL     1       4.718   5.223  16.994  0.00  0.00    +0.000 OA
ENDROOT
BRANCH   1   2
ATOM      2  C   UNL     1       5.952   5.655  16.610  0.00  0.00    +0.000 C 
ATOM      3  O   UNL     1       6.671   6.361  17.304  0.00  0.00    +0.000 OA
BRANCH   2   6
ATOM      4  C   UNL     1       6.408   4.267  13.275  0.00  0.00    +0.000 A 
ATOM      5  C   UNL     1       5.594   4.324  14.434  0.00  0.00    +0.000 A 
ATOM      6  C   UNL     1       6.286   5.130  15.311  0.00  0.00    +0.000 A 
ATOM      7  O   UNL     1       7.471   5.476  14.735  0.00  0.00    +0.000 OA
ATOM      8  N   UNL     1       7.548   4.942  13.462  0.00  0.00    +0.000 NA
BRANCH   4  10
ATOM      9  C   UNL     1       7.003   2.408  11.701  0.00  0.00    +0.000 C 
ATOM     10  C   UNL     1       6.099   3.620  11.954  0.00  0.00    +0.000 C 
ATOM     11  C   UNL     1       4.629   3.216  11.824  0.00  0.00    +0.000 C 
ENDBRANCH   4  10
ENDBRANCH   2   6
ENDBRANCH   1   2
BRANCH   1  12
ATOM     12  C   UNL     1       4.262   5.689  18.294  0.00  0.00    +0.000 C 
BRANCH  12  13
ATOM     13  C   UNL     1       3.891   4.499  19.145  0.00  0.00    +0.000 A 
ATOM     14  C   UNL     1       4.576   3.263  19.253  0.00  0.00    +0.000 A 
ATOM     15  N   UNL     1       4.010   2.439  20.136  0.00  0.00    +0.000 NA
ATOM     16  N   UNL     1       2.972   3.143  20.616  0.00  0.00    +0.000 N 
ATOM     17  C   UNL     1       2.160   2.611  21.683  0.00  0.00    +0.000 C 
ATOM     18  C   UNL     1       2.831   4.363  20.022  0.00  0.00    +0.000 A 
ENDBRANCH  12  13
BRANCH  12  19
ATOM     19  C   UNL     1       3.105   6.719  18.187  0.00  0.00    +0.000 C 
ATOM     20  F   UNL     1       1.931   6.146  17.830  0.00  0.00    +0.000 F 
ATOM     21  F   UNL     1       2.871   7.371  19.350  0.00  0.00    +0.000 F 
ATOM     22  F   UNL     1       3.393   7.666  17.261  0.00  0.00    +0.000 F 
ENDBRANCH  12  19
ENDBRANCH   1  12
TORSDOF 6
ENDMDL
