MODEL 1
REMARK VINA RESULT:      -8.0      0.000      0.000
REMARK  Name = 
REMARK  9 active torsions:
REMARK  status: ('A' for Active; 'I' for Inactive)
REMARK    1  A    between atoms: C_1  and  C_2
REMARK    2  A    between atoms: C_6  and  C_7
REMARK    3  A    between atoms: C_7  and  C_8
REMARK    4  A    between atoms: C_7  and  O_9
REMARK    5  A    between atoms: O_9  and  C_10
REMARK    6  A    between atoms: N_16  and  C_17
REMARK    7  A    between atoms: C_17  and  C_18
REMARK    8  A    between atoms: C_18  and  C_19
REMARK    9  A    between atoms: C_19  and  O_21
REMARK                            x       y       z     vdW  Elec       q    Type
REMARK                         _______ _______ _______ _____ _____    ______ ____
ROOT
ATOM      1  C   UNL     1       3.585   5.686  17.669  0.00  0.00    +0.000 A 
ATOM      2  C   UNL     1       3.183   6.982  17.283  0.00  0.00    +0.000 A 
ATOM      3  C   UNL     1       2.529   7.780  18.211  0.00  0.00    +0.000 A 
ATOM      4  O   UNL     1       2.125   9.096  18.026  0.00  0.00    +0.000 OA
ATOM      5  C   UNL     1       1.572   9.428  19.275  0.00  0.00    +0.000 A 
ATOM      6  O   UNL     1       1.133  10.542  19.539  0.00  0.00    +0.000 OA
ATOM      7  N   UNL     1       1.583   8.343  20.131  0.00  0.00    +0.000 N 
ATOM      8  C   UNL     1       2.240   7.323  19.477  0.00  0.00    +0.000 A 
ATOM      9  C   UNL     1       2.645   6.083  19.901  0.00  0.00    +0.000 A 
ATOM     10  C   UNL     1       3.372   5.281  19.007  0.00  0.00    +0.000 A 
ATOM     11 CL   UNL     1       4.142   3.913  19.736  0.00  0.00    +0.000 Cl
ENDROOT
BRANCH   1  12
ATOM     12  O   UNL     1       4.251   4.980  16.692  0.00  0.00    +0.000 OA
BRANCH  12  13
ATOM     13  C   UNL     1       5.379   5.598  16.019  0.00  0.00    +0.000 C 
ATOM     14  C   UNL     1       5.908   4.564  15.013  0.00  0.00    +0.000 C 
BRANCH  13  20
ATOM     15  C   UNL     1       8.180   9.244  17.850  0.00  0.00    +0.000 C 
ATOM     16  C   UNL     1       7.775   7.796  17.859  0.00  0.00    +0.000 A 
ATOM     17  C   UNL     1       8.287   6.961  18.841  0.00  0.00    +0.000 A 
ATOM     18  C   UNL     1       7.890   5.626  18.859  0.00  0.00    +0.000 A 
ATOM     19  C   UNL     1       6.980   5.169  17.916  0.00  0.00    +0.000 A 
ATOM     20  C   UNL     1       6.468   6.063  16.982  0.00  0.00    +0.000 A 
ATOM     21  N   UNL     1       6.872   7.370  16.937  0.00  0.00    +0.000 NA
ENDBRANCH  13  20
ENDBRANCH  12  13
ENDBRANCH   1  12
BRANCH   7  22
ATOM     22  C   UNL     1       1.180   8.336  21.527  0.00  0.00    +0.000 C 
BRANCH  22  23
ATOM     23  C   UNL     1      -0.205   8.945  21.742  0.00  0.00    +0.000 C 
BRANCH  23  24
ATOM     24  C   UNL     1      -0.185   9.953  22.862  0.00  0.00    +0.000 C 
ATOM     25  O   UNL     1      -0.270  11.162  22.713  0.00  0.00    +0.000 OA
BRANCH  24  26
ATOM     26  O   UNL     1       0.002   9.387  24.077  0.00  0.00    +0.000 OA
ATOM     27  H   UNL     1       0.128   8.419  24.053  0.00  0.00    +0.000 HD
ENDBRANCH  24  26
ENDBRANCH  23  24
ENDBRANCH  22  23
ENDBRANCH   7  22
TORSDOF 7
ENDMDL
MODEL 2
REMARK VINA RESULT:      -7.7      2.428      7.447
REMARK  Name = 
REMARK  9 active torsions:
REMARK  status: ('A' for Active; 'I' for Inactive)
REMARK    1  A    between atoms: C_1  and  C_2
REMARK    2  A    between atoms: C_6  and  C_7
REMARK    3  A    between atoms: C_7  and  C_8
REMARK    4  A    between atoms: C_7  and  O_9
REMARK    5  A    between atoms: O_9  and  C_10
REMARK    6  A    between atoms: N_16  and  C_17
REMARK    7  A    between atoms: C_17  and  C_18
REMARK    8  A    between atoms: C_18  and  C_19
REMARK    9  A    between atoms: C_19  and  O_21
REMARK                            x       y       z     vdW  Elec       q    Type
REMARK                         _______ _______ _______ _____ _____    ______ ____
ROOT
ATOM      1  C   UNL     1       2.206   7.006  19.675  0.00  0.00    +0.000 A 
ATOM      2  C   UNL     1       2.643   7.594  18.468  0.00  0.00    +0.000 A 
ATOM      3  C   UNL     1       3.688   6.995  17.777  0.00  0.00    +0.000 A 
ATOM      4  O   UNL     1       4.199   7.395  16.550  0.00  0.00    +0.000 OA
ATOM      5  C   UNL     1       5.188   6.429  16.297  0.00  0.00    +0.000 A 
ATOM      6  O   UNL     1       5.854   6.406  15.268  0.00  0.00    +0.000 OA
ATOM      7  N   UNL     1       5.305   5.546  17.354  0.00  0.00    +0.000 N 
ATOM      8  C   UNL     1       4.319   5.871  18.259  0.00  0.00    +0.000 A 
ATOM      9  C   UNL     1       3.900   5.250  19.409  0.00  0.00    +0.000 A 
ATOM     10  C   UNL     1       2.799   5.791  20.091  0.00  0.00    +0.000 A 
ATOM     11 CL   UNL     1       2.126   4.754  21.302  0.00  0.00    +0.000 Cl
ENDROOT
BRANCH   1  12
ATOM     12  O   UNL     1       1.148   7.653  20.273  0.00  0.00    +0.000 OA
BRANCH  12  13
ATOM     13  C   UNL     1       1.306   9.036  20.685  0.00  0.00    +0.000 C 
ATOM     14  C   UNL     1       1.295   9.040  22.221  0.00  0.00    +0.000 C 
BRANCH  13  20
ATOM     15  C   UNL     1      -1.923  10.090  17.085  0.00  0.00    +0.000 C 
ATOM     16  C   UNL     1      -1.305  10.441  18.410  0.00  0.00    +0.000 A 
ATOM     17  C   UNL     1      -1.830  11.497  19.138  0.00  0.00    +0.000 A 
ATOM     18  C   UNL     1      -1.268  11.802  20.377  0.00  0.00    +0.000 A 
ATOM     19  C   UNL     1      -0.221  11.033  20.862  0.00  0.00    +0.000 A 
ATOM     20  C   UNL     1       0.235   9.958  20.106  0.00  0.00    +0.000 A 
ATOM     21  N   UNL     1      -0.289   9.667  18.876  0.00  0.00    +0.000 NA
ENDBRANCH  13  20
ENDBRANCH  12  13
ENDBRANCH   1  12
BRANCH   7  22
ATOM     22  C   UNL     1       6.156   4.369  17.408  0.00  0.00    +0.000 C 
BRANCH  22  23
ATOM     23  C   UNL     1       7.610   4.708  17.730  0.00  0.00    +0.000 C 
BRANCH  23  24
ATOM     24  C   UNL     1       7.699   5.648  18.905  0.00  0.00    +0.000 C 
ATOM     25  O   UNL     1       7.418   5.352  20.056  0.00  0.00    +0.000 OA
BRANCH  24  26
ATOM     26  O   UNL     1       8.067   6.901  18.551  0.00  0.00    +0.000 OA
ATOM     27  H   UNL     1       8.881   7.217  18.988  0.00  0.00    +0.000 HD
ENDBRANCH  24  26
ENDBRANCH  23  24
ENDBRANCH  22  23
ENDBRANCH   7  22
TORSDOF 7
ENDMDL
MODEL 3
REMARK VINA RESULT:      -7.6      3.951      7.940
REMARK  Name = 
REMARK  9 active torsions:
REMARK  status: ('A' for Active; 'I' for Inactive)
REMARK    1  A    between atoms: C_1  and  C_2
REMARK    2  A    between atoms: C_6  and  C_7
REMARK    3  A    between atoms: C_7  and  C_8
REMARK    4  A    between atoms: C_7  and  O_9
REMARK    5  A    between atoms: O_9  and  C_10
REMARK    6  A    between atoms: N_16  and  C_17
REMARK    7  A    between atoms: C_17  and  C_18
REMARK    8  A    between atoms: C_18  and  C_19
REMARK    9  A    between atoms: C_19  and  O_21
REMARK                            x       y       z     vdW  Elec       q    Type
REMARK                         _______ _______ _______ _____ _____    ______ ____
ROOT
ATOM      1  C   UNL     1       0.473   9.775  19.912  0.00  0.00    +0.000 A 
ATOM      2  C   UNL     1       1.193   9.526  18.724  0.00  0.00    +0.000 A 
ATOM      3  C   UNL     1       1.980   8.385  18.648  0.00  0.00    +0.000 A 
ATOM      4  O   UNL     1       2.698   7.952  17.542  0.00  0.00    +0.000 OA
ATOM      5  C   UNL     1       3.259   6.744  17.992  0.00  0.00    +0.000 A 
ATOM      6  O   UNL     1       3.942   6.017  17.279  0.00  0.00    +0.000 OA
ATOM      7  N   UNL     1       2.948   6.512  19.318  0.00  0.00    +0.000 N 
ATOM      8  C   UNL     1       2.094   7.518  19.712  0.00  0.00    +0.000 A 
ATOM      9  C   UNL     1       1.382   7.706  20.869  0.00  0.00    +0.000 A 
ATOM     10  C   UNL     1       0.522   8.813  20.948  0.00  0.00    +0.000 A 
ATOM     11 CL   UNL     1      -0.586   8.767  22.276  0.00  0.00    +0.000 Cl
ENDROOT
BRANCH   1  12
ATOM     12  O   UNL     1      -0.300  10.913  19.882  0.00  0.00    +0.000 OA
BRANCH  12  13
ATOM     13  C   UNL     1      -0.448  11.636  18.631  0.00  0.00    +0.000 C 
ATOM     14  C   UNL     1      -0.073  13.097  18.922  0.00  0.00    +0.000 C 
BRANCH  13  20
ATOM     15  C   UNL     1      -3.376  10.371  14.847  0.00  0.00    +0.000 C 
ATOM     16  C   UNL     1      -3.229  10.896  16.249  0.00  0.00    +0.000 A 
ATOM     17  C   UNL     1      -4.368  11.108  17.010  0.00  0.00    +0.000 A 
ATOM     18  C   UNL     1      -4.225  11.572  18.316  0.00  0.00    +0.000 A 
ATOM     19  C   UNL     1      -2.955  11.787  18.830  0.00  0.00    +0.000 A 
ATOM     20  C   UNL     1      -1.847  11.515  18.034  0.00  0.00    +0.000 A 
ATOM     21  N   UNL     1      -1.977  11.087  16.741  0.00  0.00    +0.000 NA
ENDBRANCH  13  20
ENDBRANCH  12  13
ENDBRANCH   1  12
BRANCH   7  22
ATOM     22  C   UNL     1       3.277   5.324  20.089  0.00  0.00    +0.000 C 
BRANCH  22  23
ATOM     23  C   UNL     1       2.435   4.113  19.692  0.00  0.00    +0.000 C 
BRANCH  23  24
ATOM     24  C   UNL     1       1.699   3.552  20.881  0.00  0.00    +0.000 C 
ATOM     25  O   UNL     1       2.171   3.435  22.000  0.00  0.00    +0.000 OA
BRANCH  24  26
ATOM     26  O   UNL     1       0.453   3.120  20.575  0.00  0.00    +0.000 OA
ATOM     27  H   UNL     1       0.260   3.102  19.617  0.00  0.00    +0.000 HD
ENDBRANCH  24  26
ENDBRANCH  23  24
ENDBRANCH  22  23
ENDBRANCH   7  22
TORSDOF 7
ENDMDL
MODEL 4
REMARK VINA RESULT:      -7.6      3.624      7.998
REMARK  Name = 
REMARK  9 active torsions:
REMARK  status: ('A' for Active; 'I' for Inactive)
REMARK    1  A    between atoms: C_1  and  C_2
REMARK    2  A    between atoms: C_6  and  C_7
REMARK    3  A    between atoms: C_7  and  C_8
REMARK    4  A    between atoms: C_7  and  O_9
REMARK    5  A    between atoms: O_9  and  C_10
REMARK    6  A    between atoms: N_16  and  C_17
REMARK    7  A    between atoms: C_17  and  C_18
REMARK    8  A    between atoms: C_18  and  C_19
REMARK    9  A    between atoms: C_19  and  O_21
REMARK                            x       y       z     vdW  Elec       q    Type
REMARK                         _______ _______ _______ _____ _____    ______ ____
ROOT
ATOM      1  C   UNL     1       0.933   9.648  20.051  0.00  0.00    +0.000 A 
ATOM      2  C   UNL     1       1.640   9.206  18.912  0.00  0.00    +0.000 A 
ATOM      3  C   UNL     1       2.116   7.903  18.889  0.00  0.00    +0.000 A 
ATOM      4  O   UNL     1       2.769   7.284  17.831  0.00  0.00    +0.000 OA
ATOM      5  C   UNL     1       2.979   5.982  18.318  0.00  0.00    +0.000 A 
ATOM      6  O   UNL     1       3.500   5.094  17.652  0.00  0.00    +0.000 OA
ATOM      7  N   UNL     1       2.538   5.858  19.622  0.00  0.00    +0.000 N 
ATOM      8  C   UNL     1       1.942   7.054  19.959  0.00  0.00    +0.000 A 
ATOM      9  C   UNL     1       1.230   7.435  21.068  0.00  0.00    +0.000 A 
ATOM     10  C   UNL     1       0.674   8.723  21.089  0.00  0.00    +0.000 A 
ATOM     11 CL   UNL     1      -0.491   8.980  22.343  0.00  0.00    +0.000 Cl
ENDROOT
BRANCH   1  12
ATOM     12  O   UNL     1       0.475  10.944  19.970  0.00  0.00    +0.000 OA
BRANCH  12  13
ATOM     13  C   UNL     1       0.029  11.458  18.687  0.00  0.00    +0.000 C 
ATOM     14  C   UNL     1       0.248  12.978  18.725  0.00  0.00    +0.000 C 
BRANCH  13  20
ATOM     15  C   UNL     1      -4.806  12.352  19.247  0.00  0.00    +0.000 C 
ATOM     16  C   UNL     1      -3.706  11.539  18.622  0.00  0.00    +0.000 A 
ATOM     17  C   UNL     1      -4.031  10.594  17.662  0.00  0.00    +0.000 A 
ATOM     18  C   UNL     1      -3.004   9.860  17.070  0.00  0.00    +0.000 A 
ATOM     19  C   UNL     1      -1.688  10.107  17.433  0.00  0.00    +0.000 A 
ATOM     20  C   UNL     1      -1.420  11.099  18.371  0.00  0.00    +0.000 A 
ATOM     21  N   UNL     1      -2.422  11.805  18.980  0.00  0.00    +0.000 NA
ENDBRANCH  13  20
ENDBRANCH  12  13
ENDBRANCH   1  12
BRANCH   7  22
ATOM     22  C   UNL     1       2.509   4.640  20.414  0.00  0.00    +0.000 C 
BRANCH  22  23
ATOM     23  C   UNL     1       1.212   3.852  20.233  0.00  0.00    +0.000 C 
BRANCH  23  24
ATOM     24  C   UNL     1       1.417   2.679  19.309  0.00  0.00    +0.000 C 
ATOM     25  O   UNL     1       2.478   2.096  19.150  0.00  0.00    +0.000 OA
BRANCH  24  26
ATOM     26  O   UNL     1       0.306   2.361  18.606  0.00  0.00    +0.000 OA
ATOM     27  H   UNL     1      -0.421   3.009  18.691  0.00  0.00    +0.000 HD
ENDBRANCH  24  26
ENDBRANCH  23  24
ENDBRANCH  22  23
ENDBRANCH   7  22
TORSDOF 7
ENDMDL
MODEL 5
REMARK VINA RESULT:      -7.5      3.899      4.476
REMARK  Name = 
REMARK  9 active torsions:
REMARK  status: ('A' for Active; 'I' for Inactive)
REMARK    1  A    between atoms: C_1  and  C_2
REMARK    2  A    between atoms: C_6  and  C_7
REMARK    3  A    between atoms: C_7  and  C_8
REMARK    4  A    between atoms: C_7  and  O_9
REMARK    5  A    between atoms: O_9  and  C_10
REMARK    6  A    between atoms: N_16  and  C_17
REMARK    7  A    between atoms: C_17  and  C_18
REMARK    8  A    between atoms: C_18  and  C_19
REMARK    9  A    between atoms: C_19  and  O_21
REMARK                            x       y       z     vdW  Elec       q    Type
REMARK                         _______ _______ _______ _____ _____    ______ ____
ROOT
ATOM      1  C   UNL     1       4.362   5.256  16.324  0.00  0.00    +0.000 A 
ATOM      2  C   UNL     1       3.731   3.996  16.240  0.00  0.00    +0.000 A 
ATOM      3  C   UNL     1       2.833   3.634  17.234  0.00  0.00    +0.000 A 
ATOM      4  O   UNL     1       2.076   2.471  17.275  0.00  0.00    +0.000 OA
ATOM      5  C   UNL     1       1.318   2.637  18.448  0.00  0.00    +0.000 A 
ATOM      6  O   UNL     1       0.476   1.828  18.821  0.00  0.00    +0.000 OA
ATOM      7  N   UNL     1       1.661   3.804  19.103  0.00  0.00    +0.000 N 
ATOM      8  C   UNL     1       2.574   4.459  18.306  0.00  0.00    +0.000 A 
ATOM      9  C   UNL     1       3.140   5.704  18.405  0.00  0.00    +0.000 A 
ATOM     10  C   UNL     1       3.997   6.127  17.377  0.00  0.00    +0.000 A 
ATOM     11 CL   UNL     1       4.367   7.818  17.403  0.00  0.00    +0.000 Cl
ENDROOT
BRANCH   1  12
ATOM     12  O   UNL     1       5.214   5.538  15.280  0.00  0.00    +0.000 OA
BRANCH  12  13
ATOM     13  C   UNL     1       6.624   5.220  15.411  0.00  0.00    +0.000 C 
ATOM     14  C   UNL     1       6.737   3.690  15.337  0.00  0.00    +0.000 C 
BRANCH  13  20
ATOM     15  C   UNL     1       8.276   9.087  18.022  0.00  0.00    +0.000 C 
ATOM     16  C   UNL     1       8.005   7.611  17.929  0.00  0.00    +0.000 A 
ATOM     17  C   UNL     1       8.181   6.823  19.056  0.00  0.00    +0.000 A 
ATOM     18  C   UNL     1       7.906   5.459  18.970  0.00  0.00    +0.000 A 
ATOM     19  C   UNL     1       7.443   4.928  17.776  0.00  0.00    +0.000 A 
ATOM     20  C   UNL     1       7.245   5.775  16.691  0.00  0.00    +0.000 A 
ATOM     21  N   UNL     1       7.538   7.110  16.755  0.00  0.00    +0.000 NA
ENDBRANCH  13  20
ENDBRANCH  12  13
ENDBRANCH   1  12
BRANCH   7  22
ATOM     22  C   UNL     1       1.027   4.348  20.292  0.00  0.00    +0.000 C 
BRANCH  22  23
ATOM     23  C   UNL     1       1.909   4.231  21.535  0.00  0.00    +0.000 C 
BRANCH  23  24
ATOM     24  C   UNL     1       2.152   2.788  21.891  0.00  0.00    +0.000 C 
ATOM     25  O   UNL     1       1.352   2.068  22.467  0.00  0.00    +0.000 OA
BRANCH  24  26
ATOM     26  O   UNL     1       3.395   2.366  21.563  0.00  0.00    +0.000 OA
ATOM     27  H   UNL     1       3.413   1.649  20.899  0.00  0.00    +0.000 HD
ENDBRANCH  24  26
ENDBRANCH  23  24
ENDBRANCH  22  23
ENDBRANCH   7  22
TORSDOF 7
ENDMDL
MODEL 6
REMARK VINA RESULT:      -7.4      3.991      8.108
REMARK  Name = 
REMARK  9 active torsions:
REMARK  status: ('A' for Active; 'I' for Inactive)
REMARK    1  A    between atoms: C_1  and  C_2
REMARK    2  A    between atoms: C_6  and  C_7
REMARK    3  A    between atoms: C_7  and  C_8
REMARK    4  A    between atoms: C_7  and  O_9
REMARK    5  A    between atoms: O_9  and  C_10
REMARK    6  A    between atoms: N_16  and  C_17
REMARK    7  A    between atoms: C_17  and  C_18
REMARK    8  A    between atoms: C_18  and  C_19
REMARK    9  A    between atoms: C_19  and  O_21
REMARK                            x       y       z     vdW  Elec       q    Type
REMARK                         _______ _______ _______ _____ _____    ______ ____
ROOT
ATOM      1  C   UNL     1       0.671  10.399  20.137  0.00  0.00    +0.000 A 
ATOM      2  C   UNL     1       1.250   9.881  18.958  0.00  0.00    +0.000 A 
ATOM      3  C   UNL     1       1.754   8.587  18.977  0.00  0.00    +0.000 A 
ATOM      4  O   UNL     1       2.293   7.898  17.900  0.00  0.00    +0.000 OA
ATOM      5  C   UNL     1       2.592   6.641  18.455  0.00  0.00    +0.000 A 
ATOM      6  O   UNL     1       3.053   5.713  17.800  0.00  0.00    +0.000 OA
ATOM      7  N   UNL     1       2.310   6.613  19.807  0.00  0.00    +0.000 N 
ATOM      8  C   UNL     1       1.728   7.821  20.122  0.00  0.00    +0.000 A 
ATOM      9  C   UNL     1       1.142   8.276  21.275  0.00  0.00    +0.000 A 
ATOM     10  C   UNL     1       0.560   9.553  21.265  0.00  0.00    +0.000 A 
ATOM     11 CL   UNL     1      -0.456   9.888  22.626  0.00  0.00    +0.000 Cl
ENDROOT
BRANCH   1  12
ATOM     12  O   UNL     1       0.174  11.677  20.014  0.00  0.00    +0.000 OA
BRANCH  12  13
ATOM     13  C   UNL     1      -0.203  12.165  18.700  0.00  0.00    +0.000 C 
ATOM     14  C   UNL     1       0.212  13.643  18.646  0.00  0.00    +0.000 C 
BRANCH  13  20
ATOM     15  C   UNL     1      -3.774  10.658  15.622  0.00  0.00    +0.000 C 
ATOM     16  C   UNL     1      -3.373  11.246  16.947  0.00  0.00    +0.000 A 
ATOM     17  C   UNL     1      -4.345  11.457  17.911  0.00  0.00    +0.000 A 
ATOM     18  C   UNL     1      -3.963  11.980  19.145  0.00  0.00    +0.000 A 
ATOM     19  C   UNL     1      -2.625  12.253  19.388  0.00  0.00    +0.000 A 
ATOM     20  C   UNL     1      -1.688  11.979  18.397  0.00  0.00    +0.000 A 
ATOM     21  N   UNL     1      -2.055  11.493  17.172  0.00  0.00    +0.000 NA
ENDBRANCH  13  20
ENDBRANCH  12  13
ENDBRANCH   1  12
BRANCH   7  22
ATOM     22  C   UNL     1       2.405   5.460  20.687  0.00  0.00    +0.000 C 
BRANCH  22  23
ATOM     23  C   UNL     1       1.246   4.482  20.502  0.00  0.00    +0.000 C 
BRANCH  23  24
ATOM     24  C   UNL     1       1.654   3.082  20.881  0.00  0.00    +0.000 C 
ATOM     25  O   UNL     1       1.556   2.107  20.153  0.00  0.00    +0.000 OA
BRANCH  24  26
ATOM     26  O   UNL     1       2.094   2.988  22.157  0.00  0.00    +0.000 OA
ATOM     27  H   UNL     1       1.424   2.662  22.789  0.00  0.00    +0.000 HD
ENDBRANCH  24  26
ENDBRANCH  23  24
ENDBRANCH  22  23
ENDBRANCH   7  22
TORSDOF 7
ENDMDL
MODEL 7
REMARK VINA RESULT:      -7.4      1.144      1.238
REMARK  Name = 
REMARK  9 active torsions:
REMARK  status: ('A' for Active; 'I' for Inactive)
REMARK    1  A    between atoms: C_1  and  C_2
REMARK    2  A    between atoms: C_6  and  C_7
REMARK    3  A    between atoms: C_7  and  C_8
REMARK    4  A    between atoms: C_7  and  O_9
REMARK    5  A    between atoms: O_9  and  C_10
REMARK    6  A    between atoms: N_16  and  C_17
REMARK    7  A    between atoms: C_17  and  C_18
REMARK    8  A    between atoms: C_18  and  C_19
REMARK    9  A    between atoms: C_19  and  O_21
REMARK                            x       y       z     vdW  Elec       q    Type
REMARK                         _______ _______ _______ _____ _____    ______ ____
ROOT
ATOM      1  C   UNL     1       3.198   6.152  17.910  0.00  0.00    +0.000 A 
ATOM      2  C   UNL     1       3.014   7.392  17.261  0.00  0.00    +0.000 A 
ATOM      3  C   UNL     1       2.393   8.421  17.956  0.00  0.00    +0.000 A 
ATOM      4  O   UNL     1       2.191   9.717  17.500  0.00  0.00    +0.000 OA
ATOM      5  C   UNL     1       1.577  10.339  18.601  0.00  0.00    +0.000 A 
ATOM      6  O   UNL     1       1.273  11.527  18.615  0.00  0.00    +0.000 OA
ATOM      7  N   UNL     1       1.362   9.440  19.627  0.00  0.00    +0.000 N 
ATOM      8  C   UNL     1       1.929   8.246  19.240  0.00  0.00    +0.000 A 
ATOM      9  C   UNL     1       2.121   7.068  19.916  0.00  0.00    +0.000 A 
ATOM     10  C   UNL     1       2.810   6.033  19.265  0.00  0.00    +0.000 A 
ATOM     11 CL   UNL     1       3.316   4.744  20.304  0.00  0.00    +0.000 Cl
ENDROOT
BRANCH   1  12
ATOM     12  O   UNL     1       3.848   5.204  17.153  0.00  0.00    +0.000 OA
BRANCH  12  13
ATOM     13  C   UNL     1       4.986   5.602  16.345  0.00  0.00    +0.000 C 
ATOM     14  C   UNL     1       5.316   4.409  15.435  0.00  0.00    +0.000 C 
BRANCH  13  20
ATOM     15  C   UNL     1       8.164   9.126  17.751  0.00  0.00    +0.000 C 
ATOM     16  C   UNL     1       7.678   7.707  17.857  0.00  0.00    +0.000 A 
ATOM     17  C   UNL     1       8.233   6.876  18.817  0.00  0.00    +0.000 A 
ATOM     18  C   UNL     1       7.762   5.569  18.926  0.00  0.00    +0.000 A 
ATOM     19  C   UNL     1       6.739   5.138  18.095  0.00  0.00    +0.000 A 
ATOM     20  C   UNL     1       6.190   6.031  17.180  0.00  0.00    +0.000 A 
ATOM     21  N   UNL     1       6.664   7.307  17.044  0.00  0.00    +0.000 NA
ENDBRANCH  13  20
ENDBRANCH  12  13
ENDBRANCH   1  12
BRANCH   7  22
ATOM     22  C   UNL     1       0.835   9.742  20.948  0.00  0.00    +0.000 C 
BRANCH  22  23
ATOM     23  C   UNL     1      -0.649  10.104  20.920  0.00  0.00    +0.000 C 
BRANCH  23  24
ATOM     24  C   UNL     1      -0.876  11.496  21.451  0.00  0.00    +0.000 C 
ATOM     25  O   UNL     1      -1.951  12.074  21.452  0.00  0.00    +0.000 OA
BRANCH  24  26
ATOM     26  O   UNL     1       0.262  12.088  21.882  0.00  0.00    +0.000 OA
ATOM     27  H   UNL     1       1.081  11.671  21.550  0.00  0.00    +0.000 HD
ENDBRANCH  24  26
ENDBRANCH  23  24
ENDBRANCH  22  23
ENDBRANCH   7  22
TORSDOF 7
ENDMDL
MODEL 8
REMARK VINA RESULT:      -7.4      2.716      4.877
REMARK  Name = 
REMARK  9 active torsions:
REMARK  status: ('A' for Active; 'I' for Inactive)
REMARK    1  A    between atoms: C_1  and  C_2
REMARK    2  A    between atoms: C_6  and  C_7
REMARK    3  A    between atoms: C_7  and  C_8
REMARK    4  A    between atoms: C_7  and  O_9
REMARK    5  A    between atoms: O_9  and  C_10
REMARK    6  A    between atoms: N_16  and  C_17
REMARK    7  A    between atoms: C_17  and  C_18
REMARK    8  A    between atoms: C_18  and  C_19
REMARK    9  A    between atoms: C_19  and  O_21
REMARK                            x       y       z     vdW  Elec       q    Type
REMARK                         _______ _______ _______ _____ _____    ______ ____
ROOT
ATOM      1  C   UNL     1       1.715   8.123  20.397  0.00  0.00    +0.000 A 
ATOM      2  C   UNL     1       1.074   8.426  21.618  0.00  0.00    +0.000 A 
ATOM      3  C   UNL     1       0.276   9.559  21.686  0.00  0.00    +0.000 A 
ATOM      4  O   UNL     1      -0.477   9.970  22.778  0.00  0.00    +0.000 OA
ATOM      5  C   UNL     1      -1.117  11.125  22.294  0.00  0.00    +0.000 A 
ATOM      6  O   UNL     1      -1.921  11.772  22.956  0.00  0.00    +0.000 OA
ATOM      7  N   UNL     1      -0.709  11.421  21.008  0.00  0.00    +0.000 N 
ATOM      8  C   UNL     1       0.125  10.400  20.607  0.00  0.00    +0.000 A 
ATOM      9  C   UNL     1       0.701  10.120  19.394  0.00  0.00    +0.000 A 
ATOM     10  C   UNL     1       1.456   8.943  19.274  0.00  0.00    +0.000 A 
ATOM     11 CL   UNL     1       1.832   8.495  17.645  0.00  0.00    +0.000 Cl
ENDROOT
BRANCH   1  12
ATOM     12  O   UNL     1       2.461   6.966  20.417  0.00  0.00    +0.000 OA
BRANCH  12  13
ATOM     13  C   UNL     1       2.035   5.835  19.613  0.00  0.00    +0.000 C 
ATOM     14  C   UNL     1       1.497   4.780  20.592  0.00  0.00    +0.000 C 
BRANCH  13  20
ATOM     15  C   UNL     1       6.861   5.349  18.629  0.00  0.00    +0.000 C 
ATOM     16  C   UNL     1       5.433   5.033  18.281  0.00  0.00    +0.000 A 
ATOM     17  C   UNL     1       5.173   4.123  17.267  0.00  0.00    +0.000 A 
ATOM     18  C   UNL     1       3.848   3.817  16.965  0.00  0.00    +0.000 A 
ATOM     19  C   UNL     1       2.826   4.405  17.695  0.00  0.00    +0.000 A 
ATOM     20  C   UNL     1       3.148   5.277  18.730  0.00  0.00    +0.000 A 
ATOM     21  N   UNL     1       4.444   5.608  19.016  0.00  0.00    +0.000 NA
ENDBRANCH  13  20
ENDBRANCH  12  13
ENDBRANCH   1  12
BRANCH   7  22
ATOM     22  C   UNL     1      -1.223  12.483  20.159  0.00  0.00    +0.000 C 
BRANCH  22  23
ATOM     23  C   UNL     1      -2.443  12.048  19.348  0.00  0.00    +0.000 C 
BRANCH  23  24
ATOM     24  C   UNL     1      -2.091  11.872  17.893  0.00  0.00    +0.000 C 
ATOM     25  O   UNL     1      -2.574  11.026  17.157  0.00  0.00    +0.000 OA
BRANCH  24  26
ATOM     26  O   UNL     1      -1.120  12.718  17.480  0.00  0.00    +0.000 OA
ATOM     27  H   UNL     1      -1.071  13.551  17.989  0.00  0.00    +0.000 HD
ENDBRANCH  24  26
ENDBRANCH  23  24
ENDBRANCH  22  23
ENDBRANCH   7  22
TORSDOF 7
ENDMDL
MODEL 9
REMARK VINA RESULT:      -7.3      2.490      7.573
REMARK  Name = 
REMARK  9 active torsions:
REMARK  status: ('A' for Active; 'I' for Inactive)
REMARK    1  A    between atoms: C_1  and  C_2
REMARK    2  A    between atoms: C_6  and  C_7
REMARK    3  A    between atoms: C_7  and  C_8
REMARK    4  A    between atoms: C_7  and  O_9
REMARK    5  A    between atoms: O_9  and  C_10
REMARK    6  A    between atoms: N_16  and  C_17
REMARK    7  A    between atoms: C_17  and  C_18
REMARK    8  A    between atoms: C_18  and  C_19
REMARK    9  A    between atoms: C_19  and  O_21
REMARK                            x       y       z     vdW  Elec       q    Type
REMARK                         _______ _______ _______ _____ _____    ______ ____
ROOT
ATOM      1  C   UNL     1       2.080   7.147  19.421  0.00  0.00    +0.000 A 
ATOM      2  C   UNL     1       2.575   7.648  18.199  0.00  0.00    +0.000 A 
ATOM      3  C   UNL     1       3.657   7.011  17.607  0.00  0.00    +0.000 A 
ATOM      4  O   UNL     1       4.228   7.324  16.381  0.00  0.00    +0.000 OA
ATOM      5  C   UNL     1       5.235   6.352  16.251  0.00  0.00    +0.000 A 
ATOM      6  O   UNL     1       5.952   6.259  15.262  0.00  0.00    +0.000 OA
ATOM      7  N   UNL     1       5.303   5.550  17.374  0.00  0.00    +0.000 N 
ATOM      8  C   UNL     1       4.269   5.930  18.202  0.00  0.00    +0.000 A 
ATOM      9  C   UNL     1       3.795   5.392  19.371  0.00  0.00    +0.000 A 
ATOM     10  C   UNL     1       2.657   5.971  19.955  0.00  0.00    +0.000 A 
ATOM     11 CL   UNL     1       1.930   5.019  21.204  0.00  0.00    +0.000 Cl
ENDROOT
BRANCH   1  12
ATOM     12  O   UNL     1       0.989   7.826  19.916  0.00  0.00    +0.000 OA
BRANCH  12  13
ATOM     13  C   UNL     1       1.147   9.206  20.338  0.00  0.00    +0.000 C 
ATOM     14  C   UNL     1       1.294   9.182  21.867  0.00  0.00    +0.000 C 
BRANCH  13  20
ATOM     15  C   UNL     1      -2.044  12.860  21.319  0.00  0.00    +0.000 C 
ATOM     16  C   UNL     1      -1.497  11.846  20.352  0.00  0.00    +0.000 A 
ATOM     17  C   UNL     1      -1.946  11.858  19.041  0.00  0.00    +0.000 A 
ATOM     18  C   UNL     1      -1.419  10.930  18.144  0.00  0.00    +0.000 A 
ATOM     19  C   UNL     1      -0.447  10.039  18.573  0.00  0.00    +0.000 A 
ATOM     20  C   UNL     1      -0.004  10.103  19.890  0.00  0.00    +0.000 A 
ATOM     21  N   UNL     1      -0.535  10.989  20.787  0.00  0.00    +0.000 NA
ENDBRANCH  13  20
ENDBRANCH  12  13
ENDBRANCH   1  12
BRANCH   7  22
ATOM     22  C   UNL     1       6.155   4.387  17.558  0.00  0.00    +0.000 C 
BRANCH  22  23
ATOM     23  C   UNL     1       7.618   4.761  17.791  0.00  0.00    +0.000 C 
BRANCH  23  24
ATOM     24  C   UNL     1       7.753   5.729  18.938  0.00  0.00    +0.000 C 
ATOM     25  O   UNL     1       7.457   5.481  20.096  0.00  0.00    +0.000 OA
BRANCH  24  26
ATOM     26  O   UNL     1       8.185   6.951  18.550  0.00  0.00    +0.000 OA
ATOM     27  H   UNL     1       7.566   7.678  18.755  0.00  0.00    +0.000 HD
ENDBRANCH  24  26
ENDBRANCH  23  24
ENDBRANCH  22  23
ENDBRANCH   7  22
TORSDOF 7
ENDMDL
