MODEL 1
REMARK VINA RESULT:      -8.4      0.000      0.000
REMARK  Name = 
REMARK  8 active torsions:
REMARK  status: ('A' for Active; 'I' for Inactive)
REMARK    1  A    between atoms: C_2  and  C_3
REMARK    2  A    between atoms: C_6  and  C_7
REMARK    3  A    between atoms: C_7  and  N_8
REMARK    4  A    between atoms: C_12  and  C_13
REMARK    5  A    between atoms: C_13  and  N_14
REMARK    6  A    between atoms: N_14  and  C_15
REMARK    7  A    between atoms: C_19  and  C_21
REMARK    8  A    between atoms: C_26  and  S_27
REMARK                            x       y       z     vdW  Elec       q    Type
REMARK                         _______ _______ _______ _____ _____    ______ ____
ROOT
ATOM      1  N   UNL     1       1.308   7.317  20.972  0.00  0.00    +0.000 NA
ATOM      2  H   UNL     1       0.285   7.290  20.999  0.00  0.00    +0.000 HD
ENDROOT
BRANCH   1   3
ATOM      3  C   UNL     1       1.766   6.614  19.770  0.00  0.00    +0.000 C 
ATOM      4  C   UNL     1       2.600   7.516  18.878  0.00  0.00    +0.000 C 
ATOM      5  C   UNL     1       3.443   6.533  18.115  0.00  0.00    +0.000 C 
ATOM      6  N   UNL     1       3.675   5.417  19.011  0.00  0.00    +0.000 N 
ATOM      7  C   UNL     1       4.572   4.360  18.793  0.00  0.00    +0.000 C 
ATOM      8  O   UNL     1       4.653   3.372  19.512  0.00  0.00    +0.000 OA
ATOM      9  C   UNL     1       2.745   5.470  20.079  0.00  0.00    +0.000 C 
ATOM     10  O   UNL     1       2.675   4.754  21.066  0.00  0.00    +0.000 OA
BRANCH   7  11
ATOM     11  C   UNL     1       5.465   4.422  17.597  0.00  0.00    +0.000 A 
ATOM     12  C   UNL     1       5.039   3.875  16.376  0.00  0.00    +0.000 A 
ATOM     13  C   UNL     1       5.769   4.087  15.213  0.00  0.00    +0.000 A 
ATOM     14  C   UNL     1       6.975   4.745  15.323  0.00  0.00    +0.000 A 
ATOM     15  N   UNL     1       7.477   5.182  16.495  0.00  0.00    +0.000 NA
ATOM     16  C   UNL     1       6.728   5.018  17.623  0.00  0.00    +0.000 A 
BRANCH  16  17
ATOM     17  S   UNL     1       7.528   5.681  19.060  0.00  0.00    +0.000 S 
ATOM     18  H   UNL     1       8.628   6.051  18.389  0.00  0.00    +0.000 HD
ENDBRANCH  16  17
ENDBRANCH   7  11
ENDBRANCH   1   3
BRANCH   1  19
ATOM     19  C   UNL     1       1.765   8.698  20.999  0.00  0.00    +0.000 C 
BRANCH  19  24
ATOM     20  N   UNL     1       0.329  10.766  21.412  0.00  0.00    +0.000 N 
ATOM     21  C   UNL     1      -0.592  11.124  22.360  0.00  0.00    +0.000 A 
ATOM     22  N   UNL     1      -0.633  10.266  23.353  0.00  0.00    +0.000 NA
ATOM     23  C   UNL     1       0.263   9.292  23.017  0.00  0.00    +0.000 A 
ATOM     24  C   UNL     1       0.851   9.549  21.794  0.00  0.00    +0.000 A 
BRANCH  20  25
ATOM     25  C   UNL     1       0.554  11.504  20.176  0.00  0.00    +0.000 C 
BRANCH  25  29
ATOM     26  C   UNL     1      -2.206  10.651  16.949  0.00  0.00    +0.000 A 
ATOM     27  C   UNL     1      -2.364  11.799  17.730  0.00  0.00    +0.000 A 
ATOM     28  C   UNL     1      -1.478  12.055  18.782  0.00  0.00    +0.000 A 
ATOM     29  C   UNL     1      -0.433  11.165  19.080  0.00  0.00    +0.000 A 
ATOM     30  C   UNL     1      -0.295  10.013  18.292  0.00  0.00    +0.000 A 
ATOM     31  C   UNL     1      -1.169   9.757  17.234  0.00  0.00    +0.000 A 
BRANCH  26  33
ATOM     32  N   UNL     1      -3.802  10.183  14.958  0.00  0.00    +0.000 NA
ATOM     33  C   UNL     1      -3.082  10.409  15.836  0.00  0.00    +0.000 C 
ENDBRANCH  26  33
ENDBRANCH  25  29
ENDBRANCH  20  25
ENDBRANCH  19  24
ENDBRANCH   1  19
TORSDOF 8
ENDMDL
MODEL 2
REMARK VINA RESULT:      -8.0      1.542      1.909
REMARK  Name = 
REMARK  8 active torsions:
REMARK  status: ('A' for Active; 'I' for Inactive)
REMARK    1  A    between atoms: C_2  and  C_3
REMARK    2  A    between atoms: C_6  and  C_7
REMARK    3  A    between atoms: C_7  and  N_8
REMARK    4  A    between atoms: C_12  and  C_13
REMARK    5  A    between atoms: C_13  and  N_14
REMARK    6  A    between atoms: N_14  and  C_15
REMARK    7  A    between atoms: C_19  and  C_21
REMARK    8  A    between atoms: C_26  and  S_27
REMARK                            x       y       z     vdW  Elec       q    Type
REMARK                         _______ _______ _______ _____ _____    ______ ____
ROOT
ATOM      1  N   UNL     1       1.729   8.078  20.305  0.00  0.00    +0.000 NA
ATOM      2  H   UNL     1       1.252   7.453  20.961  0.00  0.00    +0.000 HD
ENDROOT
BRANCH   1   3
ATOM      3  C   UNL     1       2.098   7.314  19.110  0.00  0.00    +0.000 C 
ATOM      4  C   UNL     1       2.970   8.129  18.172  0.00  0.00    +0.000 C 
ATOM      5  C   UNL     1       3.714   7.067  17.412  0.00  0.00    +0.000 C 
ATOM      6  N   UNL     1       3.890   5.959  18.330  0.00  0.00    +0.000 N 
ATOM      7  C   UNL     1       4.699   4.833  18.116  0.00  0.00    +0.000 C 
ATOM      8  O   UNL     1       4.727   3.859  18.858  0.00  0.00    +0.000 OA
ATOM      9  C   UNL     1       2.998   6.107  19.422  0.00  0.00    +0.000 C 
ATOM     10  O   UNL     1       2.904   5.423  20.429  0.00  0.00    +0.000 OA
BRANCH   7  11
ATOM     11  C   UNL     1       5.559   4.799  16.894  0.00  0.00    +0.000 A 
ATOM     12  C   UNL     1       5.159   4.047  15.777  0.00  0.00    +0.000 A 
ATOM     13  C   UNL     1       5.843   4.152  14.572  0.00  0.00    +0.000 A 
ATOM     14  C   UNL     1       6.987   4.920  14.548  0.00  0.00    +0.000 A 
ATOM     15  N   UNL     1       7.471   5.563  15.630  0.00  0.00    +0.000 NA
ATOM     16  C   UNL     1       6.763   5.498  16.794  0.00  0.00    +0.000 A 
BRANCH  16  17
ATOM     17  S   UNL     1       7.529   6.428  18.096  0.00  0.00    +0.000 S 
ATOM     18  H   UNL     1       7.098   5.604  19.061  0.00  0.00    +0.000 HD
ENDBRANCH  16  17
ENDBRANCH   7  11
ENDBRANCH   1   3
BRANCH   1  19
ATOM     19  C   UNL     1       0.867   9.205  19.983  0.00  0.00    +0.000 C 
BRANCH  19  24
ATOM     20  N   UNL     1      -0.171  11.140  21.282  0.00  0.00    +0.000 N 
ATOM     21  C   UNL     1      -0.615  11.307  22.567  0.00  0.00    +0.000 A 
ATOM     22  N   UNL     1      -0.302  10.287  23.331  0.00  0.00    +0.000 NA
ATOM     23  C   UNL     1       0.331   9.405  22.503  0.00  0.00    +0.000 A 
ATOM     24  C   UNL     1       0.394   9.884  21.210  0.00  0.00    +0.000 A 
BRANCH  20  25
ATOM     25  C   UNL     1      -0.419  12.088  20.204  0.00  0.00    +0.000 C 
BRANCH  25  29
ATOM     26  C   UNL     1      -4.495  11.836  18.761  0.00  0.00    +0.000 A 
ATOM     27  C   UNL     1      -3.464  11.180  18.085  0.00  0.00    +0.000 A 
ATOM     28  C   UNL     1      -2.148  11.283  18.549  0.00  0.00    +0.000 A 
ATOM     29  C   UNL     1      -1.839  12.053  19.682  0.00  0.00    +0.000 A 
ATOM     30  C   UNL     1      -2.886  12.713  20.343  0.00  0.00    +0.000 A 
ATOM     31  C   UNL     1      -4.202  12.606  19.891  0.00  0.00    +0.000 A 
BRANCH  26  33
ATOM     32  N   UNL     1      -6.941  11.545  17.945  0.00  0.00    +0.000 NA
ATOM     33  C   UNL     1      -5.855  11.693  18.319  0.00  0.00    +0.000 C 
ENDBRANCH  26  33
ENDBRANCH  25  29
ENDBRANCH  20  25
ENDBRANCH  19  24
ENDBRANCH   1  19
TORSDOF 8
ENDMDL
MODEL 3
REMARK VINA RESULT:      -7.9      2.221      3.203
REMARK  Name = 
REMARK  8 active torsions:
REMARK  status: ('A' for Active; 'I' for Inactive)
REMARK    1  A    between atoms: C_2  and  C_3
REMARK    2  A    between atoms: C_6  and  C_7
REMARK    3  A    between atoms: C_7  and  N_8
REMARK    4  A    between atoms: C_12  and  C_13
REMARK    5  A    between atoms: C_13  and  N_14
REMARK    6  A    between atoms: N_14  and  C_15
REMARK    7  A    between atoms: C_19  and  C_21
REMARK    8  A    between atoms: C_26  and  S_27
REMARK                            x       y       z     vdW  Elec       q    Type
REMARK                         _______ _______ _______ _____ _____    ______ ____
ROOT
ATOM      1  N   UNL     1       1.809   7.771  20.333  0.00  0.00    +0.000 NA
ATOM      2  H   UNL     1       1.188   7.192  20.906  0.00  0.00    +0.000 HD
ENDROOT
BRANCH   1   3
ATOM      3  C   UNL     1       2.196   7.010  19.142  0.00  0.00    +0.000 C 
ATOM      4  C   UNL     1       2.977   7.866  18.161  0.00  0.00    +0.000 C 
ATOM      5  C   UNL     1       3.774   6.845  17.399  0.00  0.00    +0.000 C 
ATOM      6  N   UNL     1       4.058   5.773  18.332  0.00  0.00    +0.000 N 
ATOM      7  C   UNL     1       4.940   4.704  18.113  0.00  0.00    +0.000 C 
ATOM      8  O   UNL     1       5.063   3.751  18.873  0.00  0.00    +0.000 OA
ATOM      9  C   UNL     1       3.192   5.879  19.448  0.00  0.00    +0.000 C 
ATOM     10  O   UNL     1       3.179   5.212  20.471  0.00  0.00    +0.000 OA
BRANCH   7  11
ATOM     11  C   UNL     1       5.763   4.706  16.865  0.00  0.00    +0.000 A 
ATOM     12  C   UNL     1       5.413   3.868  15.795  0.00  0.00    +0.000 A 
ATOM     13  C   UNL     1       6.046   3.990  14.564  0.00  0.00    +0.000 A 
ATOM     14  C   UNL     1       7.100   4.872  14.470  0.00  0.00    +0.000 A 
ATOM     15  N   UNL     1       7.545   5.610  15.507  0.00  0.00    +0.000 NA
ATOM     16  C   UNL     1       6.882   5.524  16.696  0.00  0.00    +0.000 A 
BRANCH  16  17
ATOM     17  S   UNL     1       7.582   6.586  17.931  0.00  0.00    +0.000 S 
ATOM     18  H   UNL     1       6.522   7.405  17.958  0.00  0.00    +0.000 HD
ENDBRANCH  16  17
ENDBRANCH   7  11
ENDBRANCH   1   3
BRANCH   1  19
ATOM     19  C   UNL     1       1.140   9.017  19.987  0.00  0.00    +0.000 C 
BRANCH  19  24
ATOM     20  N   UNL     1      -0.217  10.795  21.212  0.00  0.00    +0.000 N 
ATOM     21  C   UNL     1      -0.604  10.983  22.513  0.00  0.00    +0.000 A 
ATOM     22  N   UNL     1      -0.024  10.132  23.326  0.00  0.00    +0.000 NA
ATOM     23  C   UNL     1       0.735   9.333  22.519  0.00  0.00    +0.000 A 
ATOM     24  C   UNL     1       0.607   9.690  21.192  0.00  0.00    +0.000 A 
BRANCH  20  25
ATOM     25  C   UNL     1      -0.738  11.561  20.089  0.00  0.00    +0.000 C 
BRANCH  25  29
ATOM     26  C   UNL     1       1.684  14.928  18.840  0.00  0.00    +0.000 A 
ATOM     27  C   UNL     1       2.005  13.633  18.425  0.00  0.00    +0.000 A 
ATOM     28  C   UNL     1       1.227  12.551  18.849  0.00  0.00    +0.000 A 
ATOM     29  C   UNL     1       0.129  12.741  19.705  0.00  0.00    +0.000 A 
ATOM     30  C   UNL     1      -0.173  14.046  20.120  0.00  0.00    +0.000 A 
ATOM     31  C   UNL     1       0.593  15.132  19.692  0.00  0.00    +0.000 A 
BRANCH  26  33
ATOM     32  N   UNL     1       3.096  16.929  17.985  0.00  0.00    +0.000 NA
ATOM     33  C   UNL     1       2.449  16.049  18.368  0.00  0.00    +0.000 C 
ENDBRANCH  26  33
ENDBRANCH  25  29
ENDBRANCH  20  25
ENDBRANCH  19  24
ENDBRANCH   1  19
TORSDOF 8
ENDMDL
MODEL 4
REMARK VINA RESULT:      -7.7      1.291      1.795
REMARK  Name = 
REMARK  8 active torsions:
REMARK  status: ('A' for Active; 'I' for Inactive)
REMARK    1  A    between atoms: C_2  and  C_3
REMARK    2  A    between atoms: C_6  and  C_7
REMARK    3  A    between atoms: C_7  and  N_8
REMARK    4  A    between atoms: C_12  and  C_13
REMARK    5  A    between atoms: C_13  and  N_14
REMARK    6  A    between atoms: N_14  and  C_15
REMARK    7  A    between atoms: C_19  and  C_21
REMARK    8  A    between atoms: C_26  and  S_27
REMARK                            x       y       z     vdW  Elec       q    Type
REMARK                         _______ _______ _______ _____ _____    ______ ____
ROOT
ATOM      1  N   UNL     1       1.575   7.299  20.885  0.00  0.00    +0.000 NA
ATOM      2  H   UNL     1       1.401   6.587  21.600  0.00  0.00    +0.000 HD
ENDROOT
BRANCH   1   3
ATOM      3  C   UNL     1       1.977   6.632  19.644  0.00  0.00    +0.000 C 
ATOM      4  C   UNL     1       2.817   7.543  18.767  0.00  0.00    +0.000 C 
ATOM      5  C   UNL     1       3.606   6.565  17.942  0.00  0.00    +0.000 C 
ATOM      6  N   UNL     1       3.825   5.407  18.785  0.00  0.00    +0.000 N 
ATOM      7  C   UNL     1       4.681   4.332  18.501  0.00  0.00    +0.000 C 
ATOM      8  O   UNL     1       4.747   3.312  19.177  0.00  0.00    +0.000 OA
ATOM      9  C   UNL     1       2.926   5.445  19.880  0.00  0.00    +0.000 C 
ATOM     10  O   UNL     1       2.858   4.692  20.839  0.00  0.00    +0.000 OA
BRANCH   7  11
ATOM     11  C   UNL     1       5.544   4.414  17.283  0.00  0.00    +0.000 A 
ATOM     12  C   UNL     1       5.104   3.852  16.074  0.00  0.00    +0.000 A 
ATOM     13  C   UNL     1       5.800   4.081  14.894  0.00  0.00    +0.000 A 
ATOM     14  C   UNL     1       6.991   4.770  14.974  0.00  0.00    +0.000 A 
ATOM     15  N   UNL     1       7.508   5.224  16.134  0.00  0.00    +0.000 NA
ATOM     16  C   UNL     1       6.791   5.043  17.279  0.00  0.00    +0.000 A 
BRANCH  16  17
ATOM     17  S   UNL     1       7.606   5.731  18.695  0.00  0.00    +0.000 S 
ATOM     18  H   UNL     1       7.920   4.533  19.209  0.00  0.00    +0.000 HD
ENDBRANCH  16  17
ENDBRANCH   7  11
ENDBRANCH   1   3
BRANCH   1  19
ATOM     19  C   UNL     1       0.383   8.114  20.700  0.00  0.00    +0.000 C 
BRANCH  19  24
ATOM     20  N   UNL     1       0.543  10.464  19.721  0.00  0.00    +0.000 N 
ATOM     21  C   UNL     1       0.807  11.706  20.238  0.00  0.00    +0.000 A 
ATOM     22  N   UNL     1       1.205  11.643  21.487  0.00  0.00    +0.000 NA
ATOM     23  C   UNL     1       1.157  10.317  21.808  0.00  0.00    +0.000 A 
ATOM     24  C   UNL     1       0.709   9.557  20.746  0.00  0.00    +0.000 A 
BRANCH  20  25
ATOM     25  C   UNL     1       0.037  10.233  18.376  0.00  0.00    +0.000 C 
BRANCH  25  29
ATOM     26  C   UNL     1      -4.195  11.074  17.990  0.00  0.00    +0.000 A 
ATOM     27  C   UNL     1      -3.603  10.060  17.232  0.00  0.00    +0.000 A 
ATOM     28  C   UNL     1      -2.232   9.809  17.351  0.00  0.00    +0.000 A 
ATOM     29  C   UNL     1      -1.429  10.574  18.213  0.00  0.00    +0.000 A 
ATOM     30  C   UNL     1      -2.037  11.594  18.958  0.00  0.00    +0.000 A 
ATOM     31  C   UNL     1      -3.407  11.843  18.852  0.00  0.00    +0.000 A 
BRANCH  26  33
ATOM     32  N   UNL     1      -6.745  11.520  17.826  0.00  0.00    +0.000 NA
ATOM     33  C   UNL     1      -5.611  11.303  17.910  0.00  0.00    +0.000 C 
ENDBRANCH  26  33
ENDBRANCH  25  29
ENDBRANCH  20  25
ENDBRANCH  19  24
ENDBRANCH   1  19
TORSDOF 8
ENDMDL
MODEL 5
REMARK VINA RESULT:      -7.6      3.078      8.462
REMARK  Name = 
REMARK  8 active torsions:
REMARK  status: ('A' for Active; 'I' for Inactive)
REMARK    1  A    between atoms: C_2  and  C_3
REMARK    2  A    between atoms: C_6  and  C_7
REMARK    3  A    between atoms: C_7  and  N_8
REMARK    4  A    between atoms: C_12  and  C_13
REMARK    5  A    between atoms: C_13  and  N_14
REMARK    6  A    between atoms: N_14  and  C_15
REMARK    7  A    between atoms: C_19  and  C_21
REMARK    8  A    between atoms: C_26  and  S_27
REMARK                            x       y       z     vdW  Elec       q    Type
REMARK                         _______ _______ _______ _____ _____    ______ ____
ROOT
ATOM      1  N   UNL     1       2.827   5.821  20.548  0.00  0.00    +0.000 NA
ATOM      2  H   UNL     1       3.434   5.659  19.739  0.00  0.00    +0.000 HD
ENDROOT
BRANCH   1   3
ATOM      3  C   UNL     1       1.759   6.744  20.158  0.00  0.00    +0.000 C 
ATOM      4  C   UNL     1       1.360   7.654  21.306  0.00  0.00    +0.000 C 
ATOM      5  C   UNL     1       0.784   8.846  20.593  0.00  0.00    +0.000 C 
ATOM      6  N   UNL     1       1.516   8.967  19.349  0.00  0.00    +0.000 N 
ATOM      7  C   UNL     1       1.453  10.049  18.458  0.00  0.00    +0.000 C 
ATOM      8  O   UNL     1       1.990  10.063  17.358  0.00  0.00    +0.000 OA
ATOM      9  C   UNL     1       2.198   7.753  19.084  0.00  0.00    +0.000 C 
ATOM     10  O   UNL     1       2.975   7.495  18.178  0.00  0.00    +0.000 OA
BRANCH   7  11
ATOM     11  C   UNL     1       0.658  11.251  18.857  0.00  0.00    +0.000 A 
ATOM     12  C   UNL     1       1.267  12.280  19.594  0.00  0.00    +0.000 A 
ATOM     13  C   UNL     1       0.604  13.482  19.810  0.00  0.00    +0.000 A 
ATOM     14  C   UNL     1      -0.702  13.580  19.384  0.00  0.00    +0.000 A 
ATOM     15  N   UNL     1      -1.363  12.572  18.778  0.00  0.00    +0.000 NA
ATOM     16  C   UNL     1      -0.687  11.416  18.521  0.00  0.00    +0.000 A 
BRANCH  16  17
ATOM     17  S   UNL     1      -1.699  10.219  17.692  0.00  0.00    +0.000 S 
ATOM     18  H   UNL     1      -1.144  10.447  16.493  0.00  0.00    +0.000 HD
ENDBRANCH  16  17
ENDBRANCH   7  11
ENDBRANCH   1   3
BRANCH   1  19
ATOM     19  C   UNL     1       2.299   4.553  21.030  0.00  0.00    +0.000 C 
BRANCH  19  24
ATOM     20  N   UNL     1       2.724   2.901  19.133  0.00  0.00    +0.000 N 
ATOM     21  C   UNL     1       1.924   2.135  18.327  0.00  0.00    +0.000 A 
ATOM     22  N   UNL     1       0.654   2.431  18.473  0.00  0.00    +0.000 NA
ATOM     23  C   UNL     1       0.623   3.394  19.441  0.00  0.00    +0.000 A 
ATOM     24  C   UNL     1       1.891   3.682  19.905  0.00  0.00    +0.000 A 
BRANCH  20  25
ATOM     25  C   UNL     1       4.171   2.755  19.219  0.00  0.00    +0.000 C 
BRANCH  25  29
ATOM     26  C   UNL     1       6.479   6.164  17.871  0.00  0.00    +0.000 A 
ATOM     27  C   UNL     1       6.662   5.650  19.157  0.00  0.00    +0.000 A 
ATOM     28  C   UNL     1       5.898   4.560  19.589  0.00  0.00    +0.000 A 
ATOM     29  C   UNL     1       4.931   3.978  18.753  0.00  0.00    +0.000 A 
ATOM     30  C   UNL     1       4.754   4.513  17.468  0.00  0.00    +0.000 A 
ATOM     31  C   UNL     1       5.521   5.594  17.028  0.00  0.00    +0.000 A 
BRANCH  26  33
ATOM     32  N   UNL     1       7.934   8.125  16.995  0.00  0.00    +0.000 NA
ATOM     33  C   UNL     1       7.296   7.250  17.405  0.00  0.00    +0.000 C 
ENDBRANCH  26  33
ENDBRANCH  25  29
ENDBRANCH  20  25
ENDBRANCH  19  24
ENDBRANCH   1  19
TORSDOF 8
ENDMDL
MODEL 6
REMARK VINA RESULT:      -7.4      3.185      8.581
REMARK  Name = 
REMARK  8 active torsions:
REMARK  status: ('A' for Active; 'I' for Inactive)
REMARK    1  A    between atoms: C_2  and  C_3
REMARK    2  A    between atoms: C_6  and  C_7
REMARK    3  A    between atoms: C_7  and  N_8
REMARK    4  A    between atoms: C_12  and  C_13
REMARK    5  A    between atoms: C_13  and  N_14
REMARK    6  A    between atoms: N_14  and  C_15
REMARK    7  A    between atoms: C_19  and  C_21
REMARK    8  A    between atoms: C_26  and  S_27
REMARK                            x       y       z     vdW  Elec       q    Type
REMARK                         _______ _______ _______ _____ _____    ______ ____
ROOT
ATOM      1  N   UNL     1       2.824   5.898  20.569  0.00  0.00    +0.000 NA
ATOM      2  H   UNL     1       3.640   6.092  19.982  0.00  0.00    +0.000 HD
ENDROOT
BRANCH   1   3
ATOM      3  C   UNL     1       1.748   6.821  20.200  0.00  0.00    +0.000 C 
ATOM      4  C   UNL     1       1.395   7.755  21.344  0.00  0.00    +0.000 C 
ATOM      5  C   UNL     1       0.802   8.937  20.630  0.00  0.00    +0.000 C 
ATOM      6  N   UNL     1       1.490   9.030  19.358  0.00  0.00    +0.000 N 
ATOM      7  C   UNL     1       1.402  10.096  18.451  0.00  0.00    +0.000 C 
ATOM      8  O   UNL     1       1.900  10.086  17.332  0.00  0.00    +0.000 OA
ATOM      9  C   UNL     1       2.155   7.807  19.092  0.00  0.00    +0.000 C 
ATOM     10  O   UNL     1       2.898   7.527  18.164  0.00  0.00    +0.000 OA
BRANCH   7  11
ATOM     11  C   UNL     1       0.629  11.310  18.855  0.00  0.00    +0.000 A 
ATOM     12  C   UNL     1       1.274  12.357  19.534  0.00  0.00    +0.000 A 
ATOM     13  C   UNL     1       0.624  13.566  19.750  0.00  0.00    +0.000 A 
ATOM     14  C   UNL     1      -0.702  13.656  19.384  0.00  0.00    +0.000 A 
ATOM     15  N   UNL     1      -1.392  12.634  18.838  0.00  0.00    +0.000 NA
ATOM     16  C   UNL     1      -0.730  11.470  18.580  0.00  0.00    +0.000 A 
BRANCH  16  17
ATOM     17  S   UNL     1      -1.783  10.254  17.833  0.00  0.00    +0.000 S 
ATOM     18  H   UNL     1      -1.250   9.236  18.523  0.00  0.00    +0.000 HD
ENDBRANCH  16  17
ENDBRANCH   7  11
ENDBRANCH   1   3
BRANCH   1  19
ATOM     19  C   UNL     1       2.423   4.507  20.412  0.00  0.00    +0.000 C 
BRANCH  19  24
ATOM     20  N   UNL     1       3.639   3.682  18.327  0.00  0.00    +0.000 N 
ATOM     21  C   UNL     1       3.241   3.221  17.101  0.00  0.00    +0.000 A 
ATOM     22  N   UNL     1       1.951   3.375  16.913  0.00  0.00    +0.000 NA
ATOM     23  C   UNL     1       1.486   3.918  18.077  0.00  0.00    +0.000 A 
ATOM     24  C   UNL     1       2.503   4.084  18.996  0.00  0.00    +0.000 A 
BRANCH  20  25
ATOM     25  C   UNL     1       5.004   3.593  18.827  0.00  0.00    +0.000 C 
BRANCH  25  29
ATOM     26  C   UNL     1       7.288   7.182  18.011  0.00  0.00    +0.000 A 
ATOM     27  C   UNL     1       6.172   6.861  17.234  0.00  0.00    +0.000 A 
ATOM     28  C   UNL     1       5.453   5.690  17.494  0.00  0.00    +0.000 A 
ATOM     29  C   UNL     1       5.843   4.814  18.520  0.00  0.00    +0.000 A 
ATOM     30  C   UNL     1       6.972   5.147  19.284  0.00  0.00    +0.000 A 
ATOM     31  C   UNL     1       7.688   6.319  19.036  0.00  0.00    +0.000 A 
BRANCH  26  33
ATOM     32  N   UNL     1       8.597   9.377  17.570  0.00  0.00    +0.000 NA
ATOM     33  C   UNL     1       8.001   8.408  17.781  0.00  0.00    +0.000 C 
ENDBRANCH  26  33
ENDBRANCH  25  29
ENDBRANCH  20  25
ENDBRANCH  19  24
ENDBRANCH   1  19
TORSDOF 8
ENDMDL
MODEL 7
REMARK VINA RESULT:      -7.4      3.320      8.856
REMARK  Name = 
REMARK  8 active torsions:
REMARK  status: ('A' for Active; 'I' for Inactive)
REMARK    1  A    between atoms: C_2  and  C_3
REMARK    2  A    between atoms: C_6  and  C_7
REMARK    3  A    between atoms: C_7  and  N_8
REMARK    4  A    between atoms: C_12  and  C_13
REMARK    5  A    between atoms: C_13  and  N_14
REMARK    6  A    between atoms: N_14  and  C_15
REMARK    7  A    between atoms: C_19  and  C_21
REMARK    8  A    between atoms: C_26  and  S_27
REMARK                            x       y       z     vdW  Elec       q    Type
REMARK                         _______ _______ _______ _____ _____    ______ ____
ROOT
ATOM      1  N   UNL     1       2.008   6.438  18.612  0.00  0.00    +0.000 NA
ATOM      2  H   UNL     1       1.009   6.370  18.400  0.00  0.00    +0.000 HD
ENDROOT
BRANCH   1   3
ATOM      3  C   UNL     1       2.336   7.840  18.886  0.00  0.00    +0.000 C 
ATOM      4  C   UNL     1       2.064   8.723  17.681  0.00  0.00    +0.000 C 
ATOM      5  C   UNL     1       1.852  10.073  18.307  0.00  0.00    +0.000 C 
ATOM      6  N   UNL     1       1.249   9.830  19.602  0.00  0.00    +0.000 N 
ATOM      7  C   UNL     1       0.698  10.803  20.449  0.00  0.00    +0.000 C 
ATOM      8  O   UNL     1       0.308  10.578  21.588  0.00  0.00    +0.000 OA
ATOM      9  C   UNL     1       1.434   8.471  19.959  0.00  0.00    +0.000 C 
ATOM     10  O   UNL     1       1.003   7.872  20.932  0.00  0.00    +0.000 OA
BRANCH   7  11
ATOM     11  C   UNL     1       0.605  12.209  19.950  0.00  0.00    +0.000 A 
ATOM     12  C   UNL     1       1.597  13.141  20.294  0.00  0.00    +0.000 A 
ATOM     13  C   UNL     1       1.632  14.392  19.692  0.00  0.00    +0.000 A 
ATOM     14  C   UNL     1       0.598  14.725  18.843  0.00  0.00    +0.000 A 
ATOM     15  N   UNL     1      -0.438  13.902  18.578  0.00  0.00    +0.000 NA
ATOM     16  C   UNL     1      -0.434  12.656  19.131  0.00  0.00    +0.000 A 
BRANCH  16  17
ATOM     17  S   UNL     1      -1.850  11.705  18.647  0.00  0.00    +0.000 S 
ATOM     18  H   UNL     1      -1.567  11.779  17.339  0.00  0.00    +0.000 HD
ENDBRANCH  16  17
ENDBRANCH   7  11
ENDBRANCH   1   3
BRANCH   1  19
ATOM     19  C   UNL     1       2.333   5.576  19.739  0.00  0.00    +0.000 C 
BRANCH  19  24
ATOM     20  N   UNL     1       3.239   3.252  19.203  0.00  0.00    +0.000 N 
ATOM     21  C   UNL     1       2.676   2.014  19.038  0.00  0.00    +0.000 A 
ATOM     22  N   UNL     1       1.365   2.071  19.011  0.00  0.00    +0.000 NA
ATOM     23  C   UNL     1       1.063   3.388  19.207  0.00  0.00    +0.000 A 
ATOM     24  C   UNL     1       2.205   4.147  19.373  0.00  0.00    +0.000 A 
BRANCH  20  25
ATOM     25  C   UNL     1       4.672   3.486  19.321  0.00  0.00    +0.000 C 
BRANCH  25  29
ATOM     26  C   UNL     1       6.606   4.805  15.676  0.00  0.00    +0.000 A 
ATOM     27  C   UNL     1       7.227   4.992  16.914  0.00  0.00    +0.000 A 
ATOM     28  C   UNL     1       6.586   4.579  18.087  0.00  0.00    +0.000 A 
ATOM     29  C   UNL     1       5.311   3.989  18.044  0.00  0.00    +0.000 A 
ATOM     30  C   UNL     1       4.698   3.819  16.794  0.00  0.00    +0.000 A 
ATOM     31  C   UNL     1       5.338   4.220  15.620  0.00  0.00    +0.000 A 
BRANCH  26  33
ATOM     32  N   UNL     1       7.839   5.448  13.486  0.00  0.00    +0.000 NA
ATOM     33  C   UNL     1       7.281   5.181  14.465  0.00  0.00    +0.000 C 
ENDBRANCH  26  33
ENDBRANCH  25  29
ENDBRANCH  20  25
ENDBRANCH  19  24
ENDBRANCH   1  19
TORSDOF 8
ENDMDL
MODEL 8
REMARK VINA RESULT:      -7.3      3.189      8.722
REMARK  Name = 
REMARK  8 active torsions:
REMARK  status: ('A' for Active; 'I' for Inactive)
REMARK    1  A    between atoms: C_2  and  C_3
REMARK    2  A    between atoms: C_6  and  C_7
REMARK    3  A    between atoms: C_7  and  N_8
REMARK    4  A    between atoms: C_12  and  C_13
REMARK    5  A    between atoms: C_13  and  N_14
REMARK    6  A    between atoms: N_14  and  C_15
REMARK    7  A    between atoms: C_19  and  C_21
REMARK    8  A    between atoms: C_26  and  S_27
REMARK                            x       y       z     vdW  Elec       q    Type
REMARK                         _______ _______ _______ _____ _____    ______ ____
ROOT
ATOM      1  N   UNL     1       2.371   6.046  18.730  0.00  0.00    +0.000 NA
ATOM      2  H   UNL     1       1.488   5.757  19.160  0.00  0.00    +0.000 HD
ENDROOT
BRANCH   1   3
ATOM      3  C   UNL     1       2.539   7.488  18.925  0.00  0.00    +0.000 C 
ATOM      4  C   UNL     1       2.130   8.271  17.690  0.00  0.00    +0.000 C 
ATOM      5  C   UNL     1       1.778   9.618  18.258  0.00  0.00    +0.000 C 
ATOM      6  N   UNL     1       1.245   9.372  19.582  0.00  0.00    +0.000 N 
ATOM      7  C   UNL     1       0.607  10.317  20.401  0.00  0.00    +0.000 C 
ATOM      8  O   UNL     1       0.280  10.107  21.562  0.00  0.00    +0.000 OA
ATOM      9  C   UNL     1       1.599   8.064  19.998  0.00  0.00    +0.000 C 
ATOM     10  O   UNL     1       1.271   7.470  21.013  0.00  0.00    +0.000 OA
BRANCH   7  11
ATOM     11  C   UNL     1       0.335  11.675  19.838  0.00  0.00    +0.000 A 
ATOM     12  C   UNL     1       1.144  12.761  20.209  0.00  0.00    +0.000 A 
ATOM     13  C   UNL     1       1.027  13.983  19.558  0.00  0.00    +0.000 A 
ATOM     14  C   UNL     1       0.019  14.123  18.630  0.00  0.00    +0.000 A 
ATOM     15  N   UNL     1      -0.855  13.140  18.331  0.00  0.00    +0.000 NA
ATOM     16  C   UNL     1      -0.699  11.928  18.935  0.00  0.00    +0.000 A 
BRANCH  16  17
ATOM     17  S   UNL     1      -1.913  10.752  18.398  0.00  0.00    +0.000 S 
ATOM     18  H   UNL     1      -2.781  11.693  18.000  0.00  0.00    +0.000 HD
ENDBRANCH  16  17
ENDBRANCH   7  11
ENDBRANCH   1   3
BRANCH   1  19
ATOM     19  C   UNL     1       3.472   5.289  19.308  0.00  0.00    +0.000 C 
BRANCH  19  24
ATOM     20  N   UNL     1       3.749   3.236  17.821  0.00  0.00    +0.000 N 
ATOM     21  C   UNL     1       3.619   1.885  18.011  0.00  0.00    +0.000 A 
ATOM     22  N   UNL     1       3.096   1.603  19.181  0.00  0.00    +0.000 NA
ATOM     23  C   UNL     1       2.920   2.811  19.792  0.00  0.00    +0.000 A 
ATOM     24  C   UNL     1       3.354   3.848  18.991  0.00  0.00    +0.000 A 
BRANCH  20  25
ATOM     25  C   UNL     1       4.345   3.837  16.636  0.00  0.00    +0.000 C 
BRANCH  25  29
ATOM     26  C   UNL     1       7.119   7.010  17.638  0.00  0.00    +0.000 A 
ATOM     27  C   UNL     1       5.985   7.279  16.868  0.00  0.00    +0.000 A 
ATOM     28  C   UNL     1       5.105   6.244  16.534  0.00  0.00    +0.000 A 
ATOM     29  C   UNL     1       5.351   4.924  16.949  0.00  0.00    +0.000 A 
ATOM     30  C   UNL     1       6.500   4.670  17.713  0.00  0.00    +0.000 A 
ATOM     31  C   UNL     1       7.376   5.701  18.058  0.00  0.00    +0.000 A 
BRANCH  26  33
ATOM     32  N   UNL     1       8.684   8.946  18.368  0.00  0.00    +0.000 NA
ATOM     33  C   UNL     1       7.999   8.077  18.026  0.00  0.00    +0.000 C 
ENDBRANCH  26  33
ENDBRANCH  25  29
ENDBRANCH  20  25
ENDBRANCH  19  24
ENDBRANCH   1  19
TORSDOF 8
ENDMDL
MODEL 9
REMARK VINA RESULT:      -7.3      3.161      8.720
REMARK  Name = 
REMARK  8 active torsions:
REMARK  status: ('A' for Active; 'I' for Inactive)
REMARK    1  A    between atoms: C_2  and  C_3
REMARK    2  A    between atoms: C_6  and  C_7
REMARK    3  A    between atoms: C_7  and  N_8
REMARK    4  A    between atoms: C_12  and  C_13
REMARK    5  A    between atoms: C_13  and  N_14
REMARK    6  A    between atoms: N_14  and  C_15
REMARK    7  A    between atoms: C_19  and  C_21
REMARK    8  A    between atoms: C_26  and  S_27
REMARK                            x       y       z     vdW  Elec       q    Type
REMARK                         _______ _______ _______ _____ _____    ______ ____
ROOT
ATOM      1  N   UNL     1       2.245   5.906  19.460  0.00  0.00    +0.000 NA
ATOM      2  H   UNL     1       2.960   5.490  20.063  0.00  0.00    +0.000 HD
ENDROOT
BRANCH   1   3
ATOM      3  C   UNL     1       2.434   7.359  19.441  0.00  0.00    +0.000 C 
ATOM      4  C   UNL     1       2.024   7.959  18.107  0.00  0.00    +0.000 C 
ATOM      5  C   UNL     1       1.696   9.379  18.475  0.00  0.00    +0.000 C 
ATOM      6  N   UNL     1       1.172   9.337  19.825  0.00  0.00    +0.000 N 
ATOM      7  C   UNL     1       0.555  10.401  20.502  0.00  0.00    +0.000 C 
ATOM      8  O   UNL     1       0.236  10.367  21.684  0.00  0.00    +0.000 OA
ATOM      9  C   UNL     1       1.513   8.099  20.425  0.00  0.00    +0.000 C 
ATOM     10  O   UNL     1       1.187   7.664  21.518  0.00  0.00    +0.000 OA
BRANCH   7  11
ATOM     11  C   UNL     1       0.295  11.665  19.749  0.00  0.00    +0.000 A 
ATOM     12  C   UNL     1       1.097  12.795  19.980  0.00  0.00    +0.000 A 
ATOM     13  C   UNL     1       0.995  13.914  19.162  0.00  0.00    +0.000 A 
ATOM     14  C   UNL     1       0.006  13.920  18.203  0.00  0.00    +0.000 A 
ATOM     15  N   UNL     1      -0.862  12.903  18.027  0.00  0.00    +0.000 NA
ATOM     16  C   UNL     1      -0.720  11.787  18.798  0.00  0.00    +0.000 A 
BRANCH  16  17
ATOM     17  S   UNL     1      -1.923  10.545  18.406  0.00  0.00    +0.000 S 
ATOM     18  H   UNL     1      -1.663   9.818  19.502  0.00  0.00    +0.000 HD
ENDBRANCH  16  17
ENDBRANCH   7  11
ENDBRANCH   1   3
BRANCH   1  19
ATOM     19  C   UNL     1       2.327   5.331  18.126  0.00  0.00    +0.000 C 
BRANCH  19  24
ATOM     20  N   UNL     1       3.609   3.241  17.422  0.00  0.00    +0.000 N 
ATOM     21  C   UNL     1       3.713   1.965  17.912  0.00  0.00    +0.000 A 
ATOM     22  N   UNL     1       2.848   1.736  18.871  0.00  0.00    +0.000 NA
ATOM     23  C   UNL     1       2.186   2.918  19.042  0.00  0.00    +0.000 A 
ATOM     24  C   UNL     1       2.662   3.890  18.185  0.00  0.00    +0.000 A 
BRANCH  20  25
ATOM     25  C   UNL     1       4.476   3.789  16.388  0.00  0.00    +0.000 C 
BRANCH  25  29
ATOM     26  C   UNL     1       7.033   7.050  17.648  0.00  0.00    +0.000 A 
ATOM     27  C   UNL     1       7.307   5.741  18.050  0.00  0.00    +0.000 A 
ATOM     28  C   UNL     1       6.465   4.697  17.653  0.00  0.00    +0.000 A 
ATOM     29  C   UNL     1       5.329   4.945  16.864  0.00  0.00    +0.000 A 
ATOM     30  C   UNL     1       5.064   6.267  16.477  0.00  0.00    +0.000 A 
ATOM     31  C   UNL     1       5.907   7.312  16.861  0.00  0.00    +0.000 A 
BRANCH  26  33
ATOM     32  N   UNL     1       8.630   8.999  18.270  0.00  0.00    +0.000 NA
ATOM     33  C   UNL     1       7.923   8.119  18.010  0.00  0.00    +0.000 C 
ENDBRANCH  26  33
ENDBRANCH  25  29
ENDBRANCH  20  25
ENDBRANCH  19  24
ENDBRANCH   1  19
TORSDOF 8
ENDMDL
