MODEL 1
REMARK VINA RESULT:      -7.5      0.000      0.000
REMARK  Name = 
REMARK  4 active torsions:
REMARK  status: ('A' for Active; 'I' for Inactive)
REMARK    1  A    between atoms: N_6  and  C_7
REMARK    2  A    between atoms: C_7  and  C_8
REMARK    3  A    between atoms: C_8  and  N_9
REMARK    4  A    between atoms: N_9  and  C_10
REMARK                            x       y       z     vdW  Elec       q    Type
REMARK                         _______ _______ _______ _____ _____    ______ ____
ROOT
ATOM      1  N   UNL     1       4.416   3.101  17.785  0.00  0.00    +0.000 N 
ATOM      2  H   UNL     1       4.742   2.179  17.520  0.00  0.00    +0.000 HD
ENDROOT
BRANCH   1   3
ATOM      3  C   UNL     1       5.434   4.054  17.810  0.00  0.00    +0.000 A 
ATOM      4  N   UNL     1       5.815   4.607  18.997  0.00  0.00    +0.000 NA
ATOM      5  C   UNL     1       6.814   5.519  19.045  0.00  0.00    +0.000 A 
ATOM      6  C   UNL     1       7.522   5.982  17.955  0.00  0.00    +0.000 A 
ATOM      7  C   UNL     1       7.117   5.417  16.760  0.00  0.00    +0.000 A 
ATOM      8  O   UNL     1       7.645   5.705  15.538  0.00  0.00    +0.000 OA
ATOM      9  C   UNL     1       6.980   4.947  14.629  0.00  0.00    +0.000 A 
ATOM     10  C   UNL     1       6.030   4.171  15.252  0.00  0.00    +0.000 A 
ATOM     11  C   UNL     1       6.106   4.470  16.643  0.00  0.00    +0.000 A 
ENDBRANCH   1   3
BRANCH   1  12
ATOM     12  C   UNL     1       3.190   3.535  17.118  0.00  0.00    +0.000 C 
BRANCH  12  13
ATOM     13  C   UNL     1       2.351   4.438  18.037  0.00  0.00    +0.000 C 
BRANCH  13  19
ATOM     14  O   UNL     1       0.576   2.252  18.847  0.00  0.00    +0.000 OA
ATOM     15  C   UNL     1       1.205   2.914  19.657  0.00  0.00    +0.000 C 
ATOM     16  C   UNL     1       1.034   2.852  21.155  0.00  0.00    +0.000 C 
ATOM     17  C   UNL     1       2.241   3.621  21.674  0.00  0.00    +0.000 C 
ATOM     18  C   UNL     1       2.540   4.610  20.566  0.00  0.00    +0.000 C 
ATOM     19  N   UNL     1       2.138   3.902  19.375  0.00  0.00    +0.000 N 
ENDBRANCH  13  19
ENDBRANCH  12  13
ENDBRANCH   1  12
TORSDOF 4
ENDMDL
MODEL 2
REMARK VINA RESULT:      -7.3      1.448      1.677
REMARK  Name = 
REMARK  4 active torsions:
REMARK  status: ('A' for Active; 'I' for Inactive)
REMARK    1  A    between atoms: N_6  and  C_7
REMARK    2  A    between atoms: C_7  and  C_8
REMARK    3  A    between atoms: C_8  and  N_9
REMARK    4  A    between atoms: N_9  and  C_10
REMARK                            x       y       z     vdW  Elec       q    Type
REMARK                         _______ _______ _______ _____ _____    ______ ____
ROOT
ATOM      1  N   UNL     1       3.346   4.856  17.488  0.00  0.00    +0.000 N 
ATOM      2  H   UNL     1       2.830   5.189  18.295  0.00  0.00    +0.000 HD
ENDROOT
BRANCH   1   3
ATOM      3  C   UNL     1       4.727   4.981  17.632  0.00  0.00    +0.000 A 
ATOM      4  N   UNL     1       5.260   5.226  18.863  0.00  0.00    +0.000 NA
ATOM      5  C   UNL     1       6.600   5.331  19.027  0.00  0.00    +0.000 A 
ATOM      6  C   UNL     1       7.536   5.220  18.020  0.00  0.00    +0.000 A 
ATOM      7  C   UNL     1       6.977   4.980  16.779  0.00  0.00    +0.000 A 
ATOM      8  O   UNL     1       7.677   4.837  15.619  0.00  0.00    +0.000 OA
ATOM      9  C   UNL     1       6.771   4.616  14.633  0.00  0.00    +0.000 A 
ATOM     10  C   UNL     1       5.493   4.612  15.144  0.00  0.00    +0.000 A 
ATOM     11  C   UNL     1       5.613   4.852  16.544  0.00  0.00    +0.000 A 
ENDBRANCH   1   3
BRANCH   1  12
ATOM     12  C   UNL     1       2.901   3.566  16.964  0.00  0.00    +0.000 C 
BRANCH  12  13
ATOM     13  C   UNL     1       3.170   2.438  17.973  0.00  0.00    +0.000 C 
BRANCH  13  19
ATOM     14  O   UNL     1       4.646   2.278  20.500  0.00  0.00    +0.000 OA
ATOM     15  C   UNL     1       3.449   2.516  20.458  0.00  0.00    +0.000 C 
ATOM     16  C   UNL     1       2.529   2.571  21.653  0.00  0.00    +0.000 C 
ATOM     17  C   UNL     1       1.261   3.196  21.086  0.00  0.00    +0.000 C 
ATOM     18  C   UNL     1       1.273   2.772  19.631  0.00  0.00    +0.000 C 
ATOM     19  N   UNL     1       2.680   2.705  19.319  0.00  0.00    +0.000 N 
ENDBRANCH  13  19
ENDBRANCH  12  13
ENDBRANCH   1  12
TORSDOF 4
ENDMDL
MODEL 3
REMARK VINA RESULT:      -7.2      1.082      1.415
REMARK  Name = 
REMARK  4 active torsions:
REMARK  status: ('A' for Active; 'I' for Inactive)
REMARK    1  A    between atoms: N_6  and  C_7
REMARK    2  A    between atoms: C_7  and  C_8
REMARK    3  A    between atoms: C_8  and  N_9
REMARK    4  A    between atoms: N_9  and  C_10
REMARK                            x       y       z     vdW  Elec       q    Type
REMARK                         _______ _______ _______ _____ _____    ______ ____
ROOT
ATOM      1  N   UNL     1       4.415   2.986  17.882  0.00  0.00    +0.000 N 
ATOM      2  H   UNL     1       4.789   2.054  17.752  0.00  0.00    +0.000 HD
ENDROOT
BRANCH   1   3
ATOM      3  C   UNL     1       5.395   3.977  17.859  0.00  0.00    +0.000 A 
ATOM      4  N   UNL     1       5.773   4.583  19.020  0.00  0.00    +0.000 NA
ATOM      5  C   UNL     1       6.737   5.534  19.022  0.00  0.00    +0.000 A 
ATOM      6  C   UNL     1       7.410   5.987  17.906  0.00  0.00    +0.000 A 
ATOM      7  C   UNL     1       7.008   5.368  16.737  0.00  0.00    +0.000 A 
ATOM      8  O   UNL     1       7.505   5.635  15.498  0.00  0.00    +0.000 OA
ATOM      9  C   UNL     1       6.856   4.823  14.625  0.00  0.00    +0.000 A 
ATOM     10  C   UNL     1       5.947   4.032  15.289  0.00  0.00    +0.000 A 
ATOM     11  C   UNL     1       6.032   4.380  16.668  0.00  0.00    +0.000 A 
ENDBRANCH   1   3
BRANCH   1  12
ATOM     12  C   UNL     1       3.225   3.286  17.088  0.00  0.00    +0.000 C 
BRANCH  12  13
ATOM     13  C   UNL     1       2.337   4.323  17.794  0.00  0.00    +0.000 C 
BRANCH  13  19
ATOM     14  O   UNL     1       2.903   5.829  20.243  0.00  0.00    +0.000 OA
ATOM     15  C   UNL     1       2.376   4.727  20.263  0.00  0.00    +0.000 C 
ATOM     16  C   UNL     1       2.117   3.907  21.502  0.00  0.00    +0.000 C 
ATOM     17  C   UNL     1       1.189   2.808  21.003  0.00  0.00    +0.000 C 
ATOM     18  C   UNL     1       1.575   2.646  19.546  0.00  0.00    +0.000 C 
ATOM     19  N   UNL     1       1.982   3.977  19.164  0.00  0.00    +0.000 N 
ENDBRANCH  13  19
ENDBRANCH  12  13
ENDBRANCH   1  12
TORSDOF 4
ENDMDL
MODEL 4
REMARK VINA RESULT:      -7.1      0.998      1.114
REMARK  Name = 
REMARK  4 active torsions:
REMARK  status: ('A' for Active; 'I' for Inactive)
REMARK    1  A    between atoms: N_6  and  C_7
REMARK    2  A    between atoms: C_7  and  C_8
REMARK    3  A    between atoms: C_8  and  N_9
REMARK    4  A    between atoms: N_9  and  C_10
REMARK                            x       y       z     vdW  Elec       q    Type
REMARK                         _______ _______ _______ _____ _____    ______ ____
ROOT
ATOM      1  N   UNL     1       3.710   3.882  17.747  0.00  0.00    +0.000 N 
ATOM      2  H   UNL     1       3.114   4.114  18.533  0.00  0.00    +0.000 HD
ENDROOT
BRANCH   1   3
ATOM      3  C   UNL     1       4.956   4.504  17.805  0.00  0.00    +0.000 A 
ATOM      4  N   UNL     1       5.461   4.901  19.008  0.00  0.00    +0.000 NA
ATOM      5  C   UNL     1       6.678   5.489  19.087  0.00  0.00    +0.000 A 
ATOM      6  C   UNL     1       7.505   5.754  18.015  0.00  0.00    +0.000 A 
ATOM      7  C   UNL     1       6.974   5.353  16.803  0.00  0.00    +0.000 A 
ATOM      8  O   UNL     1       7.581   5.504  15.593  0.00  0.00    +0.000 OA
ATOM      9  C   UNL     1       6.742   4.987  14.660  0.00  0.00    +0.000 A 
ATOM     10  C   UNL     1       5.600   4.500  15.256  0.00  0.00    +0.000 A 
ATOM     11  C   UNL     1       5.737   4.736  16.654  0.00  0.00    +0.000 A 
ENDBRANCH   1   3
BRANCH   1  12
ATOM     12  C   UNL     1       3.752   2.462  17.406  0.00  0.00    +0.000 C 
BRANCH  12  13
ATOM     13  C   UNL     1       3.422   1.590  18.629  0.00  0.00    +0.000 C 
BRANCH  13  19
ATOM     14  O   UNL     1       0.696   2.613  18.300  0.00  0.00    +0.000 OA
ATOM     15  C   UNL     1       1.329   2.765  19.334  0.00  0.00    +0.000 C 
ATOM     16  C   UNL     1       0.908   3.634  20.493  0.00  0.00    +0.000 C 
ATOM     17  C   UNL     1       1.869   3.222  21.601  0.00  0.00    +0.000 C 
ATOM     18  C   UNL     1       3.111   2.781  20.853  0.00  0.00    +0.000 C 
ATOM     19  N   UNL     1       2.581   2.243  19.623  0.00  0.00    +0.000 N 
ENDBRANCH  13  19
ENDBRANCH  12  13
ENDBRANCH   1  12
TORSDOF 4
ENDMDL
MODEL 5
REMARK VINA RESULT:      -7.0      1.093      1.571
REMARK  Name = 
REMARK  4 active torsions:
REMARK  status: ('A' for Active; 'I' for Inactive)
REMARK    1  A    between atoms: N_6  and  C_7
REMARK    2  A    between atoms: C_7  and  C_8
REMARK    3  A    between atoms: C_8  and  N_9
REMARK    4  A    between atoms: N_9  and  C_10
REMARK                            x       y       z     vdW  Elec       q    Type
REMARK                         _______ _______ _______ _____ _____    ______ ____
ROOT
ATOM      1  N   UNL     1       4.451   2.867  17.649  0.00  0.00    +0.000 N 
ATOM      2  H   UNL     1       4.808   2.001  17.264  0.00  0.00    +0.000 HD
ENDROOT
BRANCH   1   3
ATOM      3  C   UNL     1       5.407   3.881  17.692  0.00  0.00    +0.000 A 
ATOM      4  N   UNL     1       5.731   4.457  18.885  0.00  0.00    +0.000 NA
ATOM      5  C   UNL     1       6.670   5.430  18.950  0.00  0.00    +0.000 A 
ATOM      6  C   UNL     1       7.367   5.937  17.873  0.00  0.00    +0.000 A 
ATOM      7  C   UNL     1       7.020   5.347  16.671  0.00  0.00    +0.000 A 
ATOM      8  O   UNL     1       7.551   5.668  15.459  0.00  0.00    +0.000 OA
ATOM      9  C   UNL     1       6.951   4.870  14.539  0.00  0.00    +0.000 A 
ATOM     10  C   UNL     1       6.041   4.036  15.145  0.00  0.00    +0.000 A 
ATOM     11  C   UNL     1       6.072   4.339  16.537  0.00  0.00    +0.000 A 
ENDBRANCH   1   3
BRANCH   1  12
ATOM     12  C   UNL     1       3.147   3.278  17.133  0.00  0.00    +0.000 C 
BRANCH  12  13
ATOM     13  C   UNL     1       2.103   3.343  18.258  0.00  0.00    +0.000 C 
BRANCH  13  19
ATOM     14  O   UNL     1       1.164   3.752  21.004  0.00  0.00    +0.000 OA
ATOM     15  C   UNL     1       1.597   4.666  20.321  0.00  0.00    +0.000 C 
ATOM     16  C   UNL     1       1.544   6.129  20.687  0.00  0.00    +0.000 C 
ATOM     17  C   UNL     1       2.474   6.775  19.670  0.00  0.00    +0.000 C 
ATOM     18  C   UNL     1       2.377   5.862  18.464  0.00  0.00    +0.000 C 
ATOM     19  N   UNL     1       2.150   4.564  19.053  0.00  0.00    +0.000 N 
ENDBRANCH  13  19
ENDBRANCH  12  13
ENDBRANCH   1  12
TORSDOF 4
ENDMDL
MODEL 6
REMARK VINA RESULT:      -6.9      1.846      2.021
REMARK  Name = 
REMARK  4 active torsions:
REMARK  status: ('A' for Active; 'I' for Inactive)
REMARK    1  A    between atoms: N_6  and  C_7
REMARK    2  A    between atoms: C_7  and  C_8
REMARK    3  A    between atoms: C_8  and  N_9
REMARK    4  A    between atoms: N_9  and  C_10
REMARK                            x       y       z     vdW  Elec       q    Type
REMARK                         _______ _______ _______ _____ _____    ______ ____
ROOT
ATOM      1  N   UNL     1       4.343   2.742  17.649  0.00  0.00    +0.000 N 
ATOM      2  H   UNL     1       5.141   2.147  17.460  0.00  0.00    +0.000 HD
ENDROOT
BRANCH   1   3
ATOM      3  C   UNL     1       4.539   4.062  17.244  0.00  0.00    +0.000 A 
ATOM      4  N   UNL     1       3.930   5.076  17.923  0.00  0.00    +0.000 NA
ATOM      5  C   UNL     1       4.122   6.366  17.557  0.00  0.00    +0.000 A 
ATOM      6  C   UNL     1       4.907   6.785  16.503  0.00  0.00    +0.000 A 
ATOM      7  C   UNL     1       5.509   5.744  15.822  0.00  0.00    +0.000 A 
ATOM      8  O   UNL     1       6.326   5.883  14.740  0.00  0.00    +0.000 OA
ATOM      9  C   UNL     1       6.708   4.635  14.368  0.00  0.00    +0.000 A 
ATOM     10  C   UNL     1       6.149   3.691  15.199  0.00  0.00    +0.000 A 
ATOM     11  C   UNL     1       5.361   4.401  16.150  0.00  0.00    +0.000 A 
ENDBRANCH   1   3
BRANCH   1  12
ATOM     12  C   UNL     1       3.050   2.174  17.275  0.00  0.00    +0.000 C 
BRANCH  12  13
ATOM     13  C   UNL     1       2.262   1.730  18.517  0.00  0.00    +0.000 C 
BRANCH  13  19
ATOM     14  O   UNL     1       3.944   2.252  20.859  0.00  0.00    +0.000 OA
ATOM     15  C   UNL     1       2.913   2.870  20.647  0.00  0.00    +0.000 C 
ATOM     16  C   UNL     1       2.257   3.827  21.612  0.00  0.00    +0.000 C 
ATOM     17  C   UNL     1       1.216   4.529  20.749  0.00  0.00    +0.000 C 
ATOM     18  C   UNL     1       0.865   3.496  19.698  0.00  0.00    +0.000 C 
ATOM     19  N   UNL     1       2.099   2.766  19.529  0.00  0.00    +0.000 N 
ENDBRANCH  13  19
ENDBRANCH  12  13
ENDBRANCH   1  12
TORSDOF 4
ENDMDL
MODEL 7
REMARK VINA RESULT:      -6.8      1.214      2.303
REMARK  Name = 
REMARK  4 active torsions:
REMARK  status: ('A' for Active; 'I' for Inactive)
REMARK    1  A    between atoms: N_6  and  C_7
REMARK    2  A    between atoms: C_7  and  C_8
REMARK    3  A    between atoms: C_8  and  N_9
REMARK    4  A    between atoms: N_9  and  C_10
REMARK                            x       y       z     vdW  Elec       q    Type
REMARK                         _______ _______ _______ _____ _____    ______ ____
ROOT
ATOM      1  N   UNL     1       4.695   3.458  17.877  0.00  0.00    +0.000 N 
ATOM      2  H   UNL     1       5.237   3.114  18.661  0.00  0.00    +0.000 HD
ENDROOT
BRANCH   1   3
ATOM      3  C   UNL     1       5.485   3.999  16.863  0.00  0.00    +0.000 A 
ATOM      4  N   UNL     1       5.506   3.412  15.633  0.00  0.00    +0.000 NA
ATOM      5  C   UNL     1       6.251   3.933  14.630  0.00  0.00    +0.000 A 
ATOM      6  C   UNL     1       7.045   5.057  14.730  0.00  0.00    +0.000 A 
ATOM      7  C   UNL     1       7.018   5.635  15.986  0.00  0.00    +0.000 A 
ATOM      8  O   UNL     1       7.715   6.746  16.353  0.00  0.00    +0.000 OA
ATOM      9  C   UNL     1       7.420   6.989  17.655  0.00  0.00    +0.000 A 
ATOM     10  C   UNL     1       6.537   6.048  18.133  0.00  0.00    +0.000 A 
ATOM     11  C   UNL     1       6.268   5.156  17.055  0.00  0.00    +0.000 A 
ENDBRANCH   1   3
BRANCH   1  12
ATOM     12  C   UNL     1       3.644   2.555  17.414  0.00  0.00    +0.000 C 
BRANCH  12  13
ATOM     13  C   UNL     1       3.242   1.563  18.517  0.00  0.00    +0.000 C 
BRANCH  13  19
ATOM     14  O   UNL     1       0.419   2.348  18.470  0.00  0.00    +0.000 OA
ATOM     15  C   UNL     1       1.139   2.560  19.434  0.00  0.00    +0.000 C 
ATOM     16  C   UNL     1       0.766   3.397  20.633  0.00  0.00    +0.000 C 
ATOM     17  C   UNL     1       1.866   3.076  21.636  0.00  0.00    +0.000 C 
ATOM     18  C   UNL     1       3.058   2.737  20.764  0.00  0.00    +0.000 C 
ATOM     19  N   UNL     1       2.453   2.148  19.594  0.00  0.00    +0.000 N 
ENDBRANCH  13  19
ENDBRANCH  12  13
ENDBRANCH   1  12
TORSDOF 4
ENDMDL
MODEL 8
REMARK VINA RESULT:      -6.8      1.577      2.053
REMARK  Name = 
REMARK  4 active torsions:
REMARK  status: ('A' for Active; 'I' for Inactive)
REMARK    1  A    between atoms: N_6  and  C_7
REMARK    2  A    between atoms: C_7  and  C_8
REMARK    3  A    between atoms: C_8  and  N_9
REMARK    4  A    between atoms: N_9  and  C_10
REMARK                            x       y       z     vdW  Elec       q    Type
REMARK                         _______ _______ _______ _____ _____    ______ ____
ROOT
ATOM      1  N   UNL     1       4.523   2.726  17.631  0.00  0.00    +0.000 N 
ATOM      2  H   UNL     1       4.267   2.488  16.680  0.00  0.00    +0.000 HD
ENDROOT
BRANCH   1   3
ATOM      3  C   UNL     1       5.424   3.788  17.706  0.00  0.00    +0.000 A 
ATOM      4  N   UNL     1       5.699   4.359  18.913  0.00  0.00    +0.000 NA
ATOM      5  C   UNL     1       6.584   5.378  19.010  0.00  0.00    +0.000 A 
ATOM      6  C   UNL     1       7.270   5.939  17.953  0.00  0.00    +0.000 A 
ATOM      7  C   UNL     1       6.973   5.353  16.736  0.00  0.00    +0.000 A 
ATOM      8  O   UNL     1       7.505   5.723  15.538  0.00  0.00    +0.000 OA
ATOM      9  C   UNL     1       6.962   4.911  14.595  0.00  0.00    +0.000 A 
ATOM     10  C   UNL     1       6.087   4.019  15.173  0.00  0.00    +0.000 A 
ATOM     11  C   UNL     1       6.082   4.300  16.569  0.00  0.00    +0.000 A 
ENDBRANCH   1   3
BRANCH   1  12
ATOM     12  C   UNL     1       3.403   2.808  18.566  0.00  0.00    +0.000 C 
BRANCH  12  13
ATOM     13  C   UNL     1       2.320   3.766  18.047  0.00  0.00    +0.000 C 
BRANCH  13  19
ATOM     14  O   UNL     1       3.140   6.540  17.578  0.00  0.00    +0.000 OA
ATOM     15  C   UNL     1       2.596   6.188  18.614  0.00  0.00    +0.000 C 
ATOM     16  C   UNL     1       2.438   7.040  19.849  0.00  0.00    +0.000 C 
ATOM     17  C   UNL     1       1.447   6.248  20.691  0.00  0.00    +0.000 C 
ATOM     18  C   UNL     1       1.693   4.811  20.278  0.00  0.00    +0.000 C 
ATOM     19  N   UNL     1       2.088   4.928  18.895  0.00  0.00    +0.000 N 
ENDBRANCH  13  19
ENDBRANCH  12  13
ENDBRANCH   1  12
TORSDOF 4
ENDMDL
MODEL 9
REMARK VINA RESULT:      -6.8      1.840      5.711
REMARK  Name = 
REMARK  4 active torsions:
REMARK  status: ('A' for Active; 'I' for Inactive)
REMARK    1  A    between atoms: N_6  and  C_7
REMARK    2  A    between atoms: C_7  and  C_8
REMARK    3  A    between atoms: C_8  and  N_9
REMARK    4  A    between atoms: N_9  and  C_10
REMARK                            x       y       z     vdW  Elec       q    Type
REMARK                         _______ _______ _______ _____ _____    ______ ____
ROOT
ATOM      1  N   UNL     1       4.843   3.301  18.583  0.00  0.00    +0.000 N 
ATOM      2  H   UNL     1       5.657   3.836  18.863  0.00  0.00    +0.000 HD
ENDROOT
BRANCH   1   3
ATOM      3  C   UNL     1       3.744   3.505  19.416  0.00  0.00    +0.000 A 
ATOM      4  N   UNL     1       3.207   2.454  20.099  0.00  0.00    +0.000 NA
ATOM      5  C   UNL     1       2.151   2.634  20.927  0.00  0.00    +0.000 A 
ATOM      6  C   UNL     1       1.518   3.838  21.159  0.00  0.00    +0.000 A 
ATOM      7  C   UNL     1       2.070   4.890  20.452  0.00  0.00    +0.000 A 
ATOM      8  O   UNL     1       1.630   6.179  20.494  0.00  0.00    +0.000 OA
ATOM      9  C   UNL     1       2.430   6.899  19.667  0.00  0.00    +0.000 A 
ATOM     10  C   UNL     1       3.383   6.090  19.093  0.00  0.00    +0.000 A 
ATOM     11  C   UNL     1       3.158   4.775  19.594  0.00  0.00    +0.000 A 
ENDBRANCH   1   3
BRANCH   1  12
ATOM     12  C   UNL     1       4.542   3.344  17.154  0.00  0.00    +0.000 C 
BRANCH  12  13
ATOM     13  C   UNL     1       5.679   4.019  16.370  0.00  0.00    +0.000 C 
BRANCH  13  19
ATOM     14  O   UNL     1       5.420   6.913  15.995  0.00  0.00    +0.000 OA
ATOM     15  C   UNL     1       6.223   6.427  16.776  0.00  0.00    +0.000 C 
ATOM     16  C   UNL     1       7.304   7.189  17.502  0.00  0.00    +0.000 C 
ATOM     17  C   UNL     1       7.789   6.192  18.546  0.00  0.00    +0.000 C 
ATOM     18  C   UNL     1       7.532   4.845  17.901  0.00  0.00    +0.000 C 
ATOM     19  N   UNL     1       6.360   5.084  17.095  0.00  0.00    +0.000 N 
ENDBRANCH  13  19
ENDBRANCH  12  13
ENDBRANCH   1  12
TORSDOF 4
ENDMDL
