MODEL 1
REMARK VINA RESULT:      -8.7      0.000      0.000
REMARK  Name = 
REMARK  5 active torsions:
REMARK  status: ('A' for Active; 'I' for Inactive)
REMARK    1  A    between atoms: C_1  and  N_2
REMARK    2  A    between atoms: N_2  and  C_3
REMARK    3  A    between atoms: N_2  and  C_4
REMARK    4  A    between atoms: N_11  and  C_12
REMARK    5  A    between atoms: C_12  and  C_13
REMARK                            x       y       z     vdW  Elec       q    Type
REMARK                         _______ _______ _______ _____ _____    ______ ____
ROOT
ATOM      1  C   UNL     1       0.048  10.539  19.150  0.00  0.00    +0.000 C 
ATOM      2  C   UNL     1      -0.175   9.562  20.345  0.00  0.00    +0.000 C 
ATOM      3  C   UNL     1       1.052   8.742  20.784  0.00  0.00    +0.000 C 
ATOM      4  N   UNL     1       1.754   8.223  19.616  0.00  0.00    +0.000 N 
ATOM      5  C   UNL     1       2.260   6.947  19.563  0.00  0.00    +0.000 A 
ATOM      6  N   UNL     1       3.016   6.594  18.508  0.00  0.00    +0.000 NA
ATOM      7  C   UNL     1       3.524   5.350  18.432  0.00  0.00    +0.000 A 
ATOM      8  N   UNL     1       4.321   5.202  17.319  0.00  0.00    +0.000 N 
ATOM      9  C   UNL     1       3.296   4.398  19.434  0.00  0.00    +0.000 A 
ATOM     10  C   UNL     1       3.839   3.085  19.520  0.00  0.00    +0.000 A 
ATOM     11  C   UNL     1       3.497   2.219  20.555  0.00  0.00    +0.000 A 
ATOM     12  C   UNL     1       2.634   2.658  21.545  0.00  0.00    +0.000 A 
ATOM     13  C   UNL     1       2.135   3.962  21.494  0.00  0.00    +0.000 A 
ATOM     14  C   UNL     1       2.457   4.842  20.465  0.00  0.00    +0.000 A 
ATOM     15  N   UNL     1       1.955   6.078  20.527  0.00  0.00    +0.000 NA
ATOM     16  C   UNL     1       2.128   9.210  18.623  0.00  0.00    +0.000 C 
ATOM     17  C   UNL     1       0.827   9.766  18.060  0.00  0.00    +0.000 C 
ATOM     18  H   UNL     1       4.247   6.060  16.777  0.00  0.00    +0.000 HD
ENDROOT
BRANCH   1  20
ATOM     19  C   UNL     1       0.257  12.908  18.556  0.00  0.00    +0.000 C 
ATOM     20  N   UNL     1       0.690  11.845  19.485  0.00  0.00    +0.000 NA
ATOM     21  C   UNL     1       0.367  12.296  20.845  0.00  0.00    +0.000 C 
ENDBRANCH   1  20
BRANCH   8  22
ATOM     22  C   UNL     1       4.479   4.014  16.507  0.00  0.00    +0.000 C 
BRANCH  22  23
ATOM     23  C   UNL     1       5.459   4.257  15.368  0.00  0.00    +0.000 A 
ATOM     24  C   UNL     1       6.597   5.074  15.517  0.00  0.00    +0.000 A 
ATOM     25  C   UNL     1       7.455   5.318  14.443  0.00  0.00    +0.000 A 
ATOM     26  C   UNL     1       7.186   4.743  13.211  0.00  0.00    +0.000 A 
ATOM     27  F   UNL     1       8.000   4.988  12.176  0.00  0.00    +0.000 F 
ATOM     28  C   UNL     1       6.080   3.919  13.036  0.00  0.00    +0.000 A 
ATOM     29  C   UNL     1       5.219   3.676  14.111  0.00  0.00    +0.000 A 
ENDBRANCH  22  23
ENDBRANCH   8  22
TORSDOF 3
ENDMDL
MODEL 2
REMARK VINA RESULT:      -8.4      3.165      8.271
REMARK  Name = 
REMARK  5 active torsions:
REMARK  status: ('A' for Active; 'I' for Inactive)
REMARK    1  A    between atoms: C_1  and  N_2
REMARK    2  A    between atoms: N_2  and  C_3
REMARK    3  A    between atoms: N_2  and  C_4
REMARK    4  A    between atoms: N_11  and  C_12
REMARK    5  A    between atoms: C_12  and  C_13
REMARK                            x       y       z     vdW  Elec       q    Type
REMARK                         _______ _______ _______ _____ _____    ______ ____
ROOT
ATOM      1  C   UNL     1       4.661   5.778  18.016  0.00  0.00    +0.000 C 
ATOM      2  C   UNL     1       4.074   5.611  19.451  0.00  0.00    +0.000 C 
ATOM      3  C   UNL     1       2.616   6.069  19.641  0.00  0.00    +0.000 C 
ATOM      4  N   UNL     1       2.398   7.346  18.972  0.00  0.00    +0.000 N 
ATOM      5  C   UNL     1       1.662   8.361  19.532  0.00  0.00    +0.000 A 
ATOM      6  N   UNL     1       1.390   9.450  18.792  0.00  0.00    +0.000 NA
ATOM      7  C   UNL     1       0.670  10.457  19.319  0.00  0.00    +0.000 A 
ATOM      8  N   UNL     1       0.442  11.447  18.390  0.00  0.00    +0.000 N 
ATOM      9  C   UNL     1       0.180  10.406  20.630  0.00  0.00    +0.000 A 
ATOM     10  C   UNL     1      -0.661  11.357  21.277  0.00  0.00    +0.000 A 
ATOM     11  C   UNL     1      -1.046  11.205  22.606  0.00  0.00    +0.000 A 
ATOM     12  C   UNL     1      -0.632  10.084  23.305  0.00  0.00    +0.000 A 
ATOM     13  C   UNL     1       0.152   9.123  22.662  0.00  0.00    +0.000 A 
ATOM     14  C   UNL     1       0.556   9.257  21.337  0.00  0.00    +0.000 A 
ATOM     15  N   UNL     1       1.275   8.265  20.805  0.00  0.00    +0.000 NA
ATOM     16  C   UNL     1       2.769   7.388  17.570  0.00  0.00    +0.000 C 
ATOM     17  C   UNL     1       4.278   7.192  17.520  0.00  0.00    +0.000 C 
ATOM     18  H   UNL     1       0.965  11.203  17.552  0.00  0.00    +0.000 HD
ENDROOT
BRANCH   1  20
ATOM     19  C   UNL     1       5.353   4.536  16.020  0.00  0.00    +0.000 C 
ATOM     20  N   UNL     1       4.294   4.715  17.033  0.00  0.00    +0.000 NA
ATOM     21  C   UNL     1       4.076   3.411  17.673  0.00  0.00    +0.000 C 
ENDBRANCH   1  20
BRANCH   8  22
ATOM     22  C   UNL     1       0.364  12.873  18.630  0.00  0.00    +0.000 C 
BRANCH  22  23
ATOM     23  C   UNL     1       1.724  13.438  19.012  0.00  0.00    +0.000 A 
ATOM     24  C   UNL     1       2.093  13.669  20.352  0.00  0.00    +0.000 A 
ATOM     25  C   UNL     1       3.329  14.233  20.674  0.00  0.00    +0.000 A 
ATOM     26  C   UNL     1       4.211  14.567  19.657  0.00  0.00    +0.000 A 
ATOM     27  F   UNL     1       5.391  15.122  19.963  0.00  0.00    +0.000 F 
ATOM     28  C   UNL     1       3.883  14.337  18.325  0.00  0.00    +0.000 A 
ATOM     29  C   UNL     1       2.644  13.774  18.004  0.00  0.00    +0.000 A 
ENDBRANCH  22  23
ENDBRANCH   8  22
TORSDOF 3
ENDMDL
MODEL 3
REMARK VINA RESULT:      -7.9      3.766      7.574
REMARK  Name = 
REMARK  5 active torsions:
REMARK  status: ('A' for Active; 'I' for Inactive)
REMARK    1  A    between atoms: C_1  and  N_2
REMARK    2  A    between atoms: N_2  and  C_3
REMARK    3  A    between atoms: N_2  and  C_4
REMARK    4  A    between atoms: N_11  and  C_12
REMARK    5  A    between atoms: C_12  and  C_13
REMARK                            x       y       z     vdW  Elec       q    Type
REMARK                         _______ _______ _______ _____ _____    ______ ____
ROOT
ATOM      1  C   UNL     1      -1.830  15.359  23.398  0.00  0.00    +0.000 C 
ATOM      2  C   UNL     1      -3.004  15.227  22.380  0.00  0.00    +0.000 C 
ATOM      3  C   UNL     1      -3.314  13.801  21.890  0.00  0.00    +0.000 C 
ATOM      4  N   UNL     1      -2.076  13.094  21.582  0.00  0.00    +0.000 N 
ATOM      5  C   UNL     1      -1.936  12.291  20.477  0.00  0.00    +0.000 A 
ATOM      6  N   UNL     1      -0.813  11.564  20.342  0.00  0.00    +0.000 NA
ATOM      7  C   UNL     1      -0.652  10.769  19.268  0.00  0.00    +0.000 A 
ATOM      8  N   UNL     1       0.525  10.060  19.343  0.00  0.00    +0.000 N 
ATOM      9  C   UNL     1      -1.634  10.664  18.275  0.00  0.00    +0.000 A 
ATOM     10  C   UNL     1      -1.629   9.803  17.140  0.00  0.00    +0.000 A 
ATOM     11  C   UNL     1      -2.657   9.827  16.201  0.00  0.00    +0.000 A 
ATOM     12  C   UNL     1      -3.727  10.684  16.393  0.00  0.00    +0.000 A 
ATOM     13  C   UNL     1      -3.763  11.496  17.529  0.00  0.00    +0.000 A 
ATOM     14  C   UNL     1      -2.744  11.496  18.477  0.00  0.00    +0.000 A 
ATOM     15  N   UNL     1      -2.890  12.284  19.545  0.00  0.00    +0.000 NA
ATOM     16  C   UNL     1      -1.091  13.066  22.646  0.00  0.00    +0.000 C 
ATOM     17  C   UNL     1      -0.654  14.509  22.864  0.00  0.00    +0.000 C 
ATOM     18  H   UNL     1       1.029  10.393  20.162  0.00  0.00    +0.000 HD
ENDROOT
BRANCH   1  20
ATOM     19  C   UNL     1      -1.123  15.552  25.737  0.00  0.00    +0.000 C 
ATOM     20  N   UNL     1      -2.159  15.039  24.820  0.00  0.00    +0.000 NA
ATOM     21  C   UNL     1      -3.441  15.619  25.242  0.00  0.00    +0.000 C 
ENDBRANCH   1  20
BRANCH   8  22
ATOM     22  C   UNL     1       1.390   9.680  18.245  0.00  0.00    +0.000 C 
BRANCH  22  23
ATOM     23  C   UNL     1       2.080   8.352  18.527  0.00  0.00    +0.000 A 
ATOM     24  C   UNL     1       1.858   7.626  19.714  0.00  0.00    +0.000 A 
ATOM     25  C   UNL     1       2.539   6.435  19.969  0.00  0.00    +0.000 A 
ATOM     26  C   UNL     1       3.446   5.955  19.037  0.00  0.00    +0.000 A 
ATOM     27  F   UNL     1       4.112   4.819  19.286  0.00  0.00    +0.000 F 
ATOM     28  C   UNL     1       3.676   6.639  17.848  0.00  0.00    +0.000 A 
ATOM     29  C   UNL     1       2.994   7.834  17.593  0.00  0.00    +0.000 A 
ENDBRANCH  22  23
ENDBRANCH   8  22
TORSDOF 3
ENDMDL
MODEL 4
REMARK VINA RESULT:      -7.8      4.610      8.437
REMARK  Name = 
REMARK  5 active torsions:
REMARK  status: ('A' for Active; 'I' for Inactive)
REMARK    1  A    between atoms: C_1  and  N_2
REMARK    2  A    between atoms: N_2  and  C_3
REMARK    3  A    between atoms: N_2  and  C_4
REMARK    4  A    between atoms: N_11  and  C_12
REMARK    5  A    between atoms: C_12  and  C_13
REMARK                            x       y       z     vdW  Elec       q    Type
REMARK                         _______ _______ _______ _____ _____    ______ ____
ROOT
ATOM      1  C   UNL     1      -4.369  15.825  22.550  0.00  0.00    +0.000 C 
ATOM      2  C   UNL     1      -5.266  15.378  21.355  0.00  0.00    +0.000 C 
ATOM      3  C   UNL     1      -5.190  13.888  20.976  0.00  0.00    +0.000 C 
ATOM      4  N   UNL     1      -3.803  13.438  20.978  0.00  0.00    +0.000 N 
ATOM      5  C   UNL     1      -3.291  12.607  20.012  0.00  0.00    +0.000 A 
ATOM      6  N   UNL     1      -2.045  12.126  20.164  0.00  0.00    +0.000 NA
ATOM      7  C   UNL     1      -1.522  11.310  19.230  0.00  0.00    +0.000 A 
ATOM      8  N   UNL     1      -0.269  10.871  19.596  0.00  0.00    +0.000 N 
ATOM      9  C   UNL     1      -2.245  10.932  18.092  0.00  0.00    +0.000 A 
ATOM     10  C   UNL     1      -1.846  10.014  17.078  0.00  0.00    +0.000 A 
ATOM     11  C   UNL     1      -2.649   9.756  15.970  0.00  0.00    +0.000 A 
ATOM     12  C   UNL     1      -3.881  10.380  15.869  0.00  0.00    +0.000 A 
ATOM     13  C   UNL     1      -4.300  11.243  16.884  0.00  0.00    +0.000 A 
ATOM     14  C   UNL     1      -3.512  11.523  17.997  0.00  0.00    +0.000 A 
ATOM     15  N   UNL     1      -4.019  12.335  18.927  0.00  0.00    +0.000 NA
ATOM     16  C   UNL     1      -3.066  13.692  22.201  0.00  0.00    +0.000 C 
ATOM     17  C   UNL     1      -2.968  15.206  22.336  0.00  0.00    +0.000 C 
ATOM     18  H   UNL     1      -0.014  11.359  20.452  0.00  0.00    +0.000 HD
ENDROOT
BRANCH   1  20
ATOM     19  C   UNL     1      -4.428  16.534  24.896  0.00  0.00    +0.000 C 
ATOM     20  N   UNL     1      -4.909  15.542  23.914  0.00  0.00    +0.000 NA
ATOM     21  C   UNL     1      -6.377  15.568  23.951  0.00  0.00    +0.000 C 
ENDBRANCH   1  20
BRANCH   8  22
ATOM     22  C   UNL     1       0.855  10.606  18.723  0.00  0.00    +0.000 C 
BRANCH  22  23
ATOM     23  C   UNL     1       1.418   9.212  18.963  0.00  0.00    +0.000 A 
ATOM     24  C   UNL     1       1.320   8.567  20.212  0.00  0.00    +0.000 A 
ATOM     25  C   UNL     1       1.887   7.308  20.420  0.00  0.00    +0.000 A 
ATOM     26  C   UNL     1       2.552   6.679  19.378  0.00  0.00    +0.000 A 
ATOM     27  F   UNL     1       3.108   5.477  19.580  0.00  0.00    +0.000 F 
ATOM     28  C   UNL     1       2.651   7.282  18.129  0.00  0.00    +0.000 A 
ATOM     29  C   UNL     1       2.086   8.544  17.922  0.00  0.00    +0.000 A 
ENDBRANCH  22  23
ENDBRANCH   8  22
TORSDOF 3
ENDMDL
MODEL 5
REMARK VINA RESULT:      -7.7      3.091      8.063
REMARK  Name = 
REMARK  5 active torsions:
REMARK  status: ('A' for Active; 'I' for Inactive)
REMARK    1  A    between atoms: C_1  and  N_2
REMARK    2  A    between atoms: N_2  and  C_3
REMARK    3  A    between atoms: N_2  and  C_4
REMARK    4  A    between atoms: N_11  and  C_12
REMARK    5  A    between atoms: C_12  and  C_13
REMARK                            x       y       z     vdW  Elec       q    Type
REMARK                         _______ _______ _______ _____ _____    ______ ____
ROOT
ATOM      1  C   UNL     1       7.403   5.160  14.956  0.00  0.00    +0.000 C 
ATOM      2  C   UNL     1       6.939   3.792  15.543  0.00  0.00    +0.000 C 
ATOM      3  C   UNL     1       5.433   3.659  15.833  0.00  0.00    +0.000 C 
ATOM      4  N   UNL     1       4.935   4.869  16.477  0.00  0.00    +0.000 N 
ATOM      5  C   UNL     1       4.048   4.839  17.525  0.00  0.00    +0.000 A 
ATOM      6  N   UNL     1       3.530   5.998  17.968  0.00  0.00    +0.000 NA
ATOM      7  C   UNL     1       2.658   5.996  18.993  0.00  0.00    +0.000 A 
ATOM      8  N   UNL     1       2.191   7.264  19.256  0.00  0.00    +0.000 N 
ATOM      9  C   UNL     1       2.259   4.808  19.619  0.00  0.00    +0.000 A 
ATOM     10  C   UNL     1       1.287   4.656  20.649  0.00  0.00    +0.000 A 
ATOM     11  C   UNL     1       1.012   3.415  21.217  0.00  0.00    +0.000 A 
ATOM     12  C   UNL     1       1.674   2.294  20.742  0.00  0.00    +0.000 A 
ATOM     13  C   UNL     1       2.592   2.428  19.699  0.00  0.00    +0.000 A 
ATOM     14  C   UNL     1       2.890   3.659  19.122  0.00  0.00    +0.000 A 
ATOM     15  N   UNL     1       3.757   3.675  18.107  0.00  0.00    +0.000 NA
ATOM     16  C   UNL     1       5.213   6.108  15.778  0.00  0.00    +0.000 C 
ATOM     17  C   UNL     1       6.727   6.275  15.787  0.00  0.00    +0.000 C 
ATOM     18  H   UNL     1       2.705   7.906  18.657  0.00  0.00    +0.000 HD
ENDROOT
BRANCH   1  20
ATOM     19  C   UNL     1       8.443   5.765  12.820  0.00  0.00    +0.000 C 
ATOM     20  N   UNL     1       7.196   5.345  13.488  0.00  0.00    +0.000 NA
ATOM     21  C   UNL     1       6.741   4.114  12.828  0.00  0.00    +0.000 C 
ENDBRANCH   1  20
BRANCH   8  22
ATOM     22  C   UNL     1       1.851   7.822  20.548  0.00  0.00    +0.000 C 
BRANCH  22  23
ATOM     23  C   UNL     1       0.944   9.035  20.398  0.00  0.00    +0.000 A 
ATOM     24  C   UNL     1       0.748   9.679  19.160  0.00  0.00    +0.000 A 
ATOM     25  C   UNL     1      -0.052  10.819  19.059  0.00  0.00    +0.000 A 
ATOM     26  C   UNL     1      -0.666  11.324  20.194  0.00  0.00    +0.000 A 
ATOM     27  F   UNL     1      -1.423  12.426  20.101  0.00  0.00    +0.000 F 
ATOM     28  C   UNL     1      -0.506  10.702  21.428  0.00  0.00    +0.000 A 
ATOM     29  C   UNL     1       0.297   9.561  21.530  0.00  0.00    +0.000 A 
ENDBRANCH  22  23
ENDBRANCH   8  22
TORSDOF 3
ENDMDL
MODEL 6
REMARK VINA RESULT:      -7.2      4.003      9.040
REMARK  Name = 
REMARK  5 active torsions:
REMARK  status: ('A' for Active; 'I' for Inactive)
REMARK    1  A    between atoms: C_1  and  N_2
REMARK    2  A    between atoms: N_2  and  C_3
REMARK    3  A    between atoms: N_2  and  C_4
REMARK    4  A    between atoms: N_11  and  C_12
REMARK    5  A    between atoms: C_12  and  C_13
REMARK                            x       y       z     vdW  Elec       q    Type
REMARK                         _______ _______ _______ _____ _____    ______ ____
ROOT
ATOM      1  C   UNL     1       5.139   5.739  17.670  0.00  0.00    +0.000 C 
ATOM      2  C   UNL     1       4.887   5.699  19.208  0.00  0.00    +0.000 C 
ATOM      3  C   UNL     1       3.425   5.870  19.657  0.00  0.00    +0.000 C 
ATOM      4  N   UNL     1       2.789   6.944  18.901  0.00  0.00    +0.000 N 
ATOM      5  C   UNL     1       1.951   7.864  19.482  0.00  0.00    +0.000 A 
ATOM      6  N   UNL     1       1.295   8.733  18.693  0.00  0.00    +0.000 NA
ATOM      7  C   UNL     1       0.469   9.644  19.239  0.00  0.00    +0.000 A 
ATOM      8  N   UNL     1      -0.157  10.395  18.269  0.00  0.00    +0.000 N 
ATOM      9  C   UNL     1       0.259   9.715  20.622  0.00  0.00    +0.000 A 
ATOM     10  C   UNL     1      -0.646  10.566  21.317  0.00  0.00    +0.000 A 
ATOM     11  C   UNL     1      -0.729  10.565  22.707  0.00  0.00    +0.000 A 
ATOM     12  C   UNL     1       0.063   9.687  23.429  0.00  0.00    +0.000 A 
ATOM     13  C   UNL     1       0.917   8.815  22.751  0.00  0.00    +0.000 A 
ATOM     14  C   UNL     1       1.023   8.804  21.364  0.00  0.00    +0.000 A 
ATOM     15  N   UNL     1       1.844   7.907  20.811  0.00  0.00    +0.000 NA
ATOM     16  C   UNL     1       2.870   6.825  17.459  0.00  0.00    +0.000 C 
ATOM     17  C   UNL     1       4.346   6.939  17.101  0.00  0.00    +0.000 C 
ATOM     18  H   UNL     1       0.242  10.126  17.372  0.00  0.00    +0.000 HD
ENDROOT
BRANCH   1  20
ATOM     19  C   UNL     1       6.008   4.073  16.095  0.00  0.00    +0.000 C 
ATOM     20  N   UNL     1       4.857   4.473  16.928  0.00  0.00    +0.000 NA
ATOM     21  C   UNL     1       4.559   3.351  17.829  0.00  0.00    +0.000 C 
ENDBRANCH   1  20
BRANCH   8  22
ATOM     22  C   UNL     1      -0.525  11.793  18.345  0.00  0.00    +0.000 C 
BRANCH  22  23
ATOM     23  C   UNL     1      -2.026  11.954  18.542  0.00  0.00    +0.000 A 
ATOM     24  C   UNL     1      -2.572  12.554  19.694  0.00  0.00    +0.000 A 
ATOM     25  C   UNL     1      -3.954  12.647  19.872  0.00  0.00    +0.000 A 
ATOM     26  C   UNL     1      -4.802  12.145  18.898  0.00  0.00    +0.000 A 
ATOM     27  F   UNL     1      -6.128  12.221  19.074  0.00  0.00    +0.000 F 
ATOM     28  C   UNL     1      -4.294  11.562  17.742  0.00  0.00    +0.000 A 
ATOM     29  C   UNL     1      -2.910  11.467  17.564  0.00  0.00    +0.000 A 
ENDBRANCH  22  23
ENDBRANCH   8  22
TORSDOF 3
ENDMDL
MODEL 7
REMARK VINA RESULT:      -7.0      7.585      8.744
REMARK  Name = 
REMARK  5 active torsions:
REMARK  status: ('A' for Active; 'I' for Inactive)
REMARK    1  A    between atoms: C_1  and  N_2
REMARK    2  A    between atoms: N_2  and  C_3
REMARK    3  A    between atoms: N_2  and  C_4
REMARK    4  A    between atoms: N_11  and  C_12
REMARK    5  A    between atoms: C_12  and  C_13
REMARK                            x       y       z     vdW  Elec       q    Type
REMARK                         _______ _______ _______ _____ _____    ______ ____
ROOT
ATOM      1  C   UNL     1       1.782  15.468  19.272  0.00  0.00    +0.000 C 
ATOM      2  C   UNL     1       1.644  14.586  20.550  0.00  0.00    +0.000 C 
ATOM      3  C   UNL     1       2.675  14.847  21.664  0.00  0.00    +0.000 C 
ATOM      4  N   UNL     1       4.008  14.993  21.091  0.00  0.00    +0.000 N 
ATOM      5  C   UNL     1       5.126  14.437  21.662  0.00  0.00    +0.000 A 
ATOM      6  N   UNL     1       6.333  14.737  21.152  0.00  0.00    +0.000 NA
ATOM      7  C   UNL     1       7.443  14.205  21.694  0.00  0.00    +0.000 A 
ATOM      8  N   UNL     1       8.579  14.682  21.079  0.00  0.00    +0.000 N 
ATOM      9  C   UNL     1       7.385  13.341  22.796  0.00  0.00    +0.000 A 
ATOM     10  C   UNL     1       8.479  12.781  23.515  0.00  0.00    +0.000 A 
ATOM     11  C   UNL     1       8.281  11.898  24.573  0.00  0.00    +0.000 A 
ATOM     12  C   UNL     1       6.988  11.586  24.959  0.00  0.00    +0.000 A 
ATOM     13  C   UNL     1       5.911  12.170  24.290  0.00  0.00    +0.000 A 
ATOM     14  C   UNL     1       6.083  13.048  23.224  0.00  0.00    +0.000 A 
ATOM     15  N   UNL     1       4.988  13.580  22.675  0.00  0.00    +0.000 NA
ATOM     16  C   UNL     1       4.130  15.984  20.039  0.00  0.00    +0.000 C 
ATOM     17  C   UNL     1       3.278  15.486  18.880  0.00  0.00    +0.000 C 
ATOM     18  H   UNL     1       8.280  15.257  20.294  0.00  0.00    +0.000 HD
ENDROOT
BRANCH   1  20
ATOM     19  C   UNL     1       1.302  17.549  18.069  0.00  0.00    +0.000 C 
ATOM     20  N   UNL     1       1.205  16.843  19.361  0.00  0.00    +0.000 NA
ATOM     21  C   UNL     1      -0.213  16.831  19.746  0.00  0.00    +0.000 C 
ENDBRANCH   1  20
BRANCH   8  22
ATOM     22  C   UNL     1       9.811  13.963  20.836  0.00  0.00    +0.000 C 
BRANCH  22  23
ATOM     23  C   UNL     1       9.567  12.741  19.961  0.00  0.00    +0.000 A 
ATOM     24  C   UNL     1       9.140  12.848  18.623  0.00  0.00    +0.000 A 
ATOM     25  C   UNL     1       8.877  11.711  17.857  0.00  0.00    +0.000 A 
ATOM     26  C   UNL     1       9.044  10.455  18.420  0.00  0.00    +0.000 A 
ATOM     27  F   UNL     1       8.779   9.363  17.691  0.00  0.00    +0.000 F 
ATOM     28  C   UNL     1       9.480  10.316  19.733  0.00  0.00    +0.000 A 
ATOM     29  C   UNL     1       9.741  11.455  20.502  0.00  0.00    +0.000 A 
ENDBRANCH  22  23
ENDBRANCH   8  22
TORSDOF 3
ENDMDL
MODEL 8
REMARK VINA RESULT:      -7.0      4.722      8.737
REMARK  Name = 
REMARK  5 active torsions:
REMARK  status: ('A' for Active; 'I' for Inactive)
REMARK    1  A    between atoms: C_1  and  N_2
REMARK    2  A    between atoms: N_2  and  C_3
REMARK    3  A    between atoms: N_2  and  C_4
REMARK    4  A    between atoms: N_11  and  C_12
REMARK    5  A    between atoms: C_12  and  C_13
REMARK                            x       y       z     vdW  Elec       q    Type
REMARK                         _______ _______ _______ _____ _____    ______ ____
ROOT
ATOM      1  C   UNL     1      -3.347  16.789  23.275  0.00  0.00    +0.000 C 
ATOM      2  C   UNL     1      -4.515  16.227  22.408  0.00  0.00    +0.000 C 
ATOM      3  C   UNL     1      -4.512  14.705  22.178  0.00  0.00    +0.000 C 
ATOM      4  N   UNL     1      -3.164  14.246  21.865  0.00  0.00    +0.000 N 
ATOM      5  C   UNL     1      -2.906  13.314  20.890  0.00  0.00    +0.000 A 
ATOM      6  N   UNL     1      -1.655  12.840  20.761  0.00  0.00    +0.000 NA
ATOM      7  C   UNL     1      -1.377  11.926  19.813  0.00  0.00    +0.000 A 
ATOM      8  N   UNL     1      -0.064  11.517  19.883  0.00  0.00    +0.000 N 
ATOM      9  C   UNL     1      -2.364  11.438  18.948  0.00  0.00    +0.000 A 
ATOM     10  C   UNL     1      -2.225  10.415  17.966  0.00  0.00    +0.000 A 
ATOM     11  C   UNL     1      -3.283  10.050  17.138  0.00  0.00    +0.000 A 
ATOM     12  C   UNL     1      -4.511  10.670  17.298  0.00  0.00    +0.000 A 
ATOM     13  C   UNL     1      -4.667  11.639  18.292  0.00  0.00    +0.000 A 
ATOM     14  C   UNL     1      -3.623  12.027  19.125  0.00  0.00    +0.000 A 
ATOM     15  N   UNL     1      -3.885  12.936  20.067  0.00  0.00    +0.000 NA
ATOM     16  C   UNL     1      -2.139  14.620  22.821  0.00  0.00    +0.000 C 
ATOM     17  C   UNL     1      -2.039  16.138  22.769  0.00  0.00    +0.000 C 
ATOM     18  H   UNL     1       0.395  12.089  20.588  0.00  0.00    +0.000 HD
ENDROOT
BRANCH   1  20
ATOM     19  C   UNL     1      -2.320  17.160  25.470  0.00  0.00    +0.000 C 
ATOM     20  N   UNL     1      -3.508  16.655  24.755  0.00  0.00    +0.000 NA
ATOM     21  C   UNL     1      -4.670  17.398  25.260  0.00  0.00    +0.000 C 
ENDBRANCH   1  20
BRANCH   8  22
ATOM     22  C   UNL     1       0.799  11.152  18.780  0.00  0.00    +0.000 C 
BRANCH  22  23
ATOM     23  C   UNL     1       1.358   9.748  18.963  0.00  0.00    +0.000 A 
ATOM     24  C   UNL     1       2.026   9.064  17.928  0.00  0.00    +0.000 A 
ATOM     25  C   UNL     1       2.487   7.758  18.107  0.00  0.00    +0.000 A 
ATOM     26  C   UNL     1       2.289   7.126  19.325  0.00  0.00    +0.000 A 
ATOM     27  F   UNL     1       2.719   5.868  19.494  0.00  0.00    +0.000 F 
ATOM     28  C   UNL     1       1.649   7.780  20.372  0.00  0.00    +0.000 A 
ATOM     29  C   UNL     1       1.184   9.087  20.192  0.00  0.00    +0.000 A 
ENDBRANCH  22  23
ENDBRANCH   8  22
TORSDOF 3
ENDMDL
MODEL 9
REMARK VINA RESULT:      -7.0      3.460      7.042
REMARK  Name = 
REMARK  5 active torsions:
REMARK  status: ('A' for Active; 'I' for Inactive)
REMARK    1  A    between atoms: C_1  and  N_2
REMARK    2  A    between atoms: N_2  and  C_3
REMARK    3  A    between atoms: N_2  and  C_4
REMARK    4  A    between atoms: N_11  and  C_12
REMARK    5  A    between atoms: C_12  and  C_13
REMARK                            x       y       z     vdW  Elec       q    Type
REMARK                         _______ _______ _______ _____ _____    ______ ____
ROOT
ATOM      1  C   UNL     1       3.174  16.658  19.385  0.00  0.00    +0.000 C 
ATOM      2  C   UNL     1       1.625  16.681  19.207  0.00  0.00    +0.000 C 
ATOM      3  C   UNL     1       0.860  15.485  19.801  0.00  0.00    +0.000 C 
ATOM      4  N   UNL     1       1.552  14.240  19.487  0.00  0.00    +0.000 N 
ATOM      5  C   UNL     1       0.890  13.099  19.104  0.00  0.00    +0.000 A 
ATOM      6  N   UNL     1       1.587  11.958  18.971  0.00  0.00    +0.000 NA
ATOM      7  C   UNL     1       0.961  10.827  18.596  0.00  0.00    +0.000 A 
ATOM      8  N   UNL     1       1.827   9.757  18.582  0.00  0.00    +0.000 N 
ATOM      9  C   UNL     1      -0.416  10.797  18.343  0.00  0.00    +0.000 A 
ATOM     10  C   UNL     1      -1.213   9.659  18.026  0.00  0.00    +0.000 A 
ATOM     11  C   UNL     1      -2.574   9.774  17.756  0.00  0.00    +0.000 A 
ATOM     12  C   UNL     1      -3.175  11.019  17.833  0.00  0.00    +0.000 A 
ATOM     13  C   UNL     1      -2.410  12.131  18.192  0.00  0.00    +0.000 A 
ATOM     14  C   UNL     1      -1.047  12.043  18.458  0.00  0.00    +0.000 A 
ATOM     15  N   UNL     1      -0.414  13.159  18.827  0.00  0.00    +0.000 NA
ATOM     16  C   UNL     1       2.951  14.190  19.866  0.00  0.00    +0.000 C 
ATOM     17  C   UNL     1       3.662  15.237  19.018  0.00  0.00    +0.000 C 
ATOM     18  H   UNL     1       2.759  10.118  18.773  0.00  0.00    +0.000 HD
ENDROOT
BRANCH   1  20
ATOM     19  C   UNL     1       5.148  17.304  20.686  0.00  0.00    +0.000 C 
ATOM     20  N   UNL     1       3.686  17.105  20.716  0.00  0.00    +0.000 NA
ATOM     21  C   UNL     1       3.082  18.371  21.151  0.00  0.00    +0.000 C 
ENDBRANCH   1  20
BRANCH   8  22
ATOM     22  C   UNL     1       1.815   8.634  17.669  0.00  0.00    +0.000 C 
BRANCH  22  23
ATOM     23  C   UNL     1       2.727   7.518  18.163  0.00  0.00    +0.000 A 
ATOM     24  C   UNL     1       3.872   7.113  17.449  0.00  0.00    +0.000 A 
ATOM     25  C   UNL     1       4.665   6.055  17.899  0.00  0.00    +0.000 A 
ATOM     26  C   UNL     1       4.322   5.396  19.069  0.00  0.00    +0.000 A 
ATOM     27  F   UNL     1       5.074   4.372  19.495  0.00  0.00    +0.000 F 
ATOM     28  C   UNL     1       3.207   5.783  19.805  0.00  0.00    +0.000 A 
ATOM     29  C   UNL     1       2.412   6.841  19.353  0.00  0.00    +0.000 A 
ENDBRANCH  22  23
ENDBRANCH   8  22
TORSDOF 3
ENDMDL
