MODEL 1
REMARK VINA RESULT:      -6.9      0.000      0.000
REMARK  Name = 
REMARK  11 active torsions:
REMARK  status: ('A' for Active; 'I' for Inactive)
REMARK    1  A    between atoms: C_1  and  O_2
REMARK    2  A    between atoms: O_2  and  C_3
REMARK    3  A    between atoms: C_3  and  C_5
REMARK    4  A    between atoms: C_6  and  C_7
REMARK    5  A    between atoms: C_6  and  C_8
REMARK    6  A    between atoms: C_9  and  C_10
REMARK    7  A    between atoms: C_11  and  C_12
REMARK    8  A    between atoms: C_13  and  C_14
REMARK    9  A    between atoms: C_14  and  C_15
REMARK   10  A    between atoms: C_17  and  C_18
REMARK   11  A    between atoms: N_19  and  C_20
REMARK                            x       y       z     vdW  Elec       q    Type
REMARK                         _______ _______ _______ _____ _____    ______ ____
ROOT
ATOM      1  C   UNL     1       4.248   4.088  17.941  0.00  0.00    +0.000 A 
ATOM      2  C   UNL     1       3.487   3.035  18.442  0.00  0.00    +0.000 A 
ATOM      3  C   UNL     1       3.654   1.604  18.052  0.00  0.00    +0.000 C 
ATOM      4  C   UNL     1       2.452   3.599  19.281  0.00  0.00    +0.000 A 
ATOM      5  C   UNL     1       2.644   4.981  19.267  0.00  0.00    +0.000 A 
ATOM      6  C   UNL     1       1.867   6.061  19.955  0.00  0.00    +0.000 C 
ATOM      7  N   UNL     1       3.706   5.262  18.432  0.00  0.00    +0.000 N 
ATOM      8  C   UNL     1       4.144   6.596  18.054  0.00  0.00    +0.000 C 
ENDROOT
BRANCH   4   9
ATOM      9  C   UNL     1       1.324   2.943  19.975  0.00  0.00    +0.000 C 
ATOM     10  C   UNL     1       1.362   2.679  21.456  0.00  0.00    +0.000 C 
ATOM     11  O   UNL     1       0.300   2.621  19.364  0.00  0.00    +0.000 OA
ENDBRANCH   4   9
BRANCH   1  13
ATOM     12  C   UNL     1       4.997   4.247  15.622  0.00  0.00    +0.000 C 
ATOM     13  C   UNL     1       5.258   4.151  16.943  0.00  0.00    +0.000 C 
BRANCH  12  15
ATOM     14  C   UNL     1       5.761   3.774  13.337  0.00  0.00    +0.000 C 
ATOM     15  C   UNL     1       6.030   4.285  14.561  0.00  0.00    +0.000 C 
ATOM     16  C   UNL     1       7.353   4.918  14.931  0.00  0.00    +0.000 C 
BRANCH  14  17
ATOM     17  C   UNL     1       6.713   3.695  12.197  0.00  0.00    +0.000 C 
ATOM     18  O   UNL     1       7.347   4.623  11.723  0.00  0.00    +0.000 OA
BRANCH  17  20
ATOM     19  C   UNL     1       5.502   1.868  11.391  0.00  0.00    +0.000 C 
ATOM     20  O   UNL     1       6.775   2.405  11.770  0.00  0.00    +0.000 OA
ENDBRANCH  17  20
ENDBRANCH  14  17
ENDBRANCH  12  15
ENDBRANCH   1  13
TORSDOF 5
ENDMDL
MODEL 2
REMARK VINA RESULT:      -6.7      1.085      1.111
REMARK  Name = 
REMARK  11 active torsions:
REMARK  status: ('A' for Active; 'I' for Inactive)
REMARK    1  A    between atoms: C_1  and  O_2
REMARK    2  A    between atoms: O_2  and  C_3
REMARK    3  A    between atoms: C_3  and  C_5
REMARK    4  A    between atoms: C_6  and  C_7
REMARK    5  A    between atoms: C_6  and  C_8
REMARK    6  A    between atoms: C_9  and  C_10
REMARK    7  A    between atoms: C_11  and  C_12
REMARK    8  A    between atoms: C_13  and  C_14
REMARK    9  A    between atoms: C_14  and  C_15
REMARK   10  A    between atoms: C_17  and  C_18
REMARK   11  A    between atoms: N_19  and  C_20
REMARK                            x       y       z     vdW  Elec       q    Type
REMARK                         _______ _______ _______ _____ _____    ______ ____
ROOT
ATOM      1  C   UNL     1       4.524   4.517  18.219  0.00  0.00    +0.000 A 
ATOM      2  C   UNL     1       3.961   3.553  19.051  0.00  0.00    +0.000 A 
ATOM      3  C   UNL     1       4.263   2.093  18.989  0.00  0.00    +0.000 C 
ATOM      4  C   UNL     1       2.959   4.205  19.866  0.00  0.00    +0.000 A 
ATOM      5  C   UNL     1       2.973   5.554  19.503  0.00  0.00    +0.000 A 
ATOM      6  C   UNL     1       2.145   6.690  20.017  0.00  0.00    +0.000 C 
ATOM      7  N   UNL     1       3.895   5.719  18.490  0.00  0.00    +0.000 N 
ATOM      8  C   UNL     1       4.117   6.953  17.754  0.00  0.00    +0.000 C 
ENDROOT
BRANCH   4   9
ATOM      9  C   UNL     1       2.005   3.637  20.841  0.00  0.00    +0.000 C 
ATOM     10  C   UNL     1       0.649   3.143  20.414  0.00  0.00    +0.000 C 
ATOM     11  O   UNL     1       2.305   3.522  22.033  0.00  0.00    +0.000 OA
ENDBRANCH   4   9
BRANCH   1  13
ATOM     12  C   UNL     1       4.983   4.341  15.826  0.00  0.00    +0.000 C 
ATOM     13  C   UNL     1       5.404   4.427  17.106  0.00  0.00    +0.000 C 
BRANCH  12  15
ATOM     14  C   UNL     1       5.428   3.634  13.518  0.00  0.00    +0.000 C 
ATOM     15  C   UNL     1       5.879   4.216  14.653  0.00  0.00    +0.000 C 
ATOM     16  C   UNL     1       7.276   4.773  14.810  0.00  0.00    +0.000 C 
BRANCH  14  17
ATOM     17  C   UNL     1       6.226   3.394  12.285  0.00  0.00    +0.000 C 
ATOM     18  O   UNL     1       7.114   4.109  11.851  0.00  0.00    +0.000 OA
BRANCH  17  20
ATOM     19  C   UNL     1       6.850   1.537  11.014  0.00  0.00    +0.000 C 
ATOM     20  O   UNL     1       5.812   2.229  11.719  0.00  0.00    +0.000 OA
ENDBRANCH  17  20
ENDBRANCH  14  17
ENDBRANCH  12  15
ENDBRANCH   1  13
TORSDOF 5
ENDMDL
MODEL 3
REMARK VINA RESULT:      -6.3      4.041      7.898
REMARK  Name = 
REMARK  11 active torsions:
REMARK  status: ('A' for Active; 'I' for Inactive)
REMARK    1  A    between atoms: C_1  and  O_2
REMARK    2  A    between atoms: O_2  and  C_3
REMARK    3  A    between atoms: C_3  and  C_5
REMARK    4  A    between atoms: C_6  and  C_7
REMARK    5  A    between atoms: C_6  and  C_8
REMARK    6  A    between atoms: C_9  and  C_10
REMARK    7  A    between atoms: C_11  and  C_12
REMARK    8  A    between atoms: C_13  and  C_14
REMARK    9  A    between atoms: C_14  and  C_15
REMARK   10  A    between atoms: C_17  and  C_18
REMARK   11  A    between atoms: N_19  and  C_20
REMARK                            x       y       z     vdW  Elec       q    Type
REMARK                         _______ _______ _______ _____ _____    ______ ____
ROOT
ATOM      1  C   UNL     1       2.897   6.062  18.213  0.00  0.00    +0.000 A 
ATOM      2  C   UNL     1       2.699   4.871  18.908  0.00  0.00    +0.000 A 
ATOM      3  C   UNL     1       1.634   4.648  19.928  0.00  0.00    +0.000 C 
ATOM      4  C   UNL     1       3.777   3.972  18.555  0.00  0.00    +0.000 A 
ATOM      5  C   UNL     1       4.577   4.656  17.638  0.00  0.00    +0.000 A 
ATOM      6  C   UNL     1       5.827   4.213  16.943  0.00  0.00    +0.000 C 
ATOM      7  N   UNL     1       4.054   5.921  17.468  0.00  0.00    +0.000 N 
ATOM      8  C   UNL     1       4.669   6.983  16.688  0.00  0.00    +0.000 C 
ENDROOT
BRANCH   4   9
ATOM      9  C   UNL     1       4.103   2.626  19.071  0.00  0.00    +0.000 C 
ATOM     10  C   UNL     1       3.536   1.385  18.436  0.00  0.00    +0.000 C 
ATOM     11  O   UNL     1       4.878   2.479  20.021  0.00  0.00    +0.000 OA
ENDBRANCH   4   9
BRANCH   1  13
ATOM     12  C   UNL     1       1.907   7.908  19.468  0.00  0.00    +0.000 C 
ATOM     13  C   UNL     1       2.276   7.338  18.302  0.00  0.00    +0.000 C 
BRANCH  12  15
ATOM     14  C   UNL     1       0.893   9.701  20.804  0.00  0.00    +0.000 C 
ATOM     15  C   UNL     1       1.233   9.222  19.585  0.00  0.00    +0.000 C 
ATOM     16  C   UNL     1       0.969   9.962  18.292  0.00  0.00    +0.000 C 
BRANCH  14  17
ATOM     17  C   UNL     1       0.168  10.972  21.070  0.00  0.00    +0.000 C 
ATOM     18  O   UNL     1      -1.026  11.168  20.911  0.00  0.00    +0.000 OA
BRANCH  17  20
ATOM     19  C   UNL     1       1.456  12.850  20.552  0.00  0.00    +0.000 C 
ATOM     20  O   UNL     1       1.056  11.890  21.537  0.00  0.00    +0.000 OA
ENDBRANCH  17  20
ENDBRANCH  14  17
ENDBRANCH  12  15
ENDBRANCH   1  13
TORSDOF 5
ENDMDL
MODEL 4
REMARK VINA RESULT:      -6.3      4.013      8.293
REMARK  Name = 
REMARK  11 active torsions:
REMARK  status: ('A' for Active; 'I' for Inactive)
REMARK    1  A    between atoms: C_1  and  O_2
REMARK    2  A    between atoms: O_2  and  C_3
REMARK    3  A    between atoms: C_3  and  C_5
REMARK    4  A    between atoms: C_6  and  C_7
REMARK    5  A    between atoms: C_6  and  C_8
REMARK    6  A    between atoms: C_9  and  C_10
REMARK    7  A    between atoms: C_11  and  C_12
REMARK    8  A    between atoms: C_13  and  C_14
REMARK    9  A    between atoms: C_14  and  C_15
REMARK   10  A    between atoms: C_17  and  C_18
REMARK   11  A    between atoms: N_19  and  C_20
REMARK                            x       y       z     vdW  Elec       q    Type
REMARK                         _______ _______ _______ _____ _____    ______ ____
ROOT
ATOM      1  C   UNL     1       2.699   6.013  18.664  0.00  0.00    +0.000 A 
ATOM      2  C   UNL     1       2.562   4.758  19.251  0.00  0.00    +0.000 A 
ATOM      3  C   UNL     1       1.524   4.399  20.261  0.00  0.00    +0.000 C 
ATOM      4  C   UNL     1       3.669   3.939  18.805  0.00  0.00    +0.000 A 
ATOM      5  C   UNL     1       4.425   4.736  17.943  0.00  0.00    +0.000 A 
ATOM      6  C   UNL     1       5.680   4.410  17.195  0.00  0.00    +0.000 C 
ATOM      7  N   UNL     1       3.848   5.989  17.894  0.00  0.00    +0.000 N 
ATOM      8  C   UNL     1       4.406   7.141  17.205  0.00  0.00    +0.000 C 
ENDROOT
BRANCH   4   9
ATOM      9  C   UNL     1       4.058   2.568  19.193  0.00  0.00    +0.000 C 
ATOM     10  C   UNL     1       3.529   1.365  18.459  0.00  0.00    +0.000 C 
ATOM     11  O   UNL     1       4.857   2.369  20.113  0.00  0.00    +0.000 OA
ENDBRANCH   4   9
BRANCH   1  13
ATOM     12  C   UNL     1       1.849   7.802  20.094  0.00  0.00    +0.000 C 
ATOM     13  C   UNL     1       2.028   7.248  18.875  0.00  0.00    +0.000 C 
BRANCH  12  15
ATOM     14  C   UNL     1       0.955   9.512  21.611  0.00  0.00    +0.000 C 
ATOM     15  C   UNL     1       1.129   9.072  20.343  0.00  0.00    +0.000 C 
ATOM     16  C   UNL     1       0.628   9.813  19.123  0.00  0.00    +0.000 C 
BRANCH  14  17
ATOM     17  C   UNL     1       0.210  10.735  22.014  0.00  0.00    +0.000 C 
ATOM     18  O   UNL     1       0.547  11.888  21.798  0.00  0.00    +0.000 OA
BRANCH  17  20
ATOM     19  C   UNL     1      -1.749  11.464  23.056  0.00  0.00    +0.000 C 
ATOM     20  O   UNL     1      -0.927  10.360  22.658  0.00  0.00    +0.000 OA
ENDBRANCH  17  20
ENDBRANCH  14  17
ENDBRANCH  12  15
ENDBRANCH   1  13
TORSDOF 5
ENDMDL
MODEL 5
REMARK VINA RESULT:      -6.3      4.110      8.050
REMARK  Name = 
REMARK  11 active torsions:
REMARK  status: ('A' for Active; 'I' for Inactive)
REMARK    1  A    between atoms: C_1  and  O_2
REMARK    2  A    between atoms: O_2  and  C_3
REMARK    3  A    between atoms: C_3  and  C_5
REMARK    4  A    between atoms: C_6  and  C_7
REMARK    5  A    between atoms: C_6  and  C_8
REMARK    6  A    between atoms: C_9  and  C_10
REMARK    7  A    between atoms: C_11  and  C_12
REMARK    8  A    between atoms: C_13  and  C_14
REMARK    9  A    between atoms: C_14  and  C_15
REMARK   10  A    between atoms: C_17  and  C_18
REMARK   11  A    between atoms: N_19  and  C_20
REMARK                            x       y       z     vdW  Elec       q    Type
REMARK                         _______ _______ _______ _____ _____    ______ ____
ROOT
ATOM      1  C   UNL     1       2.803   6.144  19.275  0.00  0.00    +0.000 A 
ATOM      2  C   UNL     1       2.785   4.885  19.869  0.00  0.00    +0.000 A 
ATOM      3  C   UNL     1       2.109   4.563  21.160  0.00  0.00    +0.000 C 
ATOM      4  C   UNL     1       3.633   4.015  19.084  0.00  0.00    +0.000 A 
ATOM      5  C   UNL     1       4.119   4.787  18.027  0.00  0.00    +0.000 A 
ATOM      6  C   UNL     1       5.041   4.407  16.910  0.00  0.00    +0.000 C 
ATOM      7  N   UNL     1       3.637   6.072  18.173  0.00  0.00    +0.000 N 
ATOM      8  C   UNL     1       4.014   7.206  17.346  0.00  0.00    +0.000 C 
ENDROOT
BRANCH   4   9
ATOM      9  C   UNL     1       4.040   2.614  19.319  0.00  0.00    +0.000 C 
ATOM     10  C   UNL     1       3.464   1.484  18.509  0.00  0.00    +0.000 C 
ATOM     11  O   UNL     1       4.892   2.332  20.168  0.00  0.00    +0.000 OA
ENDBRANCH   4   9
BRANCH   1  13
ATOM     12  C   UNL     1       1.380   7.568  20.657  0.00  0.00    +0.000 C 
ATOM     13  C   UNL     1       2.316   7.411  19.698  0.00  0.00    +0.000 C 
BRANCH  12  15
ATOM     14  C   UNL     1       0.833   9.925  20.242  0.00  0.00    +0.000 C 
ATOM     15  C   UNL     1       0.835   8.874  21.095  0.00  0.00    +0.000 C 
ATOM     16  C   UNL     1       0.298   8.941  22.507  0.00  0.00    +0.000 C 
BRANCH  14  17
ATOM     17  C   UNL     1       0.370  11.303  20.559  0.00  0.00    +0.000 C 
ATOM     18  O   UNL     1      -0.725  11.773  20.297  0.00  0.00    +0.000 OA
BRANCH  17  20
ATOM     19  C   UNL     1       1.908  13.057  20.459  0.00  0.00    +0.000 C 
ATOM     20  O   UNL     1       1.368  11.960  21.206  0.00  0.00    +0.000 OA
ENDBRANCH  17  20
ENDBRANCH  14  17
ENDBRANCH  12  15
ENDBRANCH   1  13
TORSDOF 5
ENDMDL
MODEL 6
REMARK VINA RESULT:      -6.2      4.093      7.513
REMARK  Name = 
REMARK  11 active torsions:
REMARK  status: ('A' for Active; 'I' for Inactive)
REMARK    1  A    between atoms: C_1  and  O_2
REMARK    2  A    between atoms: O_2  and  C_3
REMARK    3  A    between atoms: C_3  and  C_5
REMARK    4  A    between atoms: C_6  and  C_7
REMARK    5  A    between atoms: C_6  and  C_8
REMARK    6  A    between atoms: C_9  and  C_10
REMARK    7  A    between atoms: C_11  and  C_12
REMARK    8  A    between atoms: C_13  and  C_14
REMARK    9  A    between atoms: C_14  and  C_15
REMARK   10  A    between atoms: C_17  and  C_18
REMARK   11  A    between atoms: N_19  and  C_20
REMARK                            x       y       z     vdW  Elec       q    Type
REMARK                         _______ _______ _______ _____ _____    ______ ____
ROOT
ATOM      1  C   UNL     1       3.097   6.294  18.128  0.00  0.00    +0.000 A 
ATOM      2  C   UNL     1       2.745   5.107  18.765  0.00  0.00    +0.000 A 
ATOM      3  C   UNL     1       1.796   5.005  19.912  0.00  0.00    +0.000 C 
ATOM      4  C   UNL     1       3.555   4.048  18.202  0.00  0.00    +0.000 A 
ATOM      5  C   UNL     1       4.357   4.642  17.226  0.00  0.00    +0.000 A 
ATOM      6  C   UNL     1       5.387   4.027  16.330  0.00  0.00    +0.000 C 
ATOM      7  N   UNL     1       4.093   5.997  17.215  0.00  0.00    +0.000 N 
ATOM      8  C   UNL     1       4.812   6.984  16.426  0.00  0.00    +0.000 C 
ENDROOT
BRANCH   4   9
ATOM      9  C   UNL     1       3.656   2.622  18.578  0.00  0.00    +0.000 C 
ATOM     10  C   UNL     1       4.348   2.192  19.843  0.00  0.00    +0.000 C 
ATOM     11  O   UNL     1       3.146   1.742  17.878  0.00  0.00    +0.000 OA
ENDBRANCH   4   9
BRANCH   1  13
ATOM     12  C   UNL     1       1.643   8.249  17.951  0.00  0.00    +0.000 C 
ATOM     13  C   UNL     1       2.773   7.654  18.388  0.00  0.00    +0.000 C 
BRANCH  12  15
ATOM     14  C   UNL     1       0.078   9.997  18.672  0.00  0.00    +0.000 C 
ATOM     15  C   UNL     1       1.297   9.670  18.184  0.00  0.00    +0.000 C 
ATOM     16  C   UNL     1       2.367  10.687  17.854  0.00  0.00    +0.000 C 
BRANCH  14  17
ATOM     17  C   UNL     1      -0.426  11.377  18.905  0.00  0.00    +0.000 C 
ATOM     18  O   UNL     1      -1.054  12.059  18.111  0.00  0.00    +0.000 OA
BRANCH  17  20
ATOM     19  C   UNL     1      -0.557  10.869  21.180  0.00  0.00    +0.000 C 
ATOM     20  O   UNL     1      -0.082  11.760  20.163  0.00  0.00    +0.000 OA
ENDBRANCH  17  20
ENDBRANCH  14  17
ENDBRANCH  12  15
ENDBRANCH   1  13
TORSDOF 5
ENDMDL
MODEL 7
REMARK VINA RESULT:      -6.2      4.289      7.628
REMARK  Name = 
REMARK  11 active torsions:
REMARK  status: ('A' for Active; 'I' for Inactive)
REMARK    1  A    between atoms: C_1  and  O_2
REMARK    2  A    between atoms: O_2  and  C_3
REMARK    3  A    between atoms: C_3  and  C_5
REMARK    4  A    between atoms: C_6  and  C_7
REMARK    5  A    between atoms: C_6  and  C_8
REMARK    6  A    between atoms: C_9  and  C_10
REMARK    7  A    between atoms: C_11  and  C_12
REMARK    8  A    between atoms: C_13  and  C_14
REMARK    9  A    between atoms: C_14  and  C_15
REMARK   10  A    between atoms: C_17  and  C_18
REMARK   11  A    between atoms: N_19  and  C_20
REMARK                            x       y       z     vdW  Elec       q    Type
REMARK                         _______ _______ _______ _____ _____    ______ ____
ROOT
ATOM      1  C   UNL     1       3.090   6.402  18.400  0.00  0.00    +0.000 A 
ATOM      2  C   UNL     1       2.854   5.229  19.112  0.00  0.00    +0.000 A 
ATOM      3  C   UNL     1       1.947   5.116  20.292  0.00  0.00    +0.000 C 
ATOM      4  C   UNL     1       3.733   4.208  18.583  0.00  0.00    +0.000 A 
ATOM      5  C   UNL     1       4.457   4.808  17.552  0.00  0.00    +0.000 A 
ATOM      6  C   UNL     1       5.510   4.227  16.660  0.00  0.00    +0.000 C 
ATOM      7  N   UNL     1       4.084   6.134  17.475  0.00  0.00    +0.000 N 
ATOM      8  C   UNL     1       4.698   7.129  16.611  0.00  0.00    +0.000 C 
ENDROOT
BRANCH   4   9
ATOM      9  C   UNL     1       3.960   2.819  19.033  0.00  0.00    +0.000 C 
ATOM     10  C   UNL     1       3.244   1.661  18.391  0.00  0.00    +0.000 C 
ATOM     11  O   UNL     1       4.771   2.563  19.929  0.00  0.00    +0.000 OA
ENDBRANCH   4   9
BRANCH   1  13
ATOM     12  C   UNL     1       1.595   8.286  17.973  0.00  0.00    +0.000 C 
ATOM     13  C   UNL     1       2.664   7.744  18.596  0.00  0.00    +0.000 C 
BRANCH  12  15
ATOM     14  C   UNL     1      -0.132   9.952  18.488  0.00  0.00    +0.000 C 
ATOM     15  C   UNL     1       1.148   9.688  18.137  0.00  0.00    +0.000 C 
ATOM     16  C   UNL     1       2.189  10.759  17.900  0.00  0.00    +0.000 C 
BRANCH  14  17
ATOM     17  C   UNL     1      -0.733  11.305  18.637  0.00  0.00    +0.000 C 
ATOM     18  O   UNL     1      -1.381  11.902  17.793  0.00  0.00    +0.000 OA
BRANCH  17  20
ATOM     19  C   UNL     1      -0.071  13.151  19.905  0.00  0.00    +0.000 C 
ATOM     20  O   UNL     1      -0.455  11.770  19.884  0.00  0.00    +0.000 OA
ENDBRANCH  17  20
ENDBRANCH  14  17
ENDBRANCH  12  15
ENDBRANCH   1  13
TORSDOF 5
ENDMDL
MODEL 8
REMARK VINA RESULT:      -6.2      4.247      7.461
REMARK  Name = 
REMARK  11 active torsions:
REMARK  status: ('A' for Active; 'I' for Inactive)
REMARK    1  A    between atoms: C_1  and  O_2
REMARK    2  A    between atoms: O_2  and  C_3
REMARK    3  A    between atoms: C_3  and  C_5
REMARK    4  A    between atoms: C_6  and  C_7
REMARK    5  A    between atoms: C_6  and  C_8
REMARK    6  A    between atoms: C_9  and  C_10
REMARK    7  A    between atoms: C_11  and  C_12
REMARK    8  A    between atoms: C_13  and  C_14
REMARK    9  A    between atoms: C_14  and  C_15
REMARK   10  A    between atoms: C_17  and  C_18
REMARK   11  A    between atoms: N_19  and  C_20
REMARK                            x       y       z     vdW  Elec       q    Type
REMARK                         _______ _______ _______ _____ _____    ______ ____
ROOT
ATOM      1  C   UNL     1       2.912   6.305  18.340  0.00  0.00    +0.000 A 
ATOM      2  C   UNL     1       2.586   5.104  18.964  0.00  0.00    +0.000 A 
ATOM      3  C   UNL     1       1.634   4.969  20.106  0.00  0.00    +0.000 C 
ATOM      4  C   UNL     1       3.424   4.071  18.396  0.00  0.00    +0.000 A 
ATOM      5  C   UNL     1       4.216   4.693  17.429  0.00  0.00    +0.000 A 
ATOM      6  C   UNL     1       5.265   4.111  16.533  0.00  0.00    +0.000 C 
ATOM      7  N   UNL     1       3.920   6.041  17.430  0.00  0.00    +0.000 N 
ATOM      8  C   UNL     1       4.619   7.052  16.654  0.00  0.00    +0.000 C 
ENDROOT
BRANCH   4   9
ATOM      9  C   UNL     1       3.557   2.644  18.758  0.00  0.00    +0.000 C 
ATOM     10  C   UNL     1       4.330   2.214  19.976  0.00  0.00    +0.000 C 
ATOM     11  O   UNL     1       3.008   1.763  18.089  0.00  0.00    +0.000 OA
ENDBRANCH   4   9
BRANCH   1  13
ATOM     12  C   UNL     1       1.579   8.315  17.954  0.00  0.00    +0.000 C 
ATOM     13  C   UNL     1       2.555   7.655  18.611  0.00  0.00    +0.000 C 
BRANCH  12  15
ATOM     14  C   UNL     1      -0.033  10.033  18.643  0.00  0.00    +0.000 C 
ATOM     15  C   UNL     1       1.208   9.728  18.197  0.00  0.00    +0.000 C 
ATOM     16  C   UNL     1       2.279  10.762  17.928  0.00  0.00    +0.000 C 
BRANCH  14  17
ATOM     17  C   UNL     1      -0.561  11.404  18.880  0.00  0.00    +0.000 C 
ATOM     18  O   UNL     1      -0.350  12.097  19.861  0.00  0.00    +0.000 OA
BRANCH  17  20
ATOM     19  C   UNL     1      -2.635  11.214  17.825  0.00  0.00    +0.000 C 
ATOM     20  O   UNL     1      -1.315  11.771  17.810  0.00  0.00    +0.000 OA
ENDBRANCH  17  20
ENDBRANCH  14  17
ENDBRANCH  12  15
ENDBRANCH   1  13
TORSDOF 5
ENDMDL
MODEL 9
REMARK VINA RESULT:      -6.2      4.470      7.408
REMARK  Name = 
REMARK  11 active torsions:
REMARK  status: ('A' for Active; 'I' for Inactive)
REMARK    1  A    between atoms: C_1  and  O_2
REMARK    2  A    between atoms: O_2  and  C_3
REMARK    3  A    between atoms: C_3  and  C_5
REMARK    4  A    between atoms: C_6  and  C_7
REMARK    5  A    between atoms: C_6  and  C_8
REMARK    6  A    between atoms: C_9  and  C_10
REMARK    7  A    between atoms: C_11  and  C_12
REMARK    8  A    between atoms: C_13  and  C_14
REMARK    9  A    between atoms: C_14  and  C_15
REMARK   10  A    between atoms: C_17  and  C_18
REMARK   11  A    between atoms: N_19  and  C_20
REMARK                            x       y       z     vdW  Elec       q    Type
REMARK                         _______ _______ _______ _____ _____    ______ ____
ROOT
ATOM      1  C   UNL     1       3.302   6.413  18.026  0.00  0.00    +0.000 A 
ATOM      2  C   UNL     1       3.040   5.298  18.819  0.00  0.00    +0.000 A 
ATOM      3  C   UNL     1       2.168   5.301  20.030  0.00  0.00    +0.000 C 
ATOM      4  C   UNL     1       3.859   4.209  18.333  0.00  0.00    +0.000 A 
ATOM      5  C   UNL     1       4.574   4.710  17.243  0.00  0.00    +0.000 A 
ATOM      6  C   UNL     1       5.573   4.028  16.360  0.00  0.00    +0.000 C 
ATOM      7  N   UNL     1       4.253   6.044  17.092  0.00  0.00    +0.000 N 
ATOM      8  C   UNL     1       4.880   6.953  16.147  0.00  0.00    +0.000 C 
ENDROOT
BRANCH   4   9
ATOM      9  C   UNL     1       4.042   2.842  18.864  0.00  0.00    +0.000 C 
ATOM     10  C   UNL     1       3.330   1.664  18.258  0.00  0.00    +0.000 C 
ATOM     11  O   UNL     1       4.813   2.623  19.804  0.00  0.00    +0.000 OA
ENDBRANCH   4   9
BRANCH   1  13
ATOM     12  C   UNL     1       1.672   8.232  18.012  0.00  0.00    +0.000 C 
ATOM     13  C   UNL     1       2.938   7.781  18.147  0.00  0.00    +0.000 C 
BRANCH  12  15
ATOM     14  C   UNL     1       2.206  10.606  18.336  0.00  0.00    +0.000 C 
ATOM     15  C   UNL     1       1.272   9.655  18.103  0.00  0.00    +0.000 C 
ATOM     16  C   UNL     1      -0.199   9.954  17.918  0.00  0.00    +0.000 C 
BRANCH  14  17
ATOM     17  C   UNL     1       1.945  12.061  18.505  0.00  0.00    +0.000 C 
ATOM     18  O   UNL     1       2.119  12.926  17.663  0.00  0.00    +0.000 OA
BRANCH  17  20
ATOM     19  C   UNL     1       0.455  13.289  19.818  0.00  0.00    +0.000 C 
ATOM     20  O   UNL     1       1.465  12.274  19.759  0.00  0.00    +0.000 OA
ENDBRANCH  17  20
ENDBRANCH  14  17
ENDBRANCH  12  15
ENDBRANCH   1  13
TORSDOF 5
ENDMDL
