MODEL 1
REMARK VINA RESULT:      -8.2      0.000      0.000
REMARK  Name = 
REMARK  4 active torsions:
REMARK  status: ('A' for Active; 'I' for Inactive)
REMARK    1  A    between atoms: C_1  and  C_2
REMARK    2  A    between atoms: C_2  and  C_3
REMARK    3  A    between atoms: C_2  and  C_4
REMARK    4  A    between atoms: N_8  and  C_9
REMARK                            x       y       z     vdW  Elec       q    Type
REMARK                         _______ _______ _______ _____ _____    ______ ____
ROOT
ATOM      1  C   UNL     1       6.542   4.711  14.895  0.00  0.00    +0.000 A 
ATOM      2  N   UNL     1       7.683   4.751  15.587  0.00  0.00    +0.000 NA
ATOM      3  S   UNL     1       7.256   4.722  17.201  0.00  0.00    +0.000 S 
ATOM      4  C   UNL     1       5.560   4.678  16.866  0.00  0.00    +0.000 A 
ATOM      5  N   UNL     1       4.623   4.690  17.855  0.00  0.00    +0.000 N 
ATOM      6  N   UNL     1       5.333   4.666  15.578  0.00  0.00    +0.000 NA
ATOM      7  H   UNL     1       4.955   4.979  18.769  0.00  0.00    +0.000 HD
ENDROOT
BRANCH   5   8
ATOM      8  C   UNL     1       3.272   5.126  17.532  0.00  0.00    +0.000 C 
ATOM      9  C   UNL     1       3.042   6.558  17.983  0.00  0.00    +0.000 C 
ATOM     10  C   UNL     1       2.729   6.700  19.470  0.00  0.00    +0.000 C 
ATOM     11  O   UNL     1       2.756   5.516  20.253  0.00  0.00    +0.000 OA
ATOM     12  C   UNL     1       2.264   4.284  19.716  0.00  0.00    +0.000 C 
ATOM     13  C   UNL     1       0.890   3.927  20.338  0.00  0.00    +0.000 C 
ATOM     14  C   UNL     1       1.111   2.681  21.198  0.00  0.00    +0.000 C 
ATOM     15  C   UNL     1       2.574   2.742  21.574  0.00  0.00    +0.000 C 
ATOM     16  C   UNL     1       3.227   3.216  20.286  0.00  0.00    +0.000 C 
ATOM     17  C   UNL     1       2.220   4.245  18.186  0.00  0.00    +0.000 C 
ENDBRANCH   5   8
BRANCH   1  19
ATOM     18  C   UNL     1       7.925   5.197  12.862  0.00  0.00    +0.000 C 
ATOM     19  C   UNL     1       6.558   4.763  13.396  0.00  0.00    +0.000 C 
ATOM     20  C   UNL     1       6.152   3.418  12.791  0.00  0.00    +0.000 C 
ENDBRANCH   1  19
TORSDOF 2
ENDMDL
MODEL 2
REMARK VINA RESULT:      -8.0      2.738      6.337
REMARK  Name = 
REMARK  4 active torsions:
REMARK  status: ('A' for Active; 'I' for Inactive)
REMARK    1  A    between atoms: C_1  and  C_2
REMARK    2  A    between atoms: C_2  and  C_3
REMARK    3  A    between atoms: C_2  and  C_4
REMARK    4  A    between atoms: N_8  and  C_9
REMARK                            x       y       z     vdW  Elec       q    Type
REMARK                         _______ _______ _______ _____ _____    ______ ____
ROOT
ATOM      1  C   UNL     1       2.462   3.249  19.207  0.00  0.00    +0.000 A 
ATOM      2  N   UNL     1       2.564   1.922  19.316  0.00  0.00    +0.000 NA
ATOM      3  S   UNL     1       3.751   1.454  18.239  0.00  0.00    +0.000 S 
ATOM      4  C   UNL     1       4.038   3.065  17.681  0.00  0.00    +0.000 A 
ATOM      5  N   UNL     1       4.933   3.344  16.692  0.00  0.00    +0.000 N 
ATOM      6  N   UNL     1       3.273   3.924  18.304  0.00  0.00    +0.000 NA
ATOM      7  H   UNL     1       5.229   2.551  16.133  0.00  0.00    +0.000 HD
ENDROOT
BRANCH   5   8
ATOM      8  C   UNL     1       4.790   4.590  15.952  0.00  0.00    +0.000 C 
ATOM      9  C   UNL     1       5.541   4.528  14.633  0.00  0.00    +0.000 C 
ATOM     10  C   UNL     1       7.041   4.778  14.759  0.00  0.00    +0.000 C 
ATOM     11  O   UNL     1       7.559   4.966  16.068  0.00  0.00    +0.000 OA
ATOM     12  C   UNL     1       6.809   5.700  17.042  0.00  0.00    +0.000 C 
ATOM     13  C   UNL     1       7.427   7.104  17.261  0.00  0.00    +0.000 C 
ATOM     14  C   UNL     1       7.994   7.114  18.682  0.00  0.00    +0.000 C 
ATOM     15  C   UNL     1       8.285   5.660  18.978  0.00  0.00    +0.000 C 
ATOM     16  C   UNL     1       7.086   4.953  18.368  0.00  0.00    +0.000 C 
ATOM     17  C   UNL     1       5.310   5.781  16.742  0.00  0.00    +0.000 C 
ENDBRANCH   5   8
BRANCH   1  19
ATOM     18  C   UNL     1       1.054   3.237  21.281  0.00  0.00    +0.000 C 
ATOM     19  C   UNL     1       1.447   4.002  20.016  0.00  0.00    +0.000 C 
ATOM     20  C   UNL     1       1.953   5.402  20.375  0.00  0.00    +0.000 C 
ENDBRANCH   1  19
TORSDOF 2
ENDMDL
MODEL 3
REMARK VINA RESULT:      -7.8      0.819      1.162
REMARK  Name = 
REMARK  4 active torsions:
REMARK  status: ('A' for Active; 'I' for Inactive)
REMARK    1  A    between atoms: C_1  and  C_2
REMARK    2  A    between atoms: C_2  and  C_3
REMARK    3  A    between atoms: C_2  and  C_4
REMARK    4  A    between atoms: N_8  and  C_9
REMARK                            x       y       z     vdW  Elec       q    Type
REMARK                         _______ _______ _______ _____ _____    ______ ____
ROOT
ATOM      1  C   UNL     1       6.604   4.636  15.789  0.00  0.00    +0.000 A 
ATOM      2  N   UNL     1       7.718   4.972  16.444  0.00  0.00    +0.000 NA
ATOM      3  S   UNL     1       7.230   5.549  17.933  0.00  0.00    +0.000 S 
ATOM      4  C   UNL     1       5.550   5.328  17.594  0.00  0.00    +0.000 A 
ATOM      5  N   UNL     1       4.576   5.688  18.476  0.00  0.00    +0.000 N 
ATOM      6  N   UNL     1       5.371   4.818  16.402  0.00  0.00    +0.000 NA
ATOM      7  H   UNL     1       4.868   6.314  19.218  0.00  0.00    +0.000 HD
ENDROOT
BRANCH   5   8
ATOM      8  C   UNL     1       3.231   5.927  17.972  0.00  0.00    +0.000 C 
ATOM      9  C   UNL     1       2.665   7.224  18.526  0.00  0.00    +0.000 C 
ATOM     10  C   UNL     1       2.111   7.105  19.943  0.00  0.00    +0.000 C 
ATOM     11  O   UNL     1       2.246   5.848  20.589  0.00  0.00    +0.000 OA
ATOM     12  C   UNL     1       2.085   4.635  19.846  0.00  0.00    +0.000 C 
ATOM     13  C   UNL     1       0.727   3.967  20.179  0.00  0.00    +0.000 C 
ATOM     14  C   UNL     1       1.049   2.671  20.926  0.00  0.00    +0.000 C 
ATOM     15  C   UNL     1       2.400   2.929  21.555  0.00  0.00    +0.000 C 
ATOM     16  C   UNL     1       3.137   3.679  20.457  0.00  0.00    +0.000 C 
ATOM     17  C   UNL     1       2.280   4.798  18.336  0.00  0.00    +0.000 C 
ENDBRANCH   5   8
BRANCH   1  19
ATOM     18  C   UNL     1       5.283   3.909  13.787  0.00  0.00    +0.000 C 
ATOM     19  C   UNL     1       6.677   4.112  14.385  0.00  0.00    +0.000 C 
ATOM     20  C   UNL     1       7.511   5.034  13.492  0.00  0.00    +0.000 C 
ENDBRANCH   1  19
TORSDOF 2
ENDMDL
MODEL 4
REMARK VINA RESULT:      -7.2      2.810      6.453
REMARK  Name = 
REMARK  4 active torsions:
REMARK  status: ('A' for Active; 'I' for Inactive)
REMARK    1  A    between atoms: C_1  and  C_2
REMARK    2  A    between atoms: C_2  and  C_3
REMARK    3  A    between atoms: C_2  and  C_4
REMARK    4  A    between atoms: N_8  and  C_9
REMARK                            x       y       z     vdW  Elec       q    Type
REMARK                         _______ _______ _______ _____ _____    ______ ____
ROOT
ATOM      1  C   UNL     1       2.923   3.660  20.249  0.00  0.00    +0.000 A 
ATOM      2  N   UNL     1       3.325   2.491  20.753  0.00  0.00    +0.000 NA
ATOM      3  S   UNL     1       4.615   1.995  19.815  0.00  0.00    +0.000 S 
ATOM      4  C   UNL     1       4.538   3.376  18.779  0.00  0.00    +0.000 A 
ATOM      5  N   UNL     1       5.369   3.532  17.711  0.00  0.00    +0.000 N 
ATOM      6  N   UNL     1       3.580   4.189  19.146  0.00  0.00    +0.000 NA
ATOM      7  H   UNL     1       5.853   2.695  17.408  0.00  0.00    +0.000 HD
ENDROOT
BRANCH   5   8
ATOM      8  C   UNL     1       4.963   4.423  16.633  0.00  0.00    +0.000 C 
ATOM      9  C   UNL     1       5.639   4.041  15.328  0.00  0.00    +0.000 C 
ATOM     10  C   UNL     1       7.073   4.546  15.200  0.00  0.00    +0.000 C 
ATOM     11  O   UNL     1       7.620   5.236  16.314  0.00  0.00    +0.000 OA
ATOM     12  C   UNL     1       6.803   6.128  17.080  0.00  0.00    +0.000 C 
ATOM     13  C   UNL     1       7.167   7.602  16.771  0.00  0.00    +0.000 C 
ATOM     14  C   UNL     1       7.799   8.172  18.043  0.00  0.00    +0.000 C 
ATOM     15  C   UNL     1       8.365   6.962  18.751  0.00  0.00    +0.000 C 
ATOM     16  C   UNL     1       7.283   5.917  18.536  0.00  0.00    +0.000 C 
ATOM     17  C   UNL     1       5.300   5.874  16.939  0.00  0.00    +0.000 C 
ENDBRANCH   5   8
BRANCH   1  19
ATOM     18  C   UNL     1       1.816   5.883  20.588  0.00  0.00    +0.000 C 
ATOM     19  C   UNL     1       1.742   4.375  20.836  0.00  0.00    +0.000 C 
ATOM     20  C   UNL     1       0.427   3.810  20.295  0.00  0.00    +0.000 C 
ENDBRANCH   1  19
TORSDOF 2
ENDMDL
MODEL 5
REMARK VINA RESULT:      -7.2      2.320      3.651
REMARK  Name = 
REMARK  4 active torsions:
REMARK  status: ('A' for Active; 'I' for Inactive)
REMARK    1  A    between atoms: C_1  and  C_2
REMARK    2  A    between atoms: C_2  and  C_3
REMARK    3  A    between atoms: C_2  and  C_4
REMARK    4  A    between atoms: N_8  and  C_9
REMARK                            x       y       z     vdW  Elec       q    Type
REMARK                         _______ _______ _______ _____ _____    ______ ____
ROOT
ATOM      1  C   UNL     1       6.963   5.599  17.074  0.00  0.00    +0.000 A 
ATOM      2  N   UNL     1       7.142   5.505  15.754  0.00  0.00    +0.000 NA
ATOM      3  S   UNL     1       5.888   4.565  15.177  0.00  0.00    +0.000 S 
ATOM      4  C   UNL     1       5.196   4.328  16.743  0.00  0.00    +0.000 A 
ATOM      5  N   UNL     1       4.096   3.549  16.942  0.00  0.00    +0.000 N 
ATOM      6  N   UNL     1       5.882   4.956  17.663  0.00  0.00    +0.000 NA
ATOM      7  H   UNL     1       3.861   2.922  16.181  0.00  0.00    +0.000 HD
ENDROOT
BRANCH   5   8
ATOM      8  C   UNL     1       3.854   3.009  18.272  0.00  0.00    +0.000 C 
ATOM      9  C   UNL     1       2.606   2.143  18.288  0.00  0.00    +0.000 C 
ATOM     10  C   UNL     1       1.303   2.932  18.375  0.00  0.00    +0.000 C 
ATOM     11  O   UNL     1       1.401   4.349  18.362  0.00  0.00    +0.000 OA
ATOM     12  C   UNL     1       2.472   5.004  19.049  0.00  0.00    +0.000 C 
ATOM     13  C   UNL     1       1.959   5.667  20.352  0.00  0.00    +0.000 C 
ATOM     14  C   UNL     1       2.069   7.179  20.145  0.00  0.00    +0.000 C 
ATOM     15  C   UNL     1       1.991   7.356  18.645  0.00  0.00    +0.000 C 
ATOM     16  C   UNL     1       2.830   6.197  18.132  0.00  0.00    +0.000 C 
ATOM     17  C   UNL     1       3.686   4.108  19.309  0.00  0.00    +0.000 C 
ENDBRANCH   5   8
BRANCH   1  19
ATOM     18  C   UNL     1       7.752   7.865  17.801  0.00  0.00    +0.000 C 
ATOM     19  C   UNL     1       7.945   6.352  17.922  0.00  0.00    +0.000 C 
ATOM     20  C   UNL     1       7.856   5.919  19.388  0.00  0.00    +0.000 C 
ENDBRANCH   1  19
TORSDOF 2
ENDMDL
MODEL 6
REMARK VINA RESULT:      -7.1      1.409      1.796
REMARK  Name = 
REMARK  4 active torsions:
REMARK  status: ('A' for Active; 'I' for Inactive)
REMARK    1  A    between atoms: C_1  and  C_2
REMARK    2  A    between atoms: C_2  and  C_3
REMARK    3  A    between atoms: C_2  and  C_4
REMARK    4  A    between atoms: N_8  and  C_9
REMARK                            x       y       z     vdW  Elec       q    Type
REMARK                         _______ _______ _______ _____ _____    ______ ____
ROOT
ATOM      1  C   UNL     1       6.741   4.467  15.005  0.00  0.00    +0.000 A 
ATOM      2  N   UNL     1       7.231   5.558  15.601  0.00  0.00    +0.000 NA
ATOM      3  S   UNL     1       6.554   5.603  17.127  0.00  0.00    +0.000 S 
ATOM      4  C   UNL     1       5.631   4.163  16.882  0.00  0.00    +0.000 A 
ATOM      5  N   UNL     1       4.777   3.676  17.827  0.00  0.00    +0.000 N 
ATOM      6  N   UNL     1       5.845   3.659  15.694  0.00  0.00    +0.000 NA
ATOM      7  H   UNL     1       4.523   4.326  18.562  0.00  0.00    +0.000 HD
ENDROOT
BRANCH   5   8
ATOM      8  C   UNL     1       3.707   2.783  17.408  0.00  0.00    +0.000 C 
ATOM      9  C   UNL     1       2.657   3.531  16.605  0.00  0.00    +0.000 C 
ATOM     10  C   UNL     1       1.664   4.315  17.457  0.00  0.00    +0.000 C 
ATOM     11  O   UNL     1       1.871   4.312  18.862  0.00  0.00    +0.000 OA
ATOM     12  C   UNL     1       2.324   3.124  19.521  0.00  0.00    +0.000 C 
ATOM     13  C   UNL     1       1.167   2.464  20.311  0.00  0.00    +0.000 C 
ATOM     14  C   UNL     1       1.513   2.606  21.795  0.00  0.00    +0.000 C 
ATOM     15  C   UNL     1       2.411   3.821  21.852  0.00  0.00    +0.000 C 
ATOM     16  C   UNL     1       3.281   3.648  20.618  0.00  0.00    +0.000 C 
ATOM     17  C   UNL     1       3.021   2.124  18.595  0.00  0.00    +0.000 C 
ENDBRANCH   5   8
BRANCH   1  19
ATOM     18  C   UNL     1       5.908   3.657  12.784  0.00  0.00    +0.000 C 
ATOM     19  C   UNL     1       7.116   4.140  13.590  0.00  0.00    +0.000 C 
ATOM     20  C   UNL     1       7.774   5.337  12.900  0.00  0.00    +0.000 C 
ENDBRANCH   1  19
TORSDOF 2
ENDMDL
MODEL 7
REMARK VINA RESULT:      -7.1      2.708      6.601
REMARK  Name = 
REMARK  4 active torsions:
REMARK  status: ('A' for Active; 'I' for Inactive)
REMARK    1  A    between atoms: C_1  and  C_2
REMARK    2  A    between atoms: C_2  and  C_3
REMARK    3  A    between atoms: C_2  and  C_4
REMARK    4  A    between atoms: N_8  and  C_9
REMARK                            x       y       z     vdW  Elec       q    Type
REMARK                         _______ _______ _______ _____ _____    ______ ____
ROOT
ATOM      1  C   UNL     1       1.829   4.340  20.159  0.00  0.00    +0.000 A 
ATOM      2  N   UNL     1       1.227   5.501  20.431  0.00  0.00    +0.000 NA
ATOM      3  S   UNL     1       2.327   6.699  20.052  0.00  0.00    +0.000 S 
ATOM      4  C   UNL     1       3.549   5.579  19.562  0.00  0.00    +0.000 A 
ATOM      5  N   UNL     1       4.787   5.982  19.161  0.00  0.00    +0.000 N 
ATOM      6  N   UNL     1       3.128   4.344  19.667  0.00  0.00    +0.000 NA
ATOM      7  H   UNL     1       5.036   6.934  19.402  0.00  0.00    +0.000 HD
ENDROOT
BRANCH   5   8
ATOM      8  C   UNL     1       5.887   5.030  19.226  0.00  0.00    +0.000 C 
ATOM      9  C   UNL     1       7.203   5.739  19.496  0.00  0.00    +0.000 C 
ATOM     10  C   UNL     1       7.832   6.376  18.261  0.00  0.00    +0.000 C 
ATOM     11  O   UNL     1       7.100   6.295  17.046  0.00  0.00    +0.000 OA
ATOM     12  C   UNL     1       6.366   5.109  16.724  0.00  0.00    +0.000 C 
ATOM     13  C   UNL     1       7.094   4.301  15.621  0.00  0.00    +0.000 C 
ATOM     14  C   UNL     1       6.212   4.371  14.373  0.00  0.00    +0.000 C 
ATOM     15  C   UNL     1       5.426   5.652  14.545  0.00  0.00    +0.000 C 
ATOM     16  C   UNL     1       5.090   5.637  16.027  0.00  0.00    +0.000 C 
ATOM     17  C   UNL     1       6.028   4.237  17.936  0.00  0.00    +0.000 C 
ENDBRANCH   5   8
BRANCH   1  19
ATOM     18  C   UNL     1       1.453   1.996  19.354  0.00  0.00    +0.000 C 
ATOM     19  C   UNL     1       1.129   3.040  20.424  0.00  0.00    +0.000 C 
ATOM     20  C   UNL     1       1.470   2.501  21.815  0.00  0.00    +0.000 C 
ENDBRANCH   1  19
TORSDOF 2
ENDMDL
MODEL 8
REMARK VINA RESULT:      -7.0      2.375      6.948
REMARK  Name = 
REMARK  4 active torsions:
REMARK  status: ('A' for Active; 'I' for Inactive)
REMARK    1  A    between atoms: C_1  and  C_2
REMARK    2  A    between atoms: C_2  and  C_3
REMARK    3  A    between atoms: C_2  and  C_4
REMARK    4  A    between atoms: N_8  and  C_9
REMARK                            x       y       z     vdW  Elec       q    Type
REMARK                         _______ _______ _______ _____ _____    ______ ____
ROOT
ATOM      1  C   UNL     1       2.782   3.556  19.564  0.00  0.00    +0.000 A 
ATOM      2  N   UNL     1       1.873   2.904  18.836  0.00  0.00    +0.000 NA
ATOM      3  S   UNL     1       2.601   2.562  17.372  0.00  0.00    +0.000 S 
ATOM      4  C   UNL     1       4.087   3.330  17.805  0.00  0.00    +0.000 A 
ATOM      5  N   UNL     1       5.135   3.427  16.939  0.00  0.00    +0.000 N 
ATOM      6  N   UNL     1       4.035   3.811  19.020  0.00  0.00    +0.000 NA
ATOM      7  H   UNL     1       4.914   3.256  15.964  0.00  0.00    +0.000 HD
ENDROOT
BRANCH   5   8
ATOM      8  C   UNL     1       6.135   4.461  17.164  0.00  0.00    +0.000 C 
ATOM      9  C   UNL     1       5.485   5.829  17.275  0.00  0.00    +0.000 C 
ATOM     10  C   UNL     1       5.137   6.463  15.931  0.00  0.00    +0.000 C 
ATOM     11  O   UNL     1       5.389   5.692  14.766  0.00  0.00    +0.000 OA
ATOM     12  C   UNL     1       6.559   4.870  14.685  0.00  0.00    +0.000 C 
ATOM     13  C   UNL     1       7.609   5.509  13.742  0.00  0.00    +0.000 C 
ATOM     14  C   UNL     1       7.709   4.597  12.517  0.00  0.00    +0.000 C 
ATOM     15  C   UNL     1       6.365   3.905  12.458  0.00  0.00    +0.000 C 
ATOM     16  C   UNL     1       6.079   3.613  13.921  0.00  0.00    +0.000 C 
ATOM     17  C   UNL     1       7.162   4.509  16.044  0.00  0.00    +0.000 C 
ENDBRANCH   5   8
BRANCH   1  19
ATOM     18  C   UNL     1       1.652   5.363  20.883  0.00  0.00    +0.000 C 
ATOM     19  C   UNL     1       2.443   4.054  20.938  0.00  0.00    +0.000 C 
ATOM     20  C   UNL     1       1.672   2.999  21.734  0.00  0.00    +0.000 C 
ENDBRANCH   1  19
TORSDOF 2
ENDMDL
MODEL 9
REMARK VINA RESULT:      -6.5      3.462      6.418
REMARK  Name = 
REMARK  4 active torsions:
REMARK  status: ('A' for Active; 'I' for Inactive)
REMARK    1  A    between atoms: C_1  and  C_2
REMARK    2  A    between atoms: C_2  and  C_3
REMARK    3  A    between atoms: C_2  and  C_4
REMARK    4  A    between atoms: N_8  and  C_9
REMARK                            x       y       z     vdW  Elec       q    Type
REMARK                         _______ _______ _______ _____ _____    ______ ____
ROOT
ATOM      1  C   UNL     1       1.240   9.056  20.070  0.00  0.00    +0.000 A 
ATOM      2  N   UNL     1       0.938   9.729  18.956  0.00  0.00    +0.000 NA
ATOM      3  S   UNL     1       1.682   8.917  17.701  0.00  0.00    +0.000 S 
ATOM      4  C   UNL     1       2.378   7.722  18.739  0.00  0.00    +0.000 A 
ATOM      5  N   UNL     1       3.195   6.737  18.269  0.00  0.00    +0.000 N 
ATOM      6  N   UNL     1       2.041   7.925  19.986  0.00  0.00    +0.000 NA
ATOM      7  H   UNL     1       3.572   6.888  17.340  0.00  0.00    +0.000 HD
ENDROOT
BRANCH   5   8
ATOM      8  C   UNL     1       4.106   6.083  19.197  0.00  0.00    +0.000 C 
ATOM      9  C   UNL     1       5.312   5.517  18.468  0.00  0.00    +0.000 C 
ATOM     10  C   UNL     1       5.053   4.178  17.783  0.00  0.00    +0.000 C 
ATOM     11  O   UNL     1       3.732   3.662  17.847  0.00  0.00    +0.000 OA
ATOM     12  C   UNL     1       2.955   3.815  19.041  0.00  0.00    +0.000 C 
ATOM     13  C   UNL     1       2.858   2.469  19.803  0.00  0.00    +0.000 C 
ATOM     14  C   UNL     1       1.396   2.024  19.718  0.00  0.00    +0.000 C 
ATOM     15  C   UNL     1       0.878   2.685  18.460  0.00  0.00    +0.000 C 
ATOM     16  C   UNL     1       1.519   4.062  18.522  0.00  0.00    +0.000 C 
ATOM     17  C   UNL     1       3.429   4.949  19.952  0.00  0.00    +0.000 C 
ENDBRANCH   5   8
BRANCH   1  19
ATOM     18  C   UNL     1       0.285  10.995  21.339  0.00  0.00    +0.000 C 
ATOM     19  C   UNL     1       0.759   9.542  21.405  0.00  0.00    +0.000 C 
ATOM     20  C   UNL     1      -0.352   8.643  21.953  0.00  0.00    +0.000 C 
ENDBRANCH   1  19
TORSDOF 2
ENDMDL
