MODEL 1
REMARK VINA RESULT:      -6.2      0.000      0.000
REMARK  Name = 
REMARK  6 active torsions:
REMARK  status: ('A' for Active; 'I' for Inactive)
REMARK    1  A    between atoms: N_1  and  N_2
REMARK    2  A    between atoms: C_3  and  C_5
REMARK    3  A    between atoms: N_7  and  C_8
REMARK    4  A    between atoms: C_8  and  C_9
REMARK    5  A    between atoms: C_9  and  C_10
REMARK    6  A    between atoms: C_10  and  N_11
REMARK                            x       y       z     vdW  Elec       q    Type
REMARK                         _______ _______ _______ _____ _____    ______ ____
ROOT
ATOM      1  C   UNL     1       7.339   6.167  17.231  0.00  0.00    +0.000 C 
ATOM      2  O   UNL     1       6.888   7.115  16.596  0.00  0.00    +0.000 OA
ATOM      3  N   UNL     1       7.406   4.863  16.794  0.00  0.00    +0.000 N 
ATOM      4  H   UNL     1       7.767   4.178  17.455  0.00  0.00    +0.000 HD
ENDROOT
BRANCH   1   6
ATOM      5  N   UNL     1       7.673   5.330  19.490  0.00  0.00    +0.000 N 
ATOM      6  C   UNL     1       7.918   6.398  18.640  0.00  0.00    +0.000 C 
ATOM      7  O   UNL     1       8.490   7.450  18.906  0.00  0.00    +0.000 OA
ATOM      8  H   UNL     1       7.244   4.500  19.077  0.00  0.00    +0.000 HD
BRANCH   5   9
ATOM      9  N   UNL     1       8.178   5.318  20.803  0.00  0.00    +0.000 NA
ATOM     10  H   UNL     1       7.915   4.441  21.258  0.00  0.00    +0.000 HD
ATOM     11  H   UNL     1       7.709   6.062  21.330  0.00  0.00    +0.000 HD
ENDBRANCH   5   9
ENDBRANCH   1   6
BRANCH   3  12
ATOM     12  C   UNL     1       6.952   4.462  15.485  0.00  0.00    +0.000 C 
BRANCH  12  13
ATOM     13  C   UNL     1       5.690   3.592  15.539  0.00  0.00    +0.000 C 
BRANCH  13  14
ATOM     14  C   UNL     1       4.638   4.267  16.428  0.00  0.00    +0.000 C 
BRANCH  14  15
ATOM     15  N   UNL     1       4.586   3.826  17.831  0.00  0.00    +0.000 NA
ATOM     16  C   UNL     1       3.771   2.589  17.947  0.00  0.00    +0.000 C 
ATOM     17  C   UNL     1       2.258   2.846  17.833  0.00  0.00    +0.000 C 
ATOM     18  O   UNL     1       1.822   3.729  18.870  0.00  0.00    +0.000 OA
ATOM     19  C   UNL     1       2.516   4.982  18.797  0.00  0.00    +0.000 C 
ATOM     20  C   UNL     1       4.048   4.808  18.797  0.00  0.00    +0.000 C 
ENDBRANCH  14  15
ENDBRANCH  13  14
ENDBRANCH  12  13
ENDBRANCH   3  12
TORSDOF 6
ENDMDL
MODEL 2
REMARK VINA RESULT:      -6.2      1.503      1.787
REMARK  Name = 
REMARK  6 active torsions:
REMARK  status: ('A' for Active; 'I' for Inactive)
REMARK    1  A    between atoms: N_1  and  N_2
REMARK    2  A    between atoms: C_3  and  C_5
REMARK    3  A    between atoms: N_7  and  C_8
REMARK    4  A    between atoms: C_8  and  C_9
REMARK    5  A    between atoms: C_9  and  C_10
REMARK    6  A    between atoms: C_10  and  N_11
REMARK                            x       y       z     vdW  Elec       q    Type
REMARK                         _______ _______ _______ _____ _____    ______ ____
ROOT
ATOM      1  C   UNL     1       6.919   6.022  17.451  0.00  0.00    +0.000 C 
ATOM      2  O   UNL     1       7.447   6.122  16.347  0.00  0.00    +0.000 OA
ATOM      3  N   UNL     1       5.605   5.684  17.689  0.00  0.00    +0.000 N 
ATOM      4  H   UNL     1       5.302   5.686  18.660  0.00  0.00    +0.000 HD
ENDROOT
BRANCH   1   6
ATOM      5  N   UNL     1       7.583   5.257  19.662  0.00  0.00    +0.000 N 
ATOM      6  C   UNL     1       7.755   6.262  18.722  0.00  0.00    +0.000 C 
ATOM      7  O   UNL     1       8.445   7.271  18.824  0.00  0.00    +0.000 OA
ATOM      8  H   UNL     1       7.025   4.450  19.378  0.00  0.00    +0.000 HD
BRANCH   5   9
ATOM      9  N   UNL     1       8.311   5.258  20.866  0.00  0.00    +0.000 NA
ATOM     10  H   UNL     1       8.958   4.466  20.871  0.00  0.00    +0.000 HD
ATOM     11  H   UNL     1       7.654   5.091  21.634  0.00  0.00    +0.000 HD
ENDBRANCH   5   9
ENDBRANCH   1   6
BRANCH   3  12
ATOM     12  C   UNL     1       4.680   5.382  16.624  0.00  0.00    +0.000 C 
BRANCH  12  13
ATOM     13  C   UNL     1       4.038   3.998  16.776  0.00  0.00    +0.000 C 
BRANCH  13  14
ATOM     14  C   UNL     1       2.924   4.062  17.829  0.00  0.00    +0.000 C 
BRANCH  14  15
ATOM     15  N   UNL     1       3.355   4.156  19.234  0.00  0.00    +0.000 NA
ATOM     16  C   UNL     1       3.288   2.820  19.878  0.00  0.00    +0.000 C 
ATOM     17  C   UNL     1       1.852   2.377  20.210  0.00  0.00    +0.000 C 
ATOM     18  O   UNL     1       1.240   3.304  21.112  0.00  0.00    +0.000 OA
ATOM     19  C   UNL     1       1.204   4.619  20.542  0.00  0.00    +0.000 C 
ATOM     20  C   UNL     1       2.594   5.100  20.081  0.00  0.00    +0.000 C 
ENDBRANCH  14  15
ENDBRANCH  13  14
ENDBRANCH  12  13
ENDBRANCH   3  12
TORSDOF 6
ENDMDL
MODEL 3
REMARK VINA RESULT:      -6.2      2.087      2.607
REMARK  Name = 
REMARK  6 active torsions:
REMARK  status: ('A' for Active; 'I' for Inactive)
REMARK    1  A    between atoms: N_1  and  N_2
REMARK    2  A    between atoms: C_3  and  C_5
REMARK    3  A    between atoms: N_7  and  C_8
REMARK    4  A    between atoms: C_8  and  C_9
REMARK    5  A    between atoms: C_9  and  C_10
REMARK    6  A    between atoms: C_10  and  N_11
REMARK                            x       y       z     vdW  Elec       q    Type
REMARK                         _______ _______ _______ _____ _____    ______ ____
ROOT
ATOM      1  C   UNL     1       6.204   5.170  17.426  0.00  0.00    +0.000 C 
ATOM      2  O   UNL     1       5.887   4.404  16.520  0.00  0.00    +0.000 OA
ATOM      3  N   UNL     1       5.532   6.318  17.781  0.00  0.00    +0.000 N 
ATOM      4  H   UNL     1       5.943   6.875  18.527  0.00  0.00    +0.000 HD
ENDROOT
BRANCH   1   6
ATOM      5  N   UNL     1       7.372   5.461  19.539  0.00  0.00    +0.000 N 
ATOM      6  C   UNL     1       7.440   4.862  18.290  0.00  0.00    +0.000 C 
ATOM      7  O   UNL     1       8.354   4.180  17.837  0.00  0.00    +0.000 OA
ATOM      8  H   UNL     1       6.498   5.935  19.776  0.00  0.00    +0.000 HD
BRANCH   5   9
ATOM      9  N   UNL     1       8.375   5.247  20.502  0.00  0.00    +0.000 NA
ATOM     10  H   UNL     1       8.778   4.317  20.370  0.00  0.00    +0.000 HD
ATOM     11  H   UNL     1       7.930   5.234  21.425  0.00  0.00    +0.000 HD
ENDBRANCH   5   9
ENDBRANCH   1   6
BRANCH   3  12
ATOM     12  C   UNL     1       4.327   6.747  17.114  0.00  0.00    +0.000 C 
BRANCH  12  13
ATOM     13  C   UNL     1       3.118   6.803  18.056  0.00  0.00    +0.000 C 
BRANCH  13  14
ATOM     14  C   UNL     1       2.660   5.377  18.388  0.00  0.00    +0.000 C 
BRANCH  14  15
ATOM     15  N   UNL     1       3.196   4.788  19.626  0.00  0.00    +0.000 NA
ATOM     16  C   UNL     1       3.668   3.403  19.369  0.00  0.00    +0.000 C 
ATOM     17  C   UNL     1       2.520   2.387  19.226  0.00  0.00    +0.000 C 
ATOM     18  O   UNL     1       1.739   2.345  20.423  0.00  0.00    +0.000 OA
ATOM     19  C   UNL     1       1.188   3.636  20.717  0.00  0.00    +0.000 C 
ATOM     20  C   UNL     1       2.264   4.738  20.773  0.00  0.00    +0.000 C 
ENDBRANCH  14  15
ENDBRANCH  13  14
ENDBRANCH  12  13
ENDBRANCH   3  12
TORSDOF 6
ENDMDL
MODEL 4
REMARK VINA RESULT:      -6.2      2.265      3.768
REMARK  Name = 
REMARK  6 active torsions:
REMARK  status: ('A' for Active; 'I' for Inactive)
REMARK    1  A    between atoms: N_1  and  N_2
REMARK    2  A    between atoms: C_3  and  C_5
REMARK    3  A    between atoms: N_7  and  C_8
REMARK    4  A    between atoms: C_8  and  C_9
REMARK    5  A    between atoms: C_9  and  C_10
REMARK    6  A    between atoms: C_10  and  N_11
REMARK                            x       y       z     vdW  Elec       q    Type
REMARK                         _______ _______ _______ _____ _____    ______ ____
ROOT
ATOM      1  C   UNL     1       6.891   5.183  15.770  0.00  0.00    +0.000 C 
ATOM      2  O   UNL     1       7.522   4.611  16.653  0.00  0.00    +0.000 OA
ATOM      3  N   UNL     1       5.983   6.202  15.960  0.00  0.00    +0.000 N 
ATOM      4  H   UNL     1       5.505   6.547  15.130  0.00  0.00    +0.000 HD
ENDROOT
BRANCH   1   6
ATOM      5  N   UNL     1       6.367   3.669  13.940  0.00  0.00    +0.000 N 
ATOM      6  C   UNL     1       7.106   4.787  14.297  0.00  0.00    +0.000 C 
ATOM      7  O   UNL     1       7.885   5.424  13.596  0.00  0.00    +0.000 OA
ATOM      8  H   UNL     1       5.710   3.308  14.635  0.00  0.00    +0.000 HD
BRANCH   5   9
ATOM      9  N   UNL     1       6.375   3.187  12.619  0.00  0.00    +0.000 NA
ATOM     10  H   UNL     1       6.783   2.249  12.604  0.00  0.00    +0.000 HD
ATOM     11  H   UNL     1       7.004   3.779  12.069  0.00  0.00    +0.000 HD
ENDBRANCH   5   9
ENDBRANCH   1   6
BRANCH   3  12
ATOM     12  C   UNL     1       5.683   6.737  17.265  0.00  0.00    +0.000 C 
BRANCH  12  13
ATOM     13  C   UNL     1       4.260   6.400  17.728  0.00  0.00    +0.000 C 
BRANCH  13  14
ATOM     14  C   UNL     1       4.320   5.372  18.865  0.00  0.00    +0.000 C 
BRANCH  14  15
ATOM     15  N   UNL     1       4.634   3.986  18.479  0.00  0.00    +0.000 NA
ATOM     16  C   UNL     1       3.814   3.584  17.308  0.00  0.00    +0.000 C 
ATOM     17  C   UNL     1       2.346   3.292  17.666  0.00  0.00    +0.000 C 
ATOM     18  O   UNL     1       2.268   2.224  18.614  0.00  0.00    +0.000 OA
ATOM     19  C   UNL     1       2.985   2.553  19.811  0.00  0.00    +0.000 C 
ATOM     20  C   UNL     1       4.444   2.964  19.531  0.00  0.00    +0.000 C 
ENDBRANCH  14  15
ENDBRANCH  13  14
ENDBRANCH  12  13
ENDBRANCH   3  12
TORSDOF 6
ENDMDL
MODEL 5
REMARK VINA RESULT:      -6.2      1.782      3.525
REMARK  Name = 
REMARK  6 active torsions:
REMARK  status: ('A' for Active; 'I' for Inactive)
REMARK    1  A    between atoms: N_1  and  N_2
REMARK    2  A    between atoms: C_3  and  C_5
REMARK    3  A    between atoms: N_7  and  C_8
REMARK    4  A    between atoms: C_8  and  C_9
REMARK    5  A    between atoms: C_9  and  C_10
REMARK    6  A    between atoms: C_10  and  N_11
REMARK                            x       y       z     vdW  Elec       q    Type
REMARK                         _______ _______ _______ _____ _____    ______ ____
ROOT
ATOM      1  C   UNL     1       6.891   5.523  16.172  0.00  0.00    +0.000 C 
ATOM      2  O   UNL     1       6.518   6.684  16.314  0.00  0.00    +0.000 OA
ATOM      3  N   UNL     1       7.172   4.637  17.189  0.00  0.00    +0.000 N 
ATOM      4  H   UNL     1       7.516   3.720  16.913  0.00  0.00    +0.000 HD
ENDROOT
BRANCH   1   6
ATOM      5  N   UNL     1       6.274   3.816  14.553  0.00  0.00    +0.000 N 
ATOM      6  C   UNL     1       7.059   4.941  14.756  0.00  0.00    +0.000 C 
ATOM      7  O   UNL     1       7.844   5.457  13.967  0.00  0.00    +0.000 OA
ATOM      8  H   UNL     1       5.620   3.569  15.299  0.00  0.00    +0.000 HD
BRANCH   5   9
ATOM      9  N   UNL     1       6.234   3.175  13.301  0.00  0.00    +0.000 NA
ATOM     10  H   UNL     1       5.286   2.836  13.125  0.00  0.00    +0.000 HD
ATOM     11  H   UNL     1       6.828   2.342  13.353  0.00  0.00    +0.000 HD
ENDBRANCH   5   9
ENDBRANCH   1   6
BRANCH   3  12
ATOM     12  C   UNL     1       7.032   4.988  18.581  0.00  0.00    +0.000 C 
BRANCH  12  13
ATOM     13  C   UNL     1       5.572   5.226  18.985  0.00  0.00    +0.000 C 
BRANCH  13  14
ATOM     14  C   UNL     1       4.844   3.880  19.093  0.00  0.00    +0.000 C 
BRANCH  14  15
ATOM     15  N   UNL     1       4.318   3.316  17.840  0.00  0.00    +0.000 NA
ATOM     16  C   UNL     1       3.451   4.311  17.157  0.00  0.00    +0.000 C 
ATOM     17  C   UNL     1       2.071   4.470  17.820  0.00  0.00    +0.000 C 
ATOM     18  O   UNL     1       1.365   3.226  17.806  0.00  0.00    +0.000 OA
ATOM     19  C   UNL     1       2.105   2.214  18.502  0.00  0.00    +0.000 C 
ATOM     20  C   UNL     1       3.544   2.063  17.969  0.00  0.00    +0.000 C 
ENDBRANCH  14  15
ENDBRANCH  13  14
ENDBRANCH  12  13
ENDBRANCH   3  12
TORSDOF 6
ENDMDL
MODEL 6
REMARK VINA RESULT:      -6.1      2.471      3.933
REMARK  Name = 
REMARK  6 active torsions:
REMARK  status: ('A' for Active; 'I' for Inactive)
REMARK    1  A    between atoms: N_1  and  N_2
REMARK    2  A    between atoms: C_3  and  C_5
REMARK    3  A    between atoms: N_7  and  C_8
REMARK    4  A    between atoms: C_8  and  C_9
REMARK    5  A    between atoms: C_9  and  C_10
REMARK    6  A    between atoms: C_10  and  N_11
REMARK                            x       y       z     vdW  Elec       q    Type
REMARK                         _______ _______ _______ _____ _____    ______ ____
ROOT
ATOM      1  C   UNL     1       6.996   4.405  16.493  0.00  0.00    +0.000 C 
ATOM      2  O   UNL     1       8.101   4.399  17.027  0.00  0.00    +0.000 OA
ATOM      3  N   UNL     1       5.785   4.333  17.146  0.00  0.00    +0.000 N 
ATOM      4  H   UNL     1       4.952   4.303  16.561  0.00  0.00    +0.000 HD
ENDROOT
BRANCH   1   6
ATOM      5  N   UNL     1       7.803   5.423  14.437  0.00  0.00    +0.000 N 
ATOM      6  C   UNL     1       6.888   4.523  14.961  0.00  0.00    +0.000 C 
ATOM      7  O   UNL     1       6.038   3.881  14.352  0.00  0.00    +0.000 OA
ATOM      8  H   UNL     1       8.489   5.815  15.086  0.00  0.00    +0.000 HD
BRANCH   5   9
ATOM      9  N   UNL     1       7.909   5.625  13.049  0.00  0.00    +0.000 NA
ATOM     10  H   UNL     1       8.881   5.836  12.812  0.00  0.00    +0.000 HD
ATOM     11  H   UNL     1       7.370   6.462  12.808  0.00  0.00    +0.000 HD
ENDBRANCH   5   9
ENDBRANCH   1   6
BRANCH   3  12
ATOM     12  C   UNL     1       5.685   4.261  18.583  0.00  0.00    +0.000 C 
BRANCH  12  13
ATOM     13  C   UNL     1       4.978   5.480  19.187  0.00  0.00    +0.000 C 
BRANCH  13  14
ATOM     14  C   UNL     1       3.582   5.073  19.677  0.00  0.00    +0.000 C 
BRANCH  14  15
ATOM     15  N   UNL     1       3.162   3.693  19.386  0.00  0.00    +0.000 NA
ATOM     16  C   UNL     1       1.725   3.664  19.012  0.00  0.00    +0.000 C 
ATOM     17  C   UNL     1       0.781   3.838  20.215  0.00  0.00    +0.000 C 
ATOM     18  O   UNL     1       0.984   2.788  21.165  0.00  0.00    +0.000 OA
ATOM     19  C   UNL     1       2.340   2.779  21.631  0.00  0.00    +0.000 C 
ATOM     20  C   UNL     1       3.360   2.714  20.477  0.00  0.00    +0.000 C 
ENDBRANCH  14  15
ENDBRANCH  13  14
ENDBRANCH  12  13
ENDBRANCH   3  12
TORSDOF 6
ENDMDL
MODEL 7
REMARK VINA RESULT:      -6.0      2.528      3.925
REMARK  Name = 
REMARK  6 active torsions:
REMARK  status: ('A' for Active; 'I' for Inactive)
REMARK    1  A    between atoms: N_1  and  N_2
REMARK    2  A    between atoms: C_3  and  C_5
REMARK    3  A    between atoms: N_7  and  C_8
REMARK    4  A    between atoms: C_8  and  C_9
REMARK    5  A    between atoms: C_9  and  C_10
REMARK    6  A    between atoms: C_10  and  N_11
REMARK                            x       y       z     vdW  Elec       q    Type
REMARK                         _______ _______ _______ _____ _____    ______ ____
ROOT
ATOM      1  C   UNL     1       6.801   5.164  15.613  0.00  0.00    +0.000 C 
ATOM      2  O   UNL     1       7.497   4.649  16.483  0.00  0.00    +0.000 OA
ATOM      3  N   UNL     1       5.848   6.137  15.814  0.00  0.00    +0.000 N 
ATOM      4  H   UNL     1       5.319   6.435  14.997  0.00  0.00    +0.000 HD
ENDROOT
BRANCH   1   6
ATOM      5  N   UNL     1       6.300   3.571  13.844  0.00  0.00    +0.000 N 
ATOM      6  C   UNL     1       6.980   4.743  14.142  0.00  0.00    +0.000 C 
ATOM      7  O   UNL     1       7.688   5.407  13.392  0.00  0.00    +0.000 OA
ATOM      8  H   UNL     1       5.697   3.189  14.575  0.00  0.00    +0.000 HD
BRANCH   5   9
ATOM      9  N   UNL     1       6.284   3.055  12.536  0.00  0.00    +0.000 NA
ATOM     10  H   UNL     1       6.676   2.111  12.540  0.00  0.00    +0.000 HD
ATOM     11  H   UNL     1       6.917   3.622  11.963  0.00  0.00    +0.000 HD
ENDBRANCH   5   9
ENDBRANCH   1   6
BRANCH   3  12
ATOM     12  C   UNL     1       5.569   6.688  17.118  0.00  0.00    +0.000 C 
BRANCH  12  13
ATOM     13  C   UNL     1       4.140   6.396  17.590  0.00  0.00    +0.000 C 
BRANCH  13  14
ATOM     14  C   UNL     1       4.060   4.961  18.127  0.00  0.00    +0.000 C 
BRANCH  14  15
ATOM     15  N   UNL     1       3.152   4.045  17.418  0.00  0.00    +0.000 NA
ATOM     16  C   UNL     1       1.742   4.344  17.779  0.00  0.00    +0.000 C 
ATOM     17  C   UNL     1       1.357   3.849  19.184  0.00  0.00    +0.000 C 
ATOM     18  O   UNL     1       1.517   2.431  19.275  0.00  0.00    +0.000 OA
ATOM     19  C   UNL     1       2.874   2.054  19.002  0.00  0.00    +0.000 C 
ATOM     20  C   UNL     1       3.378   2.602  17.652  0.00  0.00    +0.000 C 
ENDBRANCH  14  15
ENDBRANCH  13  14
ENDBRANCH  12  13
ENDBRANCH   3  12
TORSDOF 6
ENDMDL
MODEL 8
REMARK VINA RESULT:      -6.0      2.361      3.764
REMARK  Name = 
REMARK  6 active torsions:
REMARK  status: ('A' for Active; 'I' for Inactive)
REMARK    1  A    between atoms: N_1  and  N_2
REMARK    2  A    between atoms: C_3  and  C_5
REMARK    3  A    between atoms: N_7  and  C_8
REMARK    4  A    between atoms: C_8  and  C_9
REMARK    5  A    between atoms: C_9  and  C_10
REMARK    6  A    between atoms: C_10  and  N_11
REMARK                            x       y       z     vdW  Elec       q    Type
REMARK                         _______ _______ _______ _____ _____    ______ ____
ROOT
ATOM      1  C   UNL     1       7.099   4.698  16.326  0.00  0.00    +0.000 C 
ATOM      2  O   UNL     1       8.064   4.245  16.934  0.00  0.00    +0.000 OA
ATOM      3  N   UNL     1       5.994   5.293  16.894  0.00  0.00    +0.000 N 
ATOM      4  H   UNL     1       5.253   5.580  16.258  0.00  0.00    +0.000 HD
ENDROOT
BRANCH   1   6
ATOM      5  N   UNL     1       6.363   3.553  14.310  0.00  0.00    +0.000 N 
ATOM      6  C   UNL     1       7.073   4.644  14.787  0.00  0.00    +0.000 C 
ATOM      7  O   UNL     1       7.667   5.494  14.130  0.00  0.00    +0.000 OA
ATOM      8  H   UNL     1       5.868   2.986  15.002  0.00  0.00    +0.000 HD
BRANCH   5   9
ATOM      9  N   UNL     1       6.166   3.361  12.930  0.00  0.00    +0.000 NA
ATOM     10  H   UNL     1       5.230   3.681  12.674  0.00  0.00    +0.000 HD
ATOM     11  H   UNL     1       6.182   2.354  12.745  0.00  0.00    +0.000 HD
ENDBRANCH   5   9
ENDBRANCH   1   6
BRANCH   3  12
ATOM     12  C   UNL     1       5.860   5.472  18.319  0.00  0.00    +0.000 C 
BRANCH  12  13
ATOM     13  C   UNL     1       5.321   4.220  19.022  0.00  0.00    +0.000 C 
BRANCH  13  14
ATOM     14  C   UNL     1       3.887   4.478  19.502  0.00  0.00    +0.000 C 
BRANCH  14  15
ATOM     15  N   UNL     1       3.265   3.416  20.309  0.00  0.00    +0.000 NA
ATOM     16  C   UNL     1       2.949   2.244  19.453  0.00  0.00    +0.000 C 
ATOM     17  C   UNL     1       1.720   2.462  18.554  0.00  0.00    +0.000 C 
ATOM     18  O   UNL     1       0.559   2.720  19.349  0.00  0.00    +0.000 OA
ATOM     19  C   UNL     1       0.753   3.882  20.168  0.00  0.00    +0.000 C 
ATOM     20  C   UNL     1       2.029   3.791  21.028  0.00  0.00    +0.000 C 
ENDBRANCH  14  15
ENDBRANCH  13  14
ENDBRANCH  12  13
ENDBRANCH   3  12
TORSDOF 6
ENDMDL
MODEL 9
REMARK VINA RESULT:      -6.0      2.341      3.990
REMARK  Name = 
REMARK  6 active torsions:
REMARK  status: ('A' for Active; 'I' for Inactive)
REMARK    1  A    between atoms: N_1  and  N_2
REMARK    2  A    between atoms: C_3  and  C_5
REMARK    3  A    between atoms: N_7  and  C_8
REMARK    4  A    between atoms: C_8  and  C_9
REMARK    5  A    between atoms: C_9  and  C_10
REMARK    6  A    between atoms: C_10  and  N_11
REMARK                            x       y       z     vdW  Elec       q    Type
REMARK                         _______ _______ _______ _____ _____    ______ ____
ROOT
ATOM      1  C   UNL     1       6.843   5.132  15.876  0.00  0.00    +0.000 C 
ATOM      2  O   UNL     1       7.441   6.087  16.363  0.00  0.00    +0.000 OA
ATOM      3  N   UNL     1       5.950   4.317  16.537  0.00  0.00    +0.000 N 
ATOM      4  H   UNL     1       5.567   3.536  16.009  0.00  0.00    +0.000 HD
ENDROOT
BRANCH   1   6
ATOM      5  N   UNL     1       6.339   3.647  14.017  0.00  0.00    +0.000 N 
ATOM      6  C   UNL     1       7.050   4.776  14.392  0.00  0.00    +0.000 C 
ATOM      7  O   UNL     1       7.803   5.451  13.696  0.00  0.00    +0.000 OA
ATOM      8  H   UNL     1       5.701   3.252  14.710  0.00  0.00    +0.000 HD
BRANCH   5   9
ATOM      9  N   UNL     1       6.344   3.196  12.684  0.00  0.00    +0.000 NA
ATOM     10  H   UNL     1       5.665   2.438  12.582  0.00  0.00    +0.000 HD
ATOM     11  H   UNL     1       7.261   2.783  12.492  0.00  0.00    +0.000 HD
ENDBRANCH   5   9
ENDBRANCH   1   6
BRANCH   3  12
ATOM     12  C   UNL     1       5.596   4.521  17.920  0.00  0.00    +0.000 C 
BRANCH  12  13
ATOM     13  C   UNL     1       4.279   5.290  18.085  0.00  0.00    +0.000 C 
BRANCH  13  14
ATOM     14  C   UNL     1       3.805   5.189  19.541  0.00  0.00    +0.000 C 
BRANCH  14  15
ATOM     15  N   UNL     1       2.356   5.032  19.748  0.00  0.00    +0.000 NA
ATOM     16  C   UNL     1       2.088   4.545  21.125  0.00  0.00    +0.000 C 
ATOM     17  C   UNL     1       2.410   3.052  21.315  0.00  0.00    +0.000 C 
ATOM     18  O   UNL     1       1.618   2.255  20.431  0.00  0.00    +0.000 OA
ATOM     19  C   UNL     1       1.861   2.616  19.065  0.00  0.00    +0.000 C 
ATOM     20  C   UNL     1       1.663   4.123  18.809  0.00  0.00    +0.000 C 
ENDBRANCH  14  15
ENDBRANCH  13  14
ENDBRANCH  12  13
ENDBRANCH   3  12
TORSDOF 6
ENDMDL
