MODEL 1
REMARK VINA RESULT:      -7.8      0.000      0.000
REMARK  Name = 
REMARK  14 active torsions:
REMARK  status: ('A' for Active; 'I' for Inactive)
REMARK    1  A    between atoms: C_1  and  C_2
REMARK    2  A    between atoms: C_2  and  O_3
REMARK    3  A    between atoms: O_3  and  C_4
REMARK    4  A    between atoms: C_9  and  N_10
REMARK    5  A    between atoms: C_11  and  C_13
REMARK    6  A    between atoms: C_13  and  N_14
REMARK    7  A    between atoms: N_14  and  C_15
REMARK    8  A    between atoms: N_14  and  S_23
REMARK    9  A    between atoms: C_17  and  C_18
REMARK   10  A    between atoms: C_20  and  C_21
REMARK   11  A    between atoms: S_23  and  C_26
REMARK   12  A    between atoms: C_27  and  C_28
REMARK   13  A    between atoms: N_30  and  C_31
REMARK   14  A    between atoms: C_32  and  C_33
REMARK                            x       y       z     vdW  Elec       q    Type
REMARK                         _______ _______ _______ _____ _____    ______ ____
ROOT
ATOM      1  N   UNL     1      -0.127  10.733  19.330  0.00  0.00    +0.000 N 
ENDROOT
BRANCH   1   2
ATOM      2  C   UNL     1      -1.348  10.894  18.601  0.00  0.00    +0.000 A 
ATOM      3  C   UNL     1      -2.405  11.601  19.169  0.00  0.00    +0.000 A 
ATOM      4  C   UNL     1      -3.651  11.638  18.529  0.00  0.00    +0.000 A 
ATOM      5  C   UNL     1      -4.843  12.247  19.204  0.00  0.00    +0.000 C 
ATOM      6  C   UNL     1      -3.796  11.054  17.263  0.00  0.00    +0.000 A 
ATOM      7  C   UNL     1      -2.728  10.387  16.655  0.00  0.00    +0.000 A 
ATOM      8  C   UNL     1      -2.871   9.832  15.266  0.00  0.00    +0.000 C 
ATOM      9  C   UNL     1      -1.514  10.278  17.352  0.00  0.00    +0.000 A 
ENDBRANCH   1   2
BRANCH   1  10
ATOM     10  S   UNL     1       0.500  12.084  20.137  0.00  0.00    +0.000 S 
ATOM     11  O   UNL     1       1.783  11.764  20.731  0.00  0.00    +0.000 OA
ATOM     12  O   UNL     1       0.380  13.219  19.245  0.00  0.00    +0.000 OA
BRANCH  10  13
ATOM     13  C   UNL     1      -0.464  12.583  21.500  0.00  0.00    +0.000 A 
ATOM     14  C   UNL     1      -0.875  11.783  22.602  0.00  0.00    +0.000 A 
ATOM     15  C   UNL     1      -0.816  10.318  22.821  0.00  0.00    +0.000 C 
ATOM     16  N   UNL     1      -1.368  12.537  23.597  0.00  0.00    +0.000 NA
ATOM     17  N   UNL     1      -1.226  13.798  23.166  0.00  0.00    +0.000 N 
ATOM     18  C   UNL     1      -1.369  14.890  24.106  0.00  0.00    +0.000 C 
ATOM     19  C   UNL     1      -0.845  13.879  21.850  0.00  0.00    +0.000 A 
ATOM     20  C   UNL     1      -0.774  15.177  21.131  0.00  0.00    +0.000 C 
ENDBRANCH  10  13
ENDBRANCH   1  10
BRANCH   1  21
ATOM     21  C   UNL     1       0.615   9.462  19.304  0.00  0.00    +0.000 C 
BRANCH  21  23
ATOM     22  N   UNL     1       2.571   8.173  18.251  0.00  0.00    +0.000 N 
ATOM     23  C   UNL     1       1.785   9.289  18.345  0.00  0.00    +0.000 C 
ATOM     24  O   UNL     1       2.083  10.222  17.586  0.00  0.00    +0.000 OA
ATOM     25  H   UNL     1       3.240   8.272  17.506  0.00  0.00    +0.000 HD
BRANCH  22  31
ATOM     26  C   UNL     1       3.151   5.793  18.287  0.00  0.00    +0.000 A 
ATOM     27  C   UNL     1       3.066   4.541  18.916  0.00  0.00    +0.000 A 
ATOM     28  C   UNL     1       2.378   4.386  20.122  0.00  0.00    +0.000 A 
ATOM     29  C   UNL     1       1.823   5.498  20.730  0.00  0.00    +0.000 A 
ATOM     30  C   UNL     1       1.931   6.751  20.124  0.00  0.00    +0.000 A 
ATOM     31  C   UNL     1       2.535   6.916  18.879  0.00  0.00    +0.000 A 
BRANCH  26  32
ATOM     32  O   UNL     1       3.911   5.778  17.141  0.00  0.00    +0.000 OA
BRANCH  32  34
ATOM     33  C   UNL     1       6.035   4.803  16.583  0.00  0.00    +0.000 C 
ATOM     34  C   UNL     1       4.553   4.550  16.801  0.00  0.00    +0.000 C 
ENDBRANCH  32  34
ENDBRANCH  26  32
ENDBRANCH  22  31
ENDBRANCH  21  23
ENDBRANCH   1  21
TORSDOF 8
ENDMDL
MODEL 2
REMARK VINA RESULT:      -7.7      0.314      1.532
REMARK  Name = 
REMARK  14 active torsions:
REMARK  status: ('A' for Active; 'I' for Inactive)
REMARK    1  A    between atoms: C_1  and  C_2
REMARK    2  A    between atoms: C_2  and  O_3
REMARK    3  A    between atoms: O_3  and  C_4
REMARK    4  A    between atoms: C_9  and  N_10
REMARK    5  A    between atoms: C_11  and  C_13
REMARK    6  A    between atoms: C_13  and  N_14
REMARK    7  A    between atoms: N_14  and  C_15
REMARK    8  A    between atoms: N_14  and  S_23
REMARK    9  A    between atoms: C_17  and  C_18
REMARK   10  A    between atoms: C_20  and  C_21
REMARK   11  A    between atoms: S_23  and  C_26
REMARK   12  A    between atoms: C_27  and  C_28
REMARK   13  A    between atoms: N_30  and  C_31
REMARK   14  A    between atoms: C_32  and  C_33
REMARK                            x       y       z     vdW  Elec       q    Type
REMARK                         _______ _______ _______ _____ _____    ______ ____
ROOT
ATOM      1  N   UNL     1      -0.229  10.648  19.173  0.00  0.00    +0.000 N 
ENDROOT
BRANCH   1   2
ATOM      2  C   UNL     1      -1.481  10.729  18.486  0.00  0.00    +0.000 A 
ATOM      3  C   UNL     1      -1.607  10.183  17.210  0.00  0.00    +0.000 A 
ATOM      4  C   UNL     1      -2.779  10.386  16.470  0.00  0.00    +0.000 A 
ATOM      5  C   UNL     1      -2.868   9.954  15.037  0.00  0.00    +0.000 C 
ATOM      6  C   UNL     1      -3.866  11.046  17.063  0.00  0.00    +0.000 A 
ATOM      7  C   UNL     1      -3.774  11.553  18.363  0.00  0.00    +0.000 A 
ATOM      8  C   UNL     1      -4.968  12.190  19.015  0.00  0.00    +0.000 C 
ATOM      9  C   UNL     1      -2.559  11.423  19.054  0.00  0.00    +0.000 A 
ENDBRANCH   1   2
BRANCH   1  10
ATOM     10  S   UNL     1       0.379  12.061  19.882  0.00  0.00    +0.000 S 
ATOM     11  O   UNL     1       1.728  11.840  20.365  0.00  0.00    +0.000 OA
ATOM     12  O   UNL     1       0.108  13.156  18.974  0.00  0.00    +0.000 OA
BRANCH  10  13
ATOM     13  C   UNL     1      -0.488  12.545  21.313  0.00  0.00    +0.000 A 
ATOM     14  C   UNL     1      -0.782  11.745  22.453  0.00  0.00    +0.000 A 
ATOM     15  C   UNL     1      -0.657  10.285  22.680  0.00  0.00    +0.000 C 
ATOM     16  N   UNL     1      -1.220  12.494  23.477  0.00  0.00    +0.000 NA
ATOM     17  N   UNL     1      -1.155  13.754  23.024  0.00  0.00    +0.000 N 
ATOM     18  C   UNL     1      -1.259  14.852  23.961  0.00  0.00    +0.000 C 
ATOM     19  C   UNL     1      -0.883  13.831  21.680  0.00  0.00    +0.000 A 
ATOM     20  C   UNL     1      -0.914  15.122  20.946  0.00  0.00    +0.000 C 
ENDBRANCH  10  13
ENDBRANCH   1  10
BRANCH   1  21
ATOM     21  C   UNL     1       0.556   9.403  19.184  0.00  0.00    +0.000 C 
BRANCH  21  23
ATOM     22  N   UNL     1       2.588   8.172  18.209  0.00  0.00    +0.000 N 
ATOM     23  C   UNL     1       1.762   9.262  18.267  0.00  0.00    +0.000 C 
ATOM     24  O   UNL     1       2.055  10.198  17.510  0.00  0.00    +0.000 OA
ATOM     25  H   UNL     1       3.278   8.287  17.486  0.00  0.00    +0.000 HD
BRANCH  22  31
ATOM     26  C   UNL     1       3.177   5.793  18.247  0.00  0.00    +0.000 A 
ATOM     27  C   UNL     1       3.112   4.546  18.887  0.00  0.00    +0.000 A 
ATOM     28  C   UNL     1       2.456   4.397  20.110  0.00  0.00    +0.000 A 
ATOM     29  C   UNL     1       1.912   5.511  20.724  0.00  0.00    +0.000 A 
ATOM     30  C   UNL     1       1.999   6.760  20.107  0.00  0.00    +0.000 A 
ATOM     31  C   UNL     1       2.572   6.919  18.846  0.00  0.00    +0.000 A 
BRANCH  26  32
ATOM     32  O   UNL     1       3.908   5.774  17.083  0.00  0.00    +0.000 OA
BRANCH  32  34
ATOM     33  C   UNL     1       5.870   4.581  16.375  0.00  0.00    +0.000 C 
ATOM     34  C   UNL     1       5.329   5.730  17.207  0.00  0.00    +0.000 C 
ENDBRANCH  32  34
ENDBRANCH  26  32
ENDBRANCH  22  31
ENDBRANCH  21  23
ENDBRANCH   1  21
TORSDOF 8
ENDMDL
MODEL 3
REMARK VINA RESULT:      -7.7      1.725      2.818
REMARK  Name = 
REMARK  14 active torsions:
REMARK  status: ('A' for Active; 'I' for Inactive)
REMARK    1  A    between atoms: C_1  and  C_2
REMARK    2  A    between atoms: C_2  and  O_3
REMARK    3  A    between atoms: O_3  and  C_4
REMARK    4  A    between atoms: C_9  and  N_10
REMARK    5  A    between atoms: C_11  and  C_13
REMARK    6  A    between atoms: C_13  and  N_14
REMARK    7  A    between atoms: N_14  and  C_15
REMARK    8  A    between atoms: N_14  and  S_23
REMARK    9  A    between atoms: C_17  and  C_18
REMARK   10  A    between atoms: C_20  and  C_21
REMARK   11  A    between atoms: S_23  and  C_26
REMARK   12  A    between atoms: C_27  and  C_28
REMARK   13  A    between atoms: N_30  and  C_31
REMARK   14  A    between atoms: C_32  and  C_33
REMARK                            x       y       z     vdW  Elec       q    Type
REMARK                         _______ _______ _______ _____ _____    ______ ____
ROOT
ATOM      1  N   UNL     1      -0.800  10.796  20.299  0.00  0.00    +0.000 N 
ENDROOT
BRANCH   1   2
ATOM      2  C   UNL     1      -1.795  10.987  19.289  0.00  0.00    +0.000 A 
ATOM      3  C   UNL     1      -2.911  11.776  19.559  0.00  0.00    +0.000 A 
ATOM      4  C   UNL     1      -3.961  11.850  18.633  0.00  0.00    +0.000 A 
ATOM      5  C   UNL     1      -5.239  12.553  18.977  0.00  0.00    +0.000 C 
ATOM      6  C   UNL     1      -3.833  11.214  17.390  0.00  0.00    +0.000 A 
ATOM      7  C   UNL     1      -2.694  10.462  17.084  0.00  0.00    +0.000 A 
ATOM      8  C   UNL     1      -2.533   9.850  15.721  0.00  0.00    +0.000 C 
ATOM      9  C   UNL     1      -1.694  10.322  18.058  0.00  0.00    +0.000 A 
ENDBRANCH   1   2
BRANCH   1  10
ATOM     10  S   UNL     1       0.323  12.038  20.552  0.00  0.00    +0.000 S 
ATOM     11  O   UNL     1       1.610  11.485  20.925  0.00  0.00    +0.000 OA
ATOM     12  O   UNL     1       0.227  12.948  19.429  0.00  0.00    +0.000 OA
BRANCH  10  13
ATOM     13  C   UNL     1      -0.078  13.070  21.897  0.00  0.00    +0.000 A 
ATOM     14  C   UNL     1       0.469  14.350  22.193  0.00  0.00    +0.000 A 
ATOM     15  C   UNL     1       1.635  15.068  21.626  0.00  0.00    +0.000 C 
ATOM     16  N   UNL     1      -0.248  14.982  23.135  0.00  0.00    +0.000 NA
ATOM     17  N   UNL     1      -1.265  14.151  23.399  0.00  0.00    +0.000 N 
ATOM     18  C   UNL     1      -2.407  14.639  24.143  0.00  0.00    +0.000 C 
ATOM     19  C   UNL     1      -1.123  12.919  22.809  0.00  0.00    +0.000 A 
ATOM     20  C   UNL     1      -2.059  11.801  23.091  0.00  0.00    +0.000 C 
ENDBRANCH  10  13
ENDBRANCH   1  10
BRANCH   1  21
ATOM     21  C   UNL     1      -0.690   9.523  21.030  0.00  0.00    +0.000 C 
BRANCH  21  23
ATOM     22  N   UNL     1       1.628   8.475  21.381  0.00  0.00    +0.000 N 
ATOM     23  C   UNL     1       0.569   9.216  21.829  0.00  0.00    +0.000 C 
ATOM     24  O   UNL     1       0.665   9.646  22.988  0.00  0.00    +0.000 OA
ATOM     25  H   UNL     1       2.366   8.460  22.065  0.00  0.00    +0.000 HD
BRANCH  22  31
ATOM     26  C   UNL     1       2.104   6.473  20.049  0.00  0.00    +0.000 A 
ATOM     27  C   UNL     1       2.439   5.901  18.812  0.00  0.00    +0.000 A 
ATOM     28  C   UNL     1       2.603   6.691  17.673  0.00  0.00    +0.000 A 
ATOM     29  C   UNL     1       2.373   8.053  17.758  0.00  0.00    +0.000 A 
ATOM     30  C   UNL     1       2.009   8.625  18.978  0.00  0.00    +0.000 A 
ATOM     31  C   UNL     1       1.926   7.870  20.148  0.00  0.00    +0.000 A 
BRANCH  26  32
ATOM     32  O   UNL     1       1.927   5.548  21.050  0.00  0.00    +0.000 OA
BRANCH  32  34
ATOM     33  C   UNL     1       1.961   3.203  21.571  0.00  0.00    +0.000 C 
ATOM     34  C   UNL     1       1.378   4.285  20.679  0.00  0.00    +0.000 C 
ENDBRANCH  32  34
ENDBRANCH  26  32
ENDBRANCH  22  31
ENDBRANCH  21  23
ENDBRANCH   1  21
TORSDOF 8
ENDMDL
MODEL 4
REMARK VINA RESULT:      -7.7      2.297      3.754
REMARK  Name = 
REMARK  14 active torsions:
REMARK  status: ('A' for Active; 'I' for Inactive)
REMARK    1  A    between atoms: C_1  and  C_2
REMARK    2  A    between atoms: C_2  and  O_3
REMARK    3  A    between atoms: O_3  and  C_4
REMARK    4  A    between atoms: C_9  and  N_10
REMARK    5  A    between atoms: C_11  and  C_13
REMARK    6  A    between atoms: C_13  and  N_14
REMARK    7  A    between atoms: N_14  and  C_15
REMARK    8  A    between atoms: N_14  and  S_23
REMARK    9  A    between atoms: C_17  and  C_18
REMARK   10  A    between atoms: C_20  and  C_21
REMARK   11  A    between atoms: S_23  and  C_26
REMARK   12  A    between atoms: C_27  and  C_28
REMARK   13  A    between atoms: N_30  and  C_31
REMARK   14  A    between atoms: C_32  and  C_33
REMARK                            x       y       z     vdW  Elec       q    Type
REMARK                         _______ _______ _______ _____ _____    ______ ____
ROOT
ATOM      1  N   UNL     1       0.012  11.122  19.931  0.00  0.00    +0.000 N 
ENDROOT
BRANCH   1   2
ATOM      2  C   UNL     1      -1.232  11.134  19.223  0.00  0.00    +0.000 A 
ATOM      3  C   UNL     1      -1.331  10.496  17.989  0.00  0.00    +0.000 A 
ATOM      4  C   UNL     1      -2.497  10.627  17.221  0.00  0.00    +0.000 A 
ATOM      5  C   UNL     1      -2.559  10.092  15.822  0.00  0.00    +0.000 C 
ATOM      6  C   UNL     1      -3.600  11.312  17.750  0.00  0.00    +0.000 A 
ATOM      7  C   UNL     1      -3.533  11.913  19.011  0.00  0.00    +0.000 A 
ATOM      8  C   UNL     1      -4.745  12.577  19.600  0.00  0.00    +0.000 C 
ATOM      9  C   UNL     1      -2.327  11.851  19.726  0.00  0.00    +0.000 A 
ENDBRANCH   1   2
BRANCH   1  10
ATOM     10  S   UNL     1       0.452  12.516  20.786  0.00  0.00    +0.000 S 
ATOM     11  O   UNL     1      -0.561  12.842  21.771  0.00  0.00    +0.000 OA
ATOM     12  O   UNL     1       1.832  12.359  21.195  0.00  0.00    +0.000 OA
BRANCH  10  13
ATOM     13  C   UNL     1       0.522  13.944  19.791  0.00  0.00    +0.000 A 
ATOM     14  C   UNL     1      -0.327  15.083  19.861  0.00  0.00    +0.000 A 
ATOM     15  C   UNL     1      -1.596  15.313  20.592  0.00  0.00    +0.000 C 
ATOM     16  N   UNL     1       0.166  16.106  19.144  0.00  0.00    +0.000 NA
ATOM     17  N   UNL     1       1.334  15.652  18.669  0.00  0.00    +0.000 N 
ATOM     18  C   UNL     1       2.284  16.588  18.107  0.00  0.00    +0.000 C 
ATOM     19  C   UNL     1       1.520  14.309  18.887  0.00  0.00    +0.000 A 
ATOM     20  C   UNL     1       2.675  13.573  18.313  0.00  0.00    +0.000 C 
ENDBRANCH  10  13
ENDBRANCH   1  10
BRANCH   1  21
ATOM     21  C   UNL     1       0.929   9.974  19.842  0.00  0.00    +0.000 C 
BRANCH  21  23
ATOM     22  N   UNL     1       1.558   7.733  20.927  0.00  0.00    +0.000 N 
ATOM     23  C   UNL     1       1.024   8.991  21.000  0.00  0.00    +0.000 C 
ATOM     24  O   UNL     1       0.578   9.322  22.108  0.00  0.00    +0.000 OA
ATOM     25  H   UNL     1       1.564   7.296  21.834  0.00  0.00    +0.000 HD
BRANCH  22  31
ATOM     26  C   UNL     1       2.513   5.651  20.056  0.00  0.00    +0.000 A 
ATOM     27  C   UNL     1       3.187   4.971  19.029  0.00  0.00    +0.000 A 
ATOM     28  C   UNL     1       3.553   5.626  17.852  0.00  0.00    +0.000 A 
ATOM     29  C   UNL     1       3.193   6.950  17.676  0.00  0.00    +0.000 A 
ATOM     30  C   UNL     1       2.497   7.623  18.681  0.00  0.00    +0.000 A 
ATOM     31  C   UNL     1       2.197   7.018  19.900  0.00  0.00    +0.000 A 
BRANCH  26  32
ATOM     32  O   UNL     1       2.178   4.844  21.118  0.00  0.00    +0.000 OA
BRANCH  32  34
ATOM     33  C   UNL     1       1.409   2.605  21.525  0.00  0.00    +0.000 C 
ATOM     34  C   UNL     1       2.557   3.471  21.037  0.00  0.00    +0.000 C 
ENDBRANCH  32  34
ENDBRANCH  26  32
ENDBRANCH  22  31
ENDBRANCH  21  23
ENDBRANCH   1  21
TORSDOF 8
ENDMDL
MODEL 5
REMARK VINA RESULT:      -7.7      0.678      2.175
REMARK  Name = 
REMARK  14 active torsions:
REMARK  status: ('A' for Active; 'I' for Inactive)
REMARK    1  A    between atoms: C_1  and  C_2
REMARK    2  A    between atoms: C_2  and  O_3
REMARK    3  A    between atoms: O_3  and  C_4
REMARK    4  A    between atoms: C_9  and  N_10
REMARK    5  A    between atoms: C_11  and  C_13
REMARK    6  A    between atoms: C_13  and  N_14
REMARK    7  A    between atoms: N_14  and  C_15
REMARK    8  A    between atoms: N_14  and  S_23
REMARK    9  A    between atoms: C_17  and  C_18
REMARK   10  A    between atoms: C_20  and  C_21
REMARK   11  A    between atoms: S_23  and  C_26
REMARK   12  A    between atoms: C_27  and  C_28
REMARK   13  A    between atoms: N_30  and  C_31
REMARK   14  A    between atoms: C_32  and  C_33
REMARK                            x       y       z     vdW  Elec       q    Type
REMARK                         _______ _______ _______ _____ _____    ______ ____
ROOT
ATOM      1  N   UNL     1      -0.235  10.746  19.188  0.00  0.00    +0.000 N 
ENDROOT
BRANCH   1   2
ATOM      2  C   UNL     1      -1.481  10.779  18.486  0.00  0.00    +0.000 A 
ATOM      3  C   UNL     1      -1.574  10.212  17.217  0.00  0.00    +0.000 A 
ATOM      4  C   UNL     1      -2.744  10.369  16.461  0.00  0.00    +0.000 A 
ATOM      5  C   UNL     1      -2.802   9.915  15.033  0.00  0.00    +0.000 C 
ATOM      6  C   UNL     1      -3.857  11.003  17.032  0.00  0.00    +0.000 A 
ATOM      7  C   UNL     1      -3.796  11.530  18.326  0.00  0.00    +0.000 A 
ATOM      8  C   UNL     1      -5.016  12.138  18.956  0.00  0.00    +0.000 C 
ATOM      9  C   UNL     1      -2.586  11.447  19.033  0.00  0.00    +0.000 A 
ENDBRANCH   1   2
BRANCH   1  10
ATOM     10  S   UNL     1       0.326  12.189  19.875  0.00  0.00    +0.000 S 
ATOM     11  O   UNL     1       1.617  11.979  20.502  0.00  0.00    +0.000 OA
ATOM     12  O   UNL     1       0.166  13.235  18.886  0.00  0.00    +0.000 OA
BRANCH  10  13
ATOM     13  C   UNL     1      -0.669  12.765  21.183  0.00  0.00    +0.000 A 
ATOM     14  C   UNL     1      -1.317  14.029  21.280  0.00  0.00    +0.000 A 
ATOM     15  C   UNL     1      -1.180  15.261  20.466  0.00  0.00    +0.000 C 
ATOM     16  N   UNL     1      -2.215  14.044  22.277  0.00  0.00    +0.000 NA
ATOM     17  N   UNL     1      -2.184  12.800  22.776  0.00  0.00    +0.000 N 
ATOM     18  C   UNL     1      -3.242  12.365  23.664  0.00  0.00    +0.000 C 
ATOM     19  C   UNL     1      -1.159  12.040  22.270  0.00  0.00    +0.000 A 
ATOM     20  C   UNL     1      -0.853  10.685  22.795  0.00  0.00    +0.000 C 
ENDBRANCH  10  13
ENDBRANCH   1  10
BRANCH   1  21
ATOM     21  C   UNL     1       0.584   9.525  19.233  0.00  0.00    +0.000 C 
BRANCH  21  23
ATOM     22  N   UNL     1       2.566   8.264  18.195  0.00  0.00    +0.000 N 
ATOM     23  C   UNL     1       1.751   9.360  18.270  0.00  0.00    +0.000 C 
ATOM     24  O   UNL     1       2.018  10.283  17.486  0.00  0.00    +0.000 OA
ATOM     25  H   UNL     1       3.227   8.363  17.442  0.00  0.00    +0.000 HD
BRANCH  22  31
ATOM     26  C   UNL     1       3.274   5.921  18.318  0.00  0.00    +0.000 A 
ATOM     27  C   UNL     1       3.226   4.681  18.975  0.00  0.00    +0.000 A 
ATOM     28  C   UNL     1       2.490   4.515  20.149  0.00  0.00    +0.000 A 
ATOM     29  C   UNL     1       1.845   5.607  20.701  0.00  0.00    +0.000 A 
ATOM     30  C   UNL     1       1.913   6.850  20.070  0.00  0.00    +0.000 A 
ATOM     31  C   UNL     1       2.569   7.021  18.851  0.00  0.00    +0.000 A 
BRANCH  26  32
ATOM     32  O   UNL     1       4.088   5.923  17.211  0.00  0.00    +0.000 OA
BRANCH  32  34
ATOM     33  C   UNL     1       5.899   4.751  16.153  0.00  0.00    +0.000 C 
ATOM     34  C   UNL     1       4.482   4.655  16.690  0.00  0.00    +0.000 C 
ENDBRANCH  32  34
ENDBRANCH  26  32
ENDBRANCH  22  31
ENDBRANCH  21  23
ENDBRANCH   1  21
TORSDOF 8
ENDMDL
MODEL 6
REMARK VINA RESULT:      -7.6      2.260      3.445
REMARK  Name = 
REMARK  14 active torsions:
REMARK  status: ('A' for Active; 'I' for Inactive)
REMARK    1  A    between atoms: C_1  and  C_2
REMARK    2  A    between atoms: C_2  and  O_3
REMARK    3  A    between atoms: O_3  and  C_4
REMARK    4  A    between atoms: C_9  and  N_10
REMARK    5  A    between atoms: C_11  and  C_13
REMARK    6  A    between atoms: C_13  and  N_14
REMARK    7  A    between atoms: N_14  and  C_15
REMARK    8  A    between atoms: N_14  and  S_23
REMARK    9  A    between atoms: C_17  and  C_18
REMARK   10  A    between atoms: C_20  and  C_21
REMARK   11  A    between atoms: S_23  and  C_26
REMARK   12  A    between atoms: C_27  and  C_28
REMARK   13  A    between atoms: N_30  and  C_31
REMARK   14  A    between atoms: C_32  and  C_33
REMARK                            x       y       z     vdW  Elec       q    Type
REMARK                         _______ _______ _______ _____ _____    ______ ____
ROOT
ATOM      1  N   UNL     1      -0.174  11.079  19.662  0.00  0.00    +0.000 N 
ENDROOT
BRANCH   1   2
ATOM      2  C   UNL     1      -1.381  11.136  18.897  0.00  0.00    +0.000 A 
ATOM      3  C   UNL     1      -2.474  11.851  19.382  0.00  0.00    +0.000 A 
ATOM      4  C   UNL     1      -3.705  11.792  18.716  0.00  0.00    +0.000 A 
ATOM      5  C   UNL     1      -4.932  12.413  19.313  0.00  0.00    +0.000 C 
ATOM      6  C   UNL     1      -3.801  11.099  17.500  0.00  0.00    +0.000 A 
ATOM      7  C   UNL     1      -2.698  10.421  16.973  0.00  0.00    +0.000 A 
ATOM      8  C   UNL     1      -2.791   9.748  15.633  0.00  0.00    +0.000 C 
ATOM      9  C   UNL     1      -1.498  10.413  17.701  0.00  0.00    +0.000 A 
ENDBRANCH   1   2
BRANCH   1  10
ATOM     10  S   UNL     1       0.234  12.426  20.605  0.00  0.00    +0.000 S 
ATOM     11  O   UNL     1      -0.878  12.798  21.457  0.00  0.00    +0.000 OA
ATOM     12  O   UNL     1       1.536  12.174  21.186  0.00  0.00    +0.000 OA
BRANCH  10  13
ATOM     13  C   UNL     1       0.522  13.865  19.666  0.00  0.00    +0.000 A 
ATOM     14  C   UNL     1      -0.144  15.117  19.785  0.00  0.00    +0.000 A 
ATOM     15  C   UNL     1      -1.362  15.508  20.533  0.00  0.00    +0.000 C 
ATOM     16  N   UNL     1       0.500  16.080  19.106  0.00  0.00    +0.000 NA
ATOM     17  N   UNL     1       1.585  15.471  18.606  0.00  0.00    +0.000 N 
ATOM     18  C   UNL     1       2.667  16.272  18.075  0.00  0.00    +0.000 C 
ATOM     19  C   UNL     1       1.563  14.108  18.770  0.00  0.00    +0.000 A 
ATOM     20  C   UNL     1       2.592  13.228  18.161  0.00  0.00    +0.000 C 
ENDBRANCH  10  13
ENDBRANCH   1  10
BRANCH   1  21
ATOM     21  C   UNL     1       0.738   9.928  19.562  0.00  0.00    +0.000 C 
BRANCH  21  23
ATOM     22  N   UNL     1       1.502   7.746  20.681  0.00  0.00    +0.000 N 
ATOM     23  C   UNL     1       0.852   8.950  20.723  0.00  0.00    +0.000 C 
ATOM     24  O   UNL     1       0.312   9.232  21.802  0.00  0.00    +0.000 OA
ATOM     25  H   UNL     1       1.492   7.306  21.586  0.00  0.00    +0.000 HD
BRANCH  22  31
ATOM     26  C   UNL     1       2.580   5.727  19.804  0.00  0.00    +0.000 A 
ATOM     27  C   UNL     1       3.376   5.115  18.823  0.00  0.00    +0.000 A 
ATOM     28  C   UNL     1       3.865   5.842  17.736  0.00  0.00    +0.000 A 
ATOM     29  C   UNL     1       3.509   7.172  17.598  0.00  0.00    +0.000 A 
ATOM     30  C   UNL     1       2.693   7.779  18.554  0.00  0.00    +0.000 A 
ATOM     31  C   UNL     1       2.264   7.099  19.694  0.00  0.00    +0.000 A 
BRANCH  26  32
ATOM     32  O   UNL     1       2.137   4.856  20.772  0.00  0.00    +0.000 OA
BRANCH  32  34
ATOM     33  C   UNL     1       1.747   2.668  21.684  0.00  0.00    +0.000 C 
ATOM     34  C   UNL     1       2.223   3.462  20.480  0.00  0.00    +0.000 C 
ENDBRANCH  32  34
ENDBRANCH  26  32
ENDBRANCH  22  31
ENDBRANCH  21  23
ENDBRANCH   1  21
TORSDOF 8
ENDMDL
MODEL 7
REMARK VINA RESULT:      -7.5      2.535      3.716
REMARK  Name = 
REMARK  14 active torsions:
REMARK  status: ('A' for Active; 'I' for Inactive)
REMARK    1  A    between atoms: C_1  and  C_2
REMARK    2  A    between atoms: C_2  and  O_3
REMARK    3  A    between atoms: O_3  and  C_4
REMARK    4  A    between atoms: C_9  and  N_10
REMARK    5  A    between atoms: C_11  and  C_13
REMARK    6  A    between atoms: C_13  and  N_14
REMARK    7  A    between atoms: N_14  and  C_15
REMARK    8  A    between atoms: N_14  and  S_23
REMARK    9  A    between atoms: C_17  and  C_18
REMARK   10  A    between atoms: C_20  and  C_21
REMARK   11  A    between atoms: S_23  and  C_26
REMARK   12  A    between atoms: C_27  and  C_28
REMARK   13  A    between atoms: N_30  and  C_31
REMARK   14  A    between atoms: C_32  and  C_33
REMARK                            x       y       z     vdW  Elec       q    Type
REMARK                         _______ _______ _______ _____ _____    ______ ____
ROOT
ATOM      1  N   UNL     1       0.485  11.763  19.816  0.00  0.00    +0.000 N 
ENDROOT
BRANCH   1   2
ATOM      2  C   UNL     1      -0.834  11.534  19.313  0.00  0.00    +0.000 A 
ATOM      3  C   UNL     1      -1.018  10.715  18.201  0.00  0.00    +0.000 A 
ATOM      4  C   UNL     1      -2.285  10.603  17.611  0.00  0.00    +0.000 A 
ATOM      5  C   UNL     1      -2.468   9.866  16.319  0.00  0.00    +0.000 C 
ATOM      6  C   UNL     1      -3.386  11.231  18.212  0.00  0.00    +0.000 A 
ATOM      7  C   UNL     1      -3.225  12.014  19.361  0.00  0.00    +0.000 A 
ATOM      8  C   UNL     1      -4.421  12.618  20.039  0.00  0.00    +0.000 C 
ATOM      9  C   UNL     1      -1.935  12.190  19.883  0.00  0.00    +0.000 A 
ENDBRANCH   1   2
BRANCH   1  10
ATOM     10  S   UNL     1       1.377  13.041  19.152  0.00  0.00    +0.000 S 
ATOM     11  O   UNL     1       2.552  12.534  18.470  0.00  0.00    +0.000 OA
ATOM     12  O   UNL     1       0.448  13.901  18.447  0.00  0.00    +0.000 OA
BRANCH  10  13
ATOM     13  C   UNL     1       2.038  14.118  20.351  0.00  0.00    +0.000 A 
ATOM     14  C   UNL     1       1.473  14.451  21.614  0.00  0.00    +0.000 A 
ATOM     15  C   UNL     1       0.129  14.189  22.182  0.00  0.00    +0.000 C 
ATOM     16  N   UNL     1       2.361  15.086  22.395  0.00  0.00    +0.000 NA
ATOM     17  N   UNL     1       3.489  15.112  21.670  0.00  0.00    +0.000 N 
ATOM     18  C   UNL     1       4.740  15.448  22.316  0.00  0.00    +0.000 C 
ATOM     19  C   UNL     1       3.308  14.696  20.374  0.00  0.00    +0.000 A 
ATOM     20  C   UNL     1       4.391  14.787  19.362  0.00  0.00    +0.000 C 
ENDBRANCH  10  13
ENDBRANCH   1  10
BRANCH   1  21
ATOM     21  C   UNL     1       1.090  10.861  20.808  0.00  0.00    +0.000 C 
BRANCH  21  23
ATOM     22  N   UNL     1       0.623   8.339  20.671  0.00  0.00    +0.000 N 
ATOM     23  C   UNL     1       0.374   9.576  21.200  0.00  0.00    +0.000 C 
ATOM     24  O   UNL     1      -0.524   9.625  22.054  0.00  0.00    +0.000 OA
ATOM     25  H   UNL     1       0.066   7.638  21.130  0.00  0.00    +0.000 HD
BRANCH  22  31
ATOM     26  C   UNL     1       2.182   6.604  19.920  0.00  0.00    +0.000 A 
ATOM     27  C   UNL     1       3.150   6.170  19.000  0.00  0.00    +0.000 A 
ATOM     28  C   UNL     1       3.516   6.964  17.911  0.00  0.00    +0.000 A 
ATOM     29  C   UNL     1       2.871   8.171  17.709  0.00  0.00    +0.000 A 
ATOM     30  C   UNL     1       1.887   8.595  18.603  0.00  0.00    +0.000 A 
ATOM     31  C   UNL     1       1.565   7.862  19.744  0.00  0.00    +0.000 A 
BRANCH  26  32
ATOM     32  O   UNL     1       1.901   5.678  20.896  0.00  0.00    +0.000 OA
BRANCH  32  34
ATOM     33  C   UNL     1       1.782   3.338  21.425  0.00  0.00    +0.000 C 
ATOM     34  C   UNL     1       1.342   4.436  20.473  0.00  0.00    +0.000 C 
ENDBRANCH  32  34
ENDBRANCH  26  32
ENDBRANCH  22  31
ENDBRANCH  21  23
ENDBRANCH   1  21
TORSDOF 8
ENDMDL
MODEL 8
REMARK VINA RESULT:      -7.5      3.095      9.360
REMARK  Name = 
REMARK  14 active torsions:
REMARK  status: ('A' for Active; 'I' for Inactive)
REMARK    1  A    between atoms: C_1  and  C_2
REMARK    2  A    between atoms: C_2  and  O_3
REMARK    3  A    between atoms: O_3  and  C_4
REMARK    4  A    between atoms: C_9  and  N_10
REMARK    5  A    between atoms: C_11  and  C_13
REMARK    6  A    between atoms: C_13  and  N_14
REMARK    7  A    between atoms: N_14  and  C_15
REMARK    8  A    between atoms: N_14  and  S_23
REMARK    9  A    between atoms: C_17  and  C_18
REMARK   10  A    between atoms: C_20  and  C_21
REMARK   11  A    between atoms: S_23  and  C_26
REMARK   12  A    between atoms: C_27  and  C_28
REMARK   13  A    between atoms: N_30  and  C_31
REMARK   14  A    between atoms: C_32  and  C_33
REMARK                            x       y       z     vdW  Elec       q    Type
REMARK                         _______ _______ _______ _____ _____    ______ ____
ROOT
ATOM      1  N   UNL     1       2.939   6.161  19.009  0.00  0.00    +0.000 N 
ENDROOT
BRANCH   1   2
ATOM      2  C   UNL     1       4.221   6.055  18.384  0.00  0.00    +0.000 A 
ATOM      3  C   UNL     1       4.315   6.045  16.995  0.00  0.00    +0.000 A 
ATOM      4  C   UNL     1       5.547   5.794  16.375  0.00  0.00    +0.000 A 
ATOM      5  C   UNL     1       5.636   5.611  14.889  0.00  0.00    +0.000 C 
ATOM      6  C   UNL     1       6.702   5.662  17.159  0.00  0.00    +0.000 A 
ATOM      7  C   UNL     1       6.632   5.723  18.554  0.00  0.00    +0.000 A 
ATOM      8  C   UNL     1       7.885   5.658  19.380  0.00  0.00    +0.000 C 
ATOM      9  C   UNL     1       5.377   5.882  19.161  0.00  0.00    +0.000 A 
ENDBRANCH   1   2
BRANCH   1  10
ATOM     10  S   UNL     1       1.930   4.800  18.985  0.00  0.00    +0.000 S 
ATOM     11  O   UNL     1       0.991   4.851  20.088  0.00  0.00    +0.000 OA
ATOM     12  O   UNL     1       1.444   4.641  17.630  0.00  0.00    +0.000 OA
BRANCH  10  13
ATOM     13  C   UNL     1       2.782   3.304  19.248  0.00  0.00    +0.000 A 
ATOM     14  C   UNL     1       3.524   2.556  18.291  0.00  0.00    +0.000 A 
ATOM     15  C   UNL     1       3.617   2.677  16.817  0.00  0.00    +0.000 C 
ATOM     16  N   UNL     1       4.271   1.610  18.882  0.00  0.00    +0.000 NA
ATOM     17  N   UNL     1       4.056   1.781  20.194  0.00  0.00    +0.000 N 
ATOM     18  C   UNL     1       4.934   1.137  21.147  0.00  0.00    +0.000 C 
ATOM     19  C   UNL     1       3.045   2.671  20.464  0.00  0.00    +0.000 A 
ATOM     20  C   UNL     1       2.545   2.896  21.844  0.00  0.00    +0.000 C 
ENDBRANCH  10  13
ENDBRANCH   1  10
BRANCH   1  21
ATOM     21  C   UNL     1       2.466   7.436  19.570  0.00  0.00    +0.000 C 
BRANCH  21  23
ATOM     22  N   UNL     1       0.946   9.439  19.046  0.00  0.00    +0.000 N 
ATOM     23  C   UNL     1       1.842   8.480  18.656  0.00  0.00    +0.000 C 
ATOM     24  O   UNL     1       2.138   8.480  17.452  0.00  0.00    +0.000 OA
ATOM     25  H   UNL     1       0.723  10.049  18.278  0.00  0.00    +0.000 HD
BRANCH  22  31
ATOM     26  C   UNL     1       0.200  11.156  20.626  0.00  0.00    +0.000 A 
ATOM     27  C   UNL     1      -0.303  11.491  21.894  0.00  0.00    +0.000 A 
ATOM     28  C   UNL     1      -0.601  10.503  22.834  0.00  0.00    +0.000 A 
ATOM     29  C   UNL     1      -0.451   9.173  22.486  0.00  0.00    +0.000 A 
ATOM     30  C   UNL     1       0.020   8.832  21.217  0.00  0.00    +0.000 A 
ATOM     31  C   UNL     1       0.407   9.801  20.292  0.00  0.00    +0.000 A 
BRANCH  26  32
ATOM     32  O   UNL     1       0.384  12.244  19.806  0.00  0.00    +0.000 OA
BRANCH  32  34
ATOM     33  C   UNL     1      -0.581  14.425  19.513  0.00  0.00    +0.000 C 
ATOM     34  C   UNL     1      -0.786  12.928  19.359  0.00  0.00    +0.000 C 
ENDBRANCH  32  34
ENDBRANCH  26  32
ENDBRANCH  22  31
ENDBRANCH  21  23
ENDBRANCH   1  21
TORSDOF 8
ENDMDL
MODEL 9
REMARK VINA RESULT:      -7.5      2.057      3.504
REMARK  Name = 
REMARK  14 active torsions:
REMARK  status: ('A' for Active; 'I' for Inactive)
REMARK    1  A    between atoms: C_1  and  C_2
REMARK    2  A    between atoms: C_2  and  O_3
REMARK    3  A    between atoms: O_3  and  C_4
REMARK    4  A    between atoms: C_9  and  N_10
REMARK    5  A    between atoms: C_11  and  C_13
REMARK    6  A    between atoms: C_13  and  N_14
REMARK    7  A    between atoms: N_14  and  C_15
REMARK    8  A    between atoms: N_14  and  S_23
REMARK    9  A    between atoms: C_17  and  C_18
REMARK   10  A    between atoms: C_20  and  C_21
REMARK   11  A    between atoms: S_23  and  C_26
REMARK   12  A    between atoms: C_27  and  C_28
REMARK   13  A    between atoms: N_30  and  C_31
REMARK   14  A    between atoms: C_32  and  C_33
REMARK                            x       y       z     vdW  Elec       q    Type
REMARK                         _______ _______ _______ _____ _____    ______ ____
ROOT
ATOM      1  N   UNL     1      -0.080  10.897  19.993  0.00  0.00    +0.000 N 
ENDROOT
BRANCH   1   2
ATOM      2  C   UNL     1      -1.300  11.000  19.251  0.00  0.00    +0.000 A 
ATOM      3  C   UNL     1      -1.405  10.386  18.005  0.00  0.00    +0.000 A 
ATOM      4  C   UNL     1      -2.536  10.603  17.207  0.00  0.00    +0.000 A 
ATOM      5  C   UNL     1      -2.593  10.091  15.799  0.00  0.00    +0.000 C 
ATOM      6  C   UNL     1      -3.608  11.351  17.715  0.00  0.00    +0.000 A 
ATOM      7  C   UNL     1      -3.539  11.930  18.987  0.00  0.00    +0.000 A 
ATOM      8  C   UNL     1      -4.722  12.663  19.551  0.00  0.00    +0.000 C 
ATOM      9  C   UNL     1      -2.361  11.780  19.734  0.00  0.00    +0.000 A 
ENDBRANCH   1   2
BRANCH   1  10
ATOM     10  S   UNL     1       0.322  12.169  21.036  0.00  0.00    +0.000 S 
ATOM     11  O   UNL     1      -0.668  12.289  22.089  0.00  0.00    +0.000 OA
ATOM     12  O   UNL     1       1.723  12.028  21.376  0.00  0.00    +0.000 OA
BRANCH  10  13
ATOM     13  C   UNL     1       0.286  13.732  20.268  0.00  0.00    +0.000 A 
ATOM     14  C   UNL     1       0.849  14.085  19.009  0.00  0.00    +0.000 A 
ATOM     15  C   UNL     1       1.778  13.353  18.115  0.00  0.00    +0.000 C 
ATOM     16  N   UNL     1       0.410  15.284  18.596  0.00  0.00    +0.000 NA
ATOM     17  N   UNL     1      -0.459  15.669  19.541  0.00  0.00    +0.000 N 
ATOM     18  C   UNL     1      -1.356  16.773  19.275  0.00  0.00    +0.000 C 
ATOM     19  C   UNL     1      -0.448  14.856  20.648  0.00  0.00    +0.000 A 
ATOM     20  C   UNL     1      -1.223  15.184  21.871  0.00  0.00    +0.000 C 
ENDBRANCH  10  13
ENDBRANCH   1  10
BRANCH   1  21
ATOM     21  C   UNL     1       0.845   9.772  19.787  0.00  0.00    +0.000 C 
BRANCH  21  23
ATOM     22  N   UNL     1       1.626   7.514  20.729  0.00  0.00    +0.000 N 
ATOM     23  C   UNL     1       1.036   8.738  20.888  0.00  0.00    +0.000 C 
ATOM     24  O   UNL     1       0.621   8.991  22.029  0.00  0.00    +0.000 OA
ATOM     25  H   UNL     1       1.690   7.034  21.611  0.00  0.00    +0.000 HD
BRANCH  22  31
ATOM     26  C   UNL     1       2.193   5.482  19.482  0.00  0.00    +0.000 A 
ATOM     27  C   UNL     1       2.864   4.875  18.409  0.00  0.00    +0.000 A 
ATOM     28  C   UNL     1       3.594   5.635  17.493  0.00  0.00    +0.000 A 
ATOM     29  C   UNL     1       3.606   7.013  17.617  0.00  0.00    +0.000 A 
ATOM     30  C   UNL     1       2.917   7.625  18.665  0.00  0.00    +0.000 A 
ATOM     31  C   UNL     1       2.254   6.883  19.642  0.00  0.00    +0.000 A 
BRANCH  26  32
ATOM     32  O   UNL     1       1.478   4.596  20.253  0.00  0.00    +0.000 OA
BRANCH  32  34
ATOM     33  C   UNL     1       1.505   2.635  21.640  0.00  0.00    +0.000 C 
ATOM     34  C   UNL     1       2.170   3.964  21.328  0.00  0.00    +0.000 C 
ENDBRANCH  32  34
ENDBRANCH  26  32
ENDBRANCH  22  31
ENDBRANCH  21  23
ENDBRANCH   1  21
TORSDOF 8
ENDMDL
