MODEL 1
REMARK VINA RESULT:      -6.3      0.000      0.000
REMARK  Name = 
REMARK  1 active torsions:
REMARK  status: ('A' for Active; 'I' for Inactive)
REMARK    1  A    between atoms: C_5  and  C_6
REMARK                            x       y       z     vdW  Elec       q    Type
REMARK                         _______ _______ _______ _____ _____    ______ ____
ROOT
ATOM      1  O   UNL     1       7.977   4.304  16.089  0.00  0.00    +0.000 OA
ATOM      2  C   UNL     1       6.766   4.410  16.224  0.00  0.00    +0.000 C 
ATOM      3  C   UNL     1       5.789   3.523  15.484  0.00  0.00    +0.000 C 
ATOM      4  S   UNL     1       4.117   4.042  15.926  0.00  0.00    +0.000 S 
ATOM      5  C   UNL     1       4.700   5.493  16.844  0.00  0.00    +0.000 C 
ATOM      6  N   UNL     1       6.122   5.335  17.041  0.00  0.00    +0.000 N 
ATOM      7  C   UNL     1       6.851   6.438  17.515  0.00  0.00    +0.000 A 
ATOM      8  C   UNL     1       7.694   6.254  18.605  0.00  0.00    +0.000 A 
ATOM      9  C   UNL     1       8.388   7.353  19.109  0.00  0.00    +0.000 A 
ATOM     10  C   UNL     1       8.255   8.581  18.476  0.00  0.00    +0.000 A 
ATOM     11 BR   UNL     1       9.221  10.082  19.078  0.00  0.00    +0.000 Br
ATOM     12  C   UNL     1       7.397   8.675  17.391  0.00  0.00    +0.000 A 
ATOM     13  N   UNL     1       6.656   7.643  16.924  0.00  0.00    +0.000 NA
ENDROOT
BRANCH   5  14
ATOM     14  C   UNL     1       3.953   5.723  18.153  0.00  0.00    +0.000 A 
ATOM     15  C   UNL     1       3.193   6.889  18.410  0.00  0.00    +0.000 A 
ATOM     16 CL   UNL     1       3.094   8.224  17.310  0.00  0.00    +0.000 Cl
ATOM     17  C   UNL     1       2.434   7.026  19.583  0.00  0.00    +0.000 A 
ATOM     18  C   UNL     1       2.401   6.006  20.526  0.00  0.00    +0.000 A 
ATOM     19  C   UNL     1       3.143   4.853  20.303  0.00  0.00    +0.000 A 
ATOM     20  C   UNL     1       3.919   4.717  19.142  0.00  0.00    +0.000 A 
ATOM     21 CL   UNL     1       4.809   3.236  19.005  0.00  0.00    +0.000 Cl
ENDBRANCH   5  14
TORSDOF 1
ENDMDL
MODEL 2
REMARK VINA RESULT:      -5.9      8.641     10.541
REMARK  Name = 
REMARK  1 active torsions:
REMARK  status: ('A' for Active; 'I' for Inactive)
REMARK    1  A    between atoms: C_5  and  C_6
REMARK                            x       y       z     vdW  Elec       q    Type
REMARK                         _______ _______ _______ _____ _____    ______ ____
ROOT
ATOM      1  O   UNL     1      -1.350  15.435  19.619  0.00  0.00    +0.000 OA
ATOM      2  C   UNL     1      -0.546  14.547  19.866  0.00  0.00    +0.000 C 
ATOM      3  C   UNL     1       0.935  14.816  20.024  0.00  0.00    +0.000 C 
ATOM      4  S   UNL     1       1.761  13.240  20.326  0.00  0.00    +0.000 S 
ATOM      5  C   UNL     1       0.257  12.275  20.019  0.00  0.00    +0.000 C 
ATOM      6  N   UNL     1      -0.855  13.198  20.022  0.00  0.00    +0.000 N 
ATOM      7  C   UNL     1      -2.100  12.735  19.569  0.00  0.00    +0.000 A 
ATOM      8  C   UNL     1      -3.217  12.952  20.369  0.00  0.00    +0.000 A 
ATOM      9  C   UNL     1      -4.450  12.457  19.947  0.00  0.00    +0.000 A 
ATOM     10  C   UNL     1      -4.532  11.811  18.721  0.00  0.00    +0.000 A 
ATOM     11 BR   UNL     1      -6.186  11.181  18.075  0.00  0.00    +0.000 Br
ATOM     12  C   UNL     1      -3.370  11.642  17.984  0.00  0.00    +0.000 A 
ATOM     13  N   UNL     1      -2.147  12.049  18.400  0.00  0.00    +0.000 NA
ENDROOT
BRANCH   5  14
ATOM     14  C   UNL     1       0.062  11.127  21.002  0.00  0.00    +0.000 A 
ATOM     15  C   UNL     1      -0.450  11.311  22.310  0.00  0.00    +0.000 A 
ATOM     16 CL   UNL     1      -0.829  12.866  22.973  0.00  0.00    +0.000 Cl
ATOM     17  C   UNL     1      -0.714  10.221  23.154  0.00  0.00    +0.000 A 
ATOM     18  C   UNL     1      -0.488   8.921  22.721  0.00  0.00    +0.000 A 
ATOM     19  C   UNL     1       0.021   8.711  21.446  0.00  0.00    +0.000 A 
ATOM     20  C   UNL     1       0.306   9.796  20.602  0.00  0.00    +0.000 A 
ATOM     21 CL   UNL     1       0.955   9.386  19.048  0.00  0.00    +0.000 Cl
ENDBRANCH   5  14
TORSDOF 1
ENDMDL
MODEL 3
REMARK VINA RESULT:      -5.7      8.419      9.938
REMARK  Name = 
REMARK  1 active torsions:
REMARK  status: ('A' for Active; 'I' for Inactive)
REMARK    1  A    between atoms: C_5  and  C_6
REMARK                            x       y       z     vdW  Elec       q    Type
REMARK                         _______ _______ _______ _____ _____    ______ ____
ROOT
ATOM      1  O   UNL     1      -0.342  15.293  22.813  0.00  0.00    +0.000 OA
ATOM      2  C   UNL     1      -0.691  14.145  22.578  0.00  0.00    +0.000 C 
ATOM      3  C   UNL     1      -1.471  13.316  23.574  0.00  0.00    +0.000 C 
ATOM      4  S   UNL     1      -1.733  11.680  22.857  0.00  0.00    +0.000 S 
ATOM      5  C   UNL     1      -0.664  12.020  21.433  0.00  0.00    +0.000 C 
ATOM      6  N   UNL     1      -0.424  13.445  21.405  0.00  0.00    +0.000 N 
ATOM      7  C   UNL     1       0.568  13.931  20.539  0.00  0.00    +0.000 A 
ATOM      8  C   UNL     1       0.244  14.982  19.687  0.00  0.00    +0.000 A 
ATOM      9  C   UNL     1       1.211  15.443  18.794  0.00  0.00    +0.000 A 
ATOM     10  C   UNL     1       2.477  14.874  18.820  0.00  0.00    +0.000 A 
ATOM     11 BR   UNL     1       3.837  15.504  17.679  0.00  0.00    +0.000 Br
ATOM     12  C   UNL     1       2.716  13.834  19.705  0.00  0.00    +0.000 A 
ATOM     13  N   UNL     1       1.777  13.318  20.534  0.00  0.00    +0.000 NA
ENDROOT
BRANCH   5  14
ATOM     14  C   UNL     1      -1.225  11.498  20.115  0.00  0.00    +0.000 A 
ATOM     15  C   UNL     1      -2.426  11.984  19.543  0.00  0.00    +0.000 A 
ATOM     16 CL   UNL     1      -3.439  13.160  20.313  0.00  0.00    +0.000 Cl
ATOM     17  C   UNL     1      -2.861  11.556  18.279  0.00  0.00    +0.000 A 
ATOM     18  C   UNL     1      -2.114  10.644  17.545  0.00  0.00    +0.000 A 
ATOM     19  C   UNL     1      -0.935  10.145  18.085  0.00  0.00    +0.000 A 
ATOM     20  C   UNL     1      -0.502  10.553  19.356  0.00  0.00    +0.000 A 
ATOM     21 CL   UNL     1       0.973   9.833  19.912  0.00  0.00    +0.000 Cl
ENDBRANCH   5  14
TORSDOF 1
ENDMDL
MODEL 4
REMARK VINA RESULT:      -5.7      8.756     10.821
REMARK  Name = 
REMARK  1 active torsions:
REMARK  status: ('A' for Active; 'I' for Inactive)
REMARK    1  A    between atoms: C_5  and  C_6
REMARK                            x       y       z     vdW  Elec       q    Type
REMARK                         _______ _______ _______ _____ _____    ______ ____
ROOT
ATOM      1  O   UNL     1       8.534  18.590  19.091  0.00  0.00    +0.000 OA
ATOM      2  C   UNL     1       9.106  17.654  18.551  0.00  0.00    +0.000 C 
ATOM      3  C   UNL     1      10.191  17.856  17.516  0.00  0.00    +0.000 C 
ATOM      4  S   UNL     1      10.726  16.231  16.942  0.00  0.00    +0.000 S 
ATOM      5  C   UNL     1       9.419  15.364  17.851  0.00  0.00    +0.000 C 
ATOM      6  N   UNL     1       8.850  16.306  18.788  0.00  0.00    +0.000 N 
ATOM      7  C   UNL     1       7.660  15.951  19.442  0.00  0.00    +0.000 A 
ATOM      8  C   UNL     1       7.605  16.072  20.827  0.00  0.00    +0.000 A 
ATOM      9  C   UNL     1       6.441  15.681  21.488  0.00  0.00    +0.000 A 
ATOM     10  C   UNL     1       5.361  15.232  20.742  0.00  0.00    +0.000 A 
ATOM     11 BR   UNL     1       3.745  14.753  21.582  0.00  0.00    +0.000 Br
ATOM     12  C   UNL     1       5.499  15.147  19.365  0.00  0.00    +0.000 A 
ATOM     13  N   UNL     1       6.640  15.452  18.701  0.00  0.00    +0.000 NA
ENDROOT
BRANCH   5  14
ATOM     14  C   UNL     1       9.896  14.085  18.529  0.00  0.00    +0.000 A 
ATOM     15  C   UNL     1       9.334  12.814  18.256  0.00  0.00    +0.000 A 
ATOM     16 CL   UNL     1       7.988  12.577  17.192  0.00  0.00    +0.000 Cl
ATOM     17  C   UNL     1       9.864  11.643  18.819  0.00  0.00    +0.000 A 
ATOM     18  C   UNL     1      10.969  11.699  19.659  0.00  0.00    +0.000 A 
ATOM     19  C   UNL     1      11.536  12.933  19.950  0.00  0.00    +0.000 A 
ATOM     20  C   UNL     1      11.001  14.111  19.406  0.00  0.00    +0.000 A 
ATOM     21 CL   UNL     1      11.796  15.579  19.871  0.00  0.00    +0.000 Cl
ENDBRANCH   5  14
TORSDOF 1
ENDMDL
MODEL 5
REMARK VINA RESULT:      -5.6      3.665      5.370
REMARK  Name = 
REMARK  1 active torsions:
REMARK  status: ('A' for Active; 'I' for Inactive)
REMARK    1  A    between atoms: C_5  and  C_6
REMARK                            x       y       z     vdW  Elec       q    Type
REMARK                         _______ _______ _______ _____ _____    ______ ____
ROOT
ATOM      1  O   UNL     1       0.760   3.684  19.832  0.00  0.00    +0.000 OA
ATOM      2  C   UNL     1       1.954   3.447  19.722  0.00  0.00    +0.000 C 
ATOM      3  C   UNL     1       2.575   2.167  20.238  0.00  0.00    +0.000 C 
ATOM      4  S   UNL     1       4.351   2.240  19.924  0.00  0.00    +0.000 S 
ATOM      5  C   UNL     1       4.285   3.963  19.363  0.00  0.00    +0.000 C 
ATOM      6  N   UNL     1       2.895   4.290  19.138  0.00  0.00    +0.000 N 
ATOM      7  C   UNL     1       2.557   5.636  18.930  0.00  0.00    +0.000 A 
ATOM      8  C   UNL     1       1.773   5.958  17.828  0.00  0.00    +0.000 A 
ATOM      9  C   UNL     1       1.468   7.298  17.590  0.00  0.00    +0.000 A 
ATOM     10  C   UNL     1       1.914   8.259  18.487  0.00  0.00    +0.000 A 
ATOM     11 BR   UNL     1       1.476  10.075  18.246  0.00  0.00    +0.000 Br
ATOM     12  C   UNL     1       2.687   7.850  19.563  0.00  0.00    +0.000 A 
ATOM     13  N   UNL     1       3.058   6.566  19.781  0.00  0.00    +0.000 NA
ENDROOT
BRANCH   5  14
ATOM     14  C   UNL     1       5.153   4.238  18.140  0.00  0.00    +0.000 A 
ATOM     15  C   UNL     1       6.404   4.895  18.216  0.00  0.00    +0.000 A 
ATOM     16 CL   UNL     1       7.053   5.541  19.687  0.00  0.00    +0.000 Cl
ATOM     17  C   UNL     1       7.225   5.041  17.087  0.00  0.00    +0.000 A 
ATOM     18  C   UNL     1       6.832   4.530  15.857  0.00  0.00    +0.000 A 
ATOM     19  C   UNL     1       5.606   3.887  15.751  0.00  0.00    +0.000 A 
ATOM     20  C   UNL     1       4.771   3.753  16.871  0.00  0.00    +0.000 A 
ATOM     21 CL   UNL     1       3.262   2.948  16.588  0.00  0.00    +0.000 Cl
ENDBRANCH   5  14
TORSDOF 1
ENDMDL
MODEL 6
REMARK VINA RESULT:      -5.6      8.545      9.901
REMARK  Name = 
REMARK  1 active torsions:
REMARK  status: ('A' for Active; 'I' for Inactive)
REMARK    1  A    between atoms: C_5  and  C_6
REMARK                            x       y       z     vdW  Elec       q    Type
REMARK                         _______ _______ _______ _____ _____    ______ ____
ROOT
ATOM      1  O   UNL     1      10.688  15.919  16.740  0.00  0.00    +0.000 OA
ATOM      2  C   UNL     1      10.952  15.077  17.586  0.00  0.00    +0.000 C 
ATOM      3  C   UNL     1      12.333  14.476  17.726  0.00  0.00    +0.000 C 
ATOM      4  S   UNL     1      12.278  13.248  19.048  0.00  0.00    +0.000 S 
ATOM      5  C   UNL     1      10.478  13.369  19.225  0.00  0.00    +0.000 C 
ATOM      6  N   UNL     1      10.053  14.551  18.510  0.00  0.00    +0.000 N 
ATOM      7  C   UNL     1       8.679  14.735  18.293  0.00  0.00    +0.000 A 
ATOM      8  C   UNL     1       8.114  15.960  18.634  0.00  0.00    +0.000 A 
ATOM      9  C   UNL     1       6.742  16.136  18.462  0.00  0.00    +0.000 A 
ATOM     10  C   UNL     1       5.994  15.104  17.911  0.00  0.00    +0.000 A 
ATOM     11 BR   UNL     1       4.149  15.316  17.599  0.00  0.00    +0.000 Br
ATOM     12  C   UNL     1       6.638  13.918  17.595  0.00  0.00    +0.000 A 
ATOM     13  N   UNL     1       7.955  13.692  17.816  0.00  0.00    +0.000 NA
ENDROOT
BRANCH   5  14
ATOM     14  C   UNL     1      10.009  13.367  20.675  0.00  0.00    +0.000 A 
ATOM     15  C   UNL     1      10.100  14.503  21.515  0.00  0.00    +0.000 A 
ATOM     16 CL   UNL     1      10.832  15.995  21.023  0.00  0.00    +0.000 Cl
ATOM     17  C   UNL     1       9.566  14.500  22.813  0.00  0.00    +0.000 A 
ATOM     18  C   UNL     1       8.920  13.375  23.309  0.00  0.00    +0.000 A 
ATOM     19  C   UNL     1       8.822  12.243  22.509  0.00  0.00    +0.000 A 
ATOM     20  C   UNL     1       9.370  12.231  21.217  0.00  0.00    +0.000 A 
ATOM     21 CL   UNL     1       9.192  10.746  20.342  0.00  0.00    +0.000 Cl
ENDBRANCH   5  14
TORSDOF 1
ENDMDL
MODEL 7
REMARK VINA RESULT:      -5.6      3.642      5.362
REMARK  Name = 
REMARK  1 active torsions:
REMARK  status: ('A' for Active; 'I' for Inactive)
REMARK    1  A    between atoms: C_5  and  C_6
REMARK                            x       y       z     vdW  Elec       q    Type
REMARK                         _______ _______ _______ _____ _____    ______ ____
ROOT
ATOM      1  O   UNL     1       0.787   3.693  19.885  0.00  0.00    +0.000 OA
ATOM      2  C   UNL     1       1.979   3.451  19.760  0.00  0.00    +0.000 C 
ATOM      3  C   UNL     1       2.606   2.179  20.288  0.00  0.00    +0.000 C 
ATOM      4  S   UNL     1       4.377   2.243  19.942  0.00  0.00    +0.000 S 
ATOM      5  C   UNL     1       4.304   3.956  19.352  0.00  0.00    +0.000 C 
ATOM      6  N   UNL     1       2.911   4.281  19.145  0.00  0.00    +0.000 N 
ATOM      7  C   UNL     1       2.572   5.624  18.919  0.00  0.00    +0.000 A 
ATOM      8  C   UNL     1       1.770   5.928  17.824  0.00  0.00    +0.000 A 
ATOM      9  C   UNL     1       1.463   7.264  17.568  0.00  0.00    +0.000 A 
ATOM     10  C   UNL     1       1.926   8.241  18.440  0.00  0.00    +0.000 A 
ATOM     11 BR   UNL     1       1.487  10.053  18.175  0.00  0.00    +0.000 Br
ATOM     12  C   UNL     1       2.716   7.849  19.510  0.00  0.00    +0.000 A 
ATOM     13  N   UNL     1       3.089   6.568  19.744  0.00  0.00    +0.000 NA
ENDROOT
BRANCH   5  14
ATOM     14  C   UNL     1       5.151   4.207  18.109  0.00  0.00    +0.000 A 
ATOM     15  C   UNL     1       4.744   3.821  16.810  0.00  0.00    +0.000 A 
ATOM     16 CL   UNL     1       3.284   2.944  16.490  0.00  0.00    +0.000 Cl
ATOM     17  C   UNL     1       5.499   4.157  15.675  0.00  0.00    +0.000 A 
ATOM     18  C   UNL     1       6.670   4.893  15.798  0.00  0.00    +0.000 A 
ATOM     19  C   UNL     1       7.098   5.279  17.062  0.00  0.00    +0.000 A 
ATOM     20  C   UNL     1       6.359   4.931  18.203  0.00  0.00    +0.000 A 
ATOM     21 CL   UNL     1       7.021   5.460  19.715  0.00  0.00    +0.000 Cl
ENDBRANCH   5  14
TORSDOF 1
ENDMDL
MODEL 8
REMARK VINA RESULT:      -5.5      8.307     10.609
REMARK  Name = 
REMARK  1 active torsions:
REMARK  status: ('A' for Active; 'I' for Inactive)
REMARK    1  A    between atoms: C_5  and  C_6
REMARK                            x       y       z     vdW  Elec       q    Type
REMARK                         _______ _______ _______ _____ _____    ______ ____
ROOT
ATOM      1  O   UNL     1       8.550  11.077  18.567  0.00  0.00    +0.000 OA
ATOM      2  C   UNL     1       9.525  11.742  18.887  0.00  0.00    +0.000 C 
ATOM      3  C   UNL     1      10.851  11.110  19.251  0.00  0.00    +0.000 C 
ATOM      4  S   UNL     1      11.994  12.431  19.705  0.00  0.00    +0.000 S 
ATOM      5  C   UNL     1      10.707  13.707  19.641  0.00  0.00    +0.000 C 
ATOM      6  N   UNL     1       9.563  13.131  18.973  0.00  0.00    +0.000 N 
ATOM      7  C   UNL     1       8.350  13.837  19.011  0.00  0.00    +0.000 A 
ATOM      8  C   UNL     1       7.677  14.058  17.814  0.00  0.00    +0.000 A 
ATOM      9  C   UNL     1       6.494  14.795  17.837  0.00  0.00    +0.000 A 
ATOM     10  C   UNL     1       6.001  15.241  19.056  0.00  0.00    +0.000 A 
ATOM     11 BR   UNL     1       4.375  16.186  19.148  0.00  0.00    +0.000 Br
ATOM     12  C   UNL     1       6.734  14.972  20.202  0.00  0.00    +0.000 A 
ATOM     13  N   UNL     1       7.921  14.320  20.203  0.00  0.00    +0.000 NA
ENDROOT
BRANCH   5  14
ATOM     14  C   UNL     1      11.171  15.004  18.988  0.00  0.00    +0.000 A 
ATOM     15  C   UNL     1      11.462  15.109  17.607  0.00  0.00    +0.000 A 
ATOM     16 CL   UNL     1      11.413  13.762  16.519  0.00  0.00    +0.000 Cl
ATOM     17  C   UNL     1      11.787  16.341  17.017  0.00  0.00    +0.000 A 
ATOM     18  C   UNL     1      11.821  17.501  17.780  0.00  0.00    +0.000 A 
ATOM     19  C   UNL     1      11.547  17.427  19.139  0.00  0.00    +0.000 A 
ATOM     20  C   UNL     1      11.239  16.197  19.740  0.00  0.00    +0.000 A 
ATOM     21 CL   UNL     1      10.939  16.250  21.446  0.00  0.00    +0.000 Cl
ENDBRANCH   5  14
TORSDOF 1
ENDMDL
MODEL 9
REMARK VINA RESULT:      -5.5      8.613      9.852
REMARK  Name = 
REMARK  1 active torsions:
REMARK  status: ('A' for Active; 'I' for Inactive)
REMARK    1  A    between atoms: C_5  and  C_6
REMARK                            x       y       z     vdW  Elec       q    Type
REMARK                         _______ _______ _______ _____ _____    ______ ____
ROOT
ATOM      1  O   UNL     1      11.750  11.818  20.383  0.00  0.00    +0.000 OA
ATOM      2  C   UNL     1      11.354  12.727  19.668  0.00  0.00    +0.000 C 
ATOM      3  C   UNL     1      12.088  13.149  18.414  0.00  0.00    +0.000 C 
ATOM      4  S   UNL     1      11.203  14.547  17.692  0.00  0.00    +0.000 S 
ATOM      5  C   UNL     1      10.077  14.697  19.105  0.00  0.00    +0.000 C 
ATOM      6  N   UNL     1      10.215  13.495  19.895  0.00  0.00    +0.000 N 
ATOM      7  C   UNL     1       9.628  13.470  21.169  0.00  0.00    +0.000 A 
ATOM      8  C   UNL     1       8.812  12.393  21.500  0.00  0.00    +0.000 A 
ATOM      9  C   UNL     1       8.190  12.381  22.748  0.00  0.00    +0.000 A 
ATOM     10  C   UNL     1       8.445  13.417  23.637  0.00  0.00    +0.000 A 
ATOM     11 BR   UNL     1       7.681  13.416  25.358  0.00  0.00    +0.000 Br
ATOM     12  C   UNL     1       9.275  14.449  23.227  0.00  0.00    +0.000 A 
ATOM     13  N   UNL     1       9.836  14.523  21.997  0.00  0.00    +0.000 NA
ENDROOT
BRANCH   5  14
ATOM     14  C   UNL     1       8.631  14.966  18.702  0.00  0.00    +0.000 A 
ATOM     15  C   UNL     1       7.839  14.024  18.003  0.00  0.00    +0.000 A 
ATOM     16 CL   UNL     1       8.442  12.498  17.448  0.00  0.00    +0.000 Cl
ATOM     17  C   UNL     1       6.481  14.261  17.738  0.00  0.00    +0.000 A 
ATOM     18  C   UNL     1       5.872  15.433  18.168  0.00  0.00    +0.000 A 
ATOM     19  C   UNL     1       6.627  16.379  18.849  0.00  0.00    +0.000 A 
ATOM     20  C   UNL     1       7.990  16.158  19.102  0.00  0.00    +0.000 A 
ATOM     21 CL   UNL     1       8.812  17.431  19.943  0.00  0.00    +0.000 Cl
ENDBRANCH   5  14
TORSDOF 1
ENDMDL
