MODEL 1
REMARK VINA RESULT:      -7.8      0.000      0.000
REMARK  Name = 
REMARK  9 active torsions:
REMARK  status: ('A' for Active; 'I' for Inactive)
REMARK    1  A    between atoms: C_1  and  C_2
REMARK    2  A    between atoms: C_2  and  C_3
REMARK    3  A    between atoms: N_13  and  C_14
REMARK    4  A    between atoms: C_14  and  C_15
REMARK    5  A    between atoms: C_15  and  O_16
REMARK    6  A    between atoms: C_15  and  C_17
REMARK    7  A    between atoms: C_17  and  N_18
REMARK    8  A    between atoms: N_21  and  C_22
REMARK    9  A    between atoms: C_22  and  C_23
REMARK                            x       y       z     vdW  Elec       q    Type
REMARK                         _______ _______ _______ _____ _____    ______ ____
ROOT
ATOM      1  C   UNL     1       0.897   4.325  20.099  0.00  0.00    +0.000 C 
ENDROOT
BRANCH   1   7
ATOM      2  C   UNL     1       4.209   1.307  17.985  0.00  0.00    +0.000 C 
ATOM      3  C   UNL     1       3.692   2.733  18.129  0.00  0.00    +0.000 C 
ATOM      4  N   UNL     1       2.626   3.031  17.194  0.00  0.00    +0.000 N 
ATOM      5  C   UNL     1       1.624   3.761  17.781  0.00  0.00    +0.000 C 
ATOM      6  O   UNL     1       0.719   4.292  17.147  0.00  0.00    +0.000 OA
ATOM      7  N   UNL     1       1.796   3.733  19.130  0.00  0.00    +0.000 N 
ATOM      8  C   UNL     1       2.870   2.938  19.427  0.00  0.00    +0.000 C 
ATOM      9  O   UNL     1       3.170   2.526  20.545  0.00  0.00    +0.000 OA
ATOM     10  H   UNL     1       2.712   3.048  16.188  0.00  0.00    +0.000 HD
BRANCH   3  11
ATOM     11  C   UNL     1       4.827   3.759  18.005  0.00  0.00    +0.000 A 
ATOM     12  C   UNL     1       5.278   4.480  19.130  0.00  0.00    +0.000 A 
ATOM     13  C   UNL     1       6.342   5.379  19.028  0.00  0.00    +0.000 A 
ATOM     14  C   UNL     1       6.954   5.580  17.799  0.00  0.00    +0.000 A 
ATOM     15  F   UNL     1       7.980   6.435  17.704  0.00  0.00    +0.000 F 
ATOM     16  C   UNL     1       6.515   4.907  16.668  0.00  0.00    +0.000 A 
ATOM     17  C   UNL     1       5.450   4.008  16.767  0.00  0.00    +0.000 A 
ENDBRANCH   3  11
ENDBRANCH   1   7
BRANCH   1  18
ATOM     18  C   UNL     1       1.501   5.581  20.765  0.00  0.00    +0.000 C 
BRANCH  18  19
ATOM     19  O   UNL     1       2.673   5.192  21.501  0.00  0.00    +0.000 OA
ATOM     20  H   UNL     1       2.898   4.272  21.285  0.00  0.00    +0.000 HD
ENDBRANCH  18  19
BRANCH  18  21
ATOM     21  C   UNL     1       1.861   6.658  19.715  0.00  0.00    +0.000 C 
BRANCH  21  22
ATOM     22  N   UNL     1       1.884   8.026  20.229  0.00  0.00    +0.000 NA
ATOM     23  C   UNL     1       1.561   9.113  19.278  0.00  0.00    +0.000 C 
ATOM     24  C   UNL     1       0.192   9.859  19.400  0.00  0.00    +0.000 C 
ATOM     25  N   UNL     1      -0.410   9.934  20.753  0.00  0.00    +0.000 NA
ATOM     26  C   UNL     1      -0.301   8.581  21.326  0.00  0.00    +0.000 C 
ATOM     27  C   UNL     1       1.160   8.138  21.498  0.00  0.00    +0.000 C 
BRANCH  25  28
ATOM     28  C   UNL     1       0.262  10.960  21.585  0.00  0.00    +0.000 C 
BRANCH  28  29
ATOM     29  C   UNL     1      -0.672  11.944  22.284  0.00  0.00    +0.000 A 
ATOM     30  C   UNL     1      -0.432  13.329  22.216  0.00  0.00    +0.000 A 
ATOM     31  C   UNL     1      -1.298  14.245  22.823  0.00  0.00    +0.000 A 
ATOM     32  C   UNL     1      -2.426  13.792  23.499  0.00  0.00    +0.000 A 
ATOM     33  C   UNL     1      -2.680  12.424  23.580  0.00  0.00    +0.000 A 
ATOM     34  C   UNL     1      -1.806  11.505  22.984  0.00  0.00    +0.000 A 
ENDBRANCH  28  29
ENDBRANCH  25  28
ENDBRANCH  21  22
ENDBRANCH  18  21
ENDBRANCH   1  18
TORSDOF 8
ENDMDL
MODEL 2
REMARK VINA RESULT:      -7.5      6.517      8.303
REMARK  Name = 
REMARK  9 active torsions:
REMARK  status: ('A' for Active; 'I' for Inactive)
REMARK    1  A    between atoms: C_1  and  C_2
REMARK    2  A    between atoms: C_2  and  C_3
REMARK    3  A    between atoms: N_13  and  C_14
REMARK    4  A    between atoms: C_14  and  C_15
REMARK    5  A    between atoms: C_15  and  O_16
REMARK    6  A    between atoms: C_15  and  C_17
REMARK    7  A    between atoms: C_17  and  N_18
REMARK    8  A    between atoms: N_21  and  C_22
REMARK    9  A    between atoms: C_22  and  C_23
REMARK                            x       y       z     vdW  Elec       q    Type
REMARK                         _______ _______ _______ _____ _____    ______ ____
ROOT
ATOM      1  C   UNL     1       7.782   7.120  16.952  0.00  0.00    +0.000 C 
ENDROOT
BRANCH   1   7
ATOM      2  C   UNL     1       4.154   3.768  16.565  0.00  0.00    +0.000 C 
ATOM      3  C   UNL     1       4.859   4.788  17.450  0.00  0.00    +0.000 C 
ATOM      4  N   UNL     1       5.987   4.217  18.160  0.00  0.00    +0.000 N 
ATOM      5  C   UNL     1       7.062   5.071  18.177  0.00  0.00    +0.000 C 
ATOM      6  O   UNL     1       8.052   4.890  18.876  0.00  0.00    +0.000 OA
ATOM      7  N   UNL     1       6.842   6.067  17.277  0.00  0.00    +0.000 N 
ATOM      8  C   UNL     1       5.659   5.833  16.631  0.00  0.00    +0.000 C 
ATOM      9  O   UNL     1       5.267   6.411  15.620  0.00  0.00    +0.000 OA
ATOM     10  H   UNL     1       5.938   3.486  18.854  0.00  0.00    +0.000 HD
BRANCH   3  11
ATOM     11  C   UNL     1       3.883   5.456  18.428  0.00  0.00    +0.000 A 
ATOM     12  C   UNL     1       3.341   6.729  18.156  0.00  0.00    +0.000 A 
ATOM     13  C   UNL     1       2.417   7.317  19.021  0.00  0.00    +0.000 A 
ATOM     14  C   UNL     1       2.038   6.648  20.177  0.00  0.00    +0.000 A 
ATOM     15  F   UNL     1       1.145   7.209  21.002  0.00  0.00    +0.000 F 
ATOM     16  C   UNL     1       2.575   5.407  20.488  0.00  0.00    +0.000 A 
ATOM     17  C   UNL     1       3.500   4.817  19.623  0.00  0.00    +0.000 A 
ENDBRANCH   3  11
ENDBRANCH   1   7
BRANCH   1  18
ATOM     18  C   UNL     1       7.911   8.159  18.087  0.00  0.00    +0.000 C 
BRANCH  18  19
ATOM     19  O   UNL     1       8.675   7.579  19.157  0.00  0.00    +0.000 OA
ATOM     20  H   UNL     1       8.075   7.126  19.773  0.00  0.00    +0.000 HD
ENDBRANCH  18  19
BRANCH  18  21
ATOM     21  C   UNL     1       8.587   9.458  17.588  0.00  0.00    +0.000 C 
BRANCH  21  22
ATOM     22  N   UNL     1       8.515  10.579  18.522  0.00  0.00    +0.000 NA
ATOM     23  C   UNL     1       9.461  10.574  19.661  0.00  0.00    +0.000 C 
ATOM     24  C   UNL     1      10.658  11.580  19.671  0.00  0.00    +0.000 C 
ATOM     25  N   UNL     1      10.459  12.863  18.955  0.00  0.00    +0.000 NA
ATOM     26  C   UNL     1       9.849  12.519  17.658  0.00  0.00    +0.000 C 
ATOM     27  C   UNL     1       8.468  11.865  17.820  0.00  0.00    +0.000 C 
BRANCH  25  28
ATOM     28  C   UNL     1       9.623  13.798  19.745  0.00  0.00    +0.000 C 
BRANCH  28  29
ATOM     29  C   UNL     1       9.489  15.202  19.163  0.00  0.00    +0.000 A 
ATOM     30  C   UNL     1       8.218  15.778  18.975  0.00  0.00    +0.000 A 
ATOM     31  C   UNL     1       8.080  17.078  18.474  0.00  0.00    +0.000 A 
ATOM     32  C   UNL     1       9.210  17.827  18.164  0.00  0.00    +0.000 A 
ATOM     33  C   UNL     1      10.476  17.273  18.341  0.00  0.00    +0.000 A 
ATOM     34  C   UNL     1      10.616  15.967  18.830  0.00  0.00    +0.000 A 
ENDBRANCH  28  29
ENDBRANCH  25  28
ENDBRANCH  21  22
ENDBRANCH  18  21
ENDBRANCH   1  18
TORSDOF 8
ENDMDL
MODEL 3
REMARK VINA RESULT:      -7.5      0.670      1.147
REMARK  Name = 
REMARK  9 active torsions:
REMARK  status: ('A' for Active; 'I' for Inactive)
REMARK    1  A    between atoms: C_1  and  C_2
REMARK    2  A    between atoms: C_2  and  C_3
REMARK    3  A    between atoms: N_13  and  C_14
REMARK    4  A    between atoms: C_14  and  C_15
REMARK    5  A    between atoms: C_15  and  O_16
REMARK    6  A    between atoms: C_15  and  C_17
REMARK    7  A    between atoms: C_17  and  N_18
REMARK    8  A    between atoms: N_21  and  C_22
REMARK    9  A    between atoms: C_22  and  C_23
REMARK                            x       y       z     vdW  Elec       q    Type
REMARK                         _______ _______ _______ _____ _____    ______ ____
ROOT
ATOM      1  C   UNL     1       0.889   4.504  20.062  0.00  0.00    +0.000 C 
ENDROOT
BRANCH   1   7
ATOM      2  C   UNL     1       4.097   1.318  18.036  0.00  0.00    +0.000 C 
ATOM      3  C   UNL     1       3.636   2.766  18.148  0.00  0.00    +0.000 C 
ATOM      4  N   UNL     1       2.592   3.089  17.198  0.00  0.00    +0.000 N 
ATOM      5  C   UNL     1       1.614   3.868  17.762  0.00  0.00    +0.000 C 
ATOM      6  O   UNL     1       0.737   4.423  17.109  0.00  0.00    +0.000 OA
ATOM      7  N   UNL     1       1.773   3.858  19.112  0.00  0.00    +0.000 N 
ATOM      8  C   UNL     1       2.811   3.027  19.434  0.00  0.00    +0.000 C 
ATOM      9  O   UNL     1       3.084   2.624  20.563  0.00  0.00    +0.000 OA
ATOM     10  H   UNL     1       2.687   3.083  16.193  0.00  0.00    +0.000 HD
BRANCH   3  11
ATOM     11  C   UNL     1       4.812   3.743  18.017  0.00  0.00    +0.000 A 
ATOM     12  C   UNL     1       5.411   3.992  16.765  0.00  0.00    +0.000 A 
ATOM     13  C   UNL     1       6.450   4.917  16.637  0.00  0.00    +0.000 A 
ATOM     14  C   UNL     1       6.913   5.588  17.760  0.00  0.00    +0.000 A 
ATOM     15  F   UNL     1       7.903   6.481  17.634  0.00  0.00    +0.000 F 
ATOM     16  C   UNL     1       6.364   5.344  19.010  0.00  0.00    +0.000 A 
ATOM     17  C   UNL     1       5.325   4.419  19.141  0.00  0.00    +0.000 A 
ENDBRANCH   3  11
ENDBRANCH   1   7
BRANCH   1  18
ATOM     18  C   UNL     1       1.568   5.694  20.776  0.00  0.00    +0.000 C 
BRANCH  18  19
ATOM     19  O   UNL     1       2.654   5.193  21.573  0.00  0.00    +0.000 OA
ATOM     20  H   UNL     1       2.306   4.580  22.241  0.00  0.00    +0.000 HD
ENDBRANCH  18  19
BRANCH  18  21
ATOM     21  C   UNL     1       2.086   6.739  19.760  0.00  0.00    +0.000 C 
BRANCH  21  22
ATOM     22  N   UNL     1       1.953   8.128  20.195  0.00  0.00    +0.000 NA
ATOM     23  C   UNL     1       1.595   9.129  19.164  0.00  0.00    +0.000 C 
ATOM     24  C   UNL     1       0.159   9.749  19.162  0.00  0.00    +0.000 C 
ATOM     25  N   UNL     1      -0.533   9.839  20.470  0.00  0.00    +0.000 NA
ATOM     26  C   UNL     1      -0.340   8.533  21.126  0.00  0.00    +0.000 C 
ATOM     27  C   UNL     1       1.142   8.239  21.410  0.00  0.00    +0.000 C 
BRANCH  25  28
ATOM     28  C   UNL     1      -0.011  10.965  21.280  0.00  0.00    +0.000 C 
BRANCH  28  29
ATOM     29  C   UNL     1      -1.048  12.009  21.686  0.00  0.00    +0.000 A 
ATOM     30  C   UNL     1      -2.092  12.356  20.808  0.00  0.00    +0.000 A 
ATOM     31  C   UNL     1      -3.069  13.287  21.180  0.00  0.00    +0.000 A 
ATOM     32  C   UNL     1      -3.026  13.877  22.438  0.00  0.00    +0.000 A 
ATOM     33  C   UNL     1      -1.998  13.547  23.320  0.00  0.00    +0.000 A 
ATOM     34  C   UNL     1      -1.011  12.626  22.944  0.00  0.00    +0.000 A 
ENDBRANCH  28  29
ENDBRANCH  25  28
ENDBRANCH  21  22
ENDBRANCH  18  21
ENDBRANCH   1  18
TORSDOF 8
ENDMDL
MODEL 4
REMARK VINA RESULT:      -7.4      6.572      8.615
REMARK  Name = 
REMARK  9 active torsions:
REMARK  status: ('A' for Active; 'I' for Inactive)
REMARK    1  A    between atoms: C_1  and  C_2
REMARK    2  A    between atoms: C_2  and  C_3
REMARK    3  A    between atoms: N_13  and  C_14
REMARK    4  A    between atoms: C_14  and  C_15
REMARK    5  A    between atoms: C_15  and  O_16
REMARK    6  A    between atoms: C_15  and  C_17
REMARK    7  A    between atoms: C_17  and  N_18
REMARK    8  A    between atoms: N_21  and  C_22
REMARK    9  A    between atoms: C_22  and  C_23
REMARK                            x       y       z     vdW  Elec       q    Type
REMARK                         _______ _______ _______ _____ _____    ______ ____
ROOT
ATOM      1  C   UNL     1       7.346   6.964  17.289  0.00  0.00    +0.000 C 
ENDROOT
BRANCH   1   7
ATOM      2  C   UNL     1       3.091   4.428  17.227  0.00  0.00    +0.000 C 
ATOM      3  C   UNL     1       3.921   5.511  17.905  0.00  0.00    +0.000 C 
ATOM      4  N   UNL     1       4.802   4.975  18.923  0.00  0.00    +0.000 N 
ATOM      5  C   UNL     1       6.039   5.566  18.888  0.00  0.00    +0.000 C 
ATOM      6  O   UNL     1       6.881   5.417  19.767  0.00  0.00    +0.000 OA
ATOM      7  N   UNL     1       6.156   6.264  17.726  0.00  0.00    +0.000 N 
ATOM      8  C   UNL     1       5.025   6.080  16.979  0.00  0.00    +0.000 C 
ATOM      9  O   UNL     1       4.889   6.388  15.797  0.00  0.00    +0.000 OA
ATOM     10  H   UNL     1       4.510   4.514  19.772  0.00  0.00    +0.000 HD
BRANCH   3  11
ATOM     11  C   UNL     1       3.034   6.621  18.484  0.00  0.00    +0.000 A 
ATOM     12  C   UNL     1       2.520   6.530  19.794  0.00  0.00    +0.000 A 
ATOM     13  C   UNL     1       1.751   7.562  20.338  0.00  0.00    +0.000 A 
ATOM     14  C   UNL     1       1.474   8.686  19.574  0.00  0.00    +0.000 A 
ATOM     15  F   UNL     1       0.744   9.678  20.099  0.00  0.00    +0.000 F 
ATOM     16  C   UNL     1       1.941   8.793  18.271  0.00  0.00    +0.000 A 
ATOM     17  C   UNL     1       2.709   7.762  17.725  0.00  0.00    +0.000 A 
ENDBRANCH   3  11
ENDBRANCH   1   7
BRANCH   1  18
ATOM     18  C   UNL     1       7.820   8.012  18.320  0.00  0.00    +0.000 C 
BRANCH  18  19
ATOM     19  O   UNL     1       8.814   7.409  19.165  0.00  0.00    +0.000 OA
ATOM     20  H   UNL     1       8.686   6.446  19.175  0.00  0.00    +0.000 HD
ENDBRANCH  18  19
BRANCH  18  21
ATOM     21  C   UNL     1       8.399   9.266  17.624  0.00  0.00    +0.000 C 
BRANCH  21  22
ATOM     22  N   UNL     1       8.482  10.451  18.475  0.00  0.00    +0.000 NA
ATOM     23  C   UNL     1       9.392  10.386  19.640  0.00  0.00    +0.000 C 
ATOM     24  C   UNL     1      10.730  11.196  19.617  0.00  0.00    +0.000 C 
ATOM     25  N   UNL     1      10.745  12.438  18.808  0.00  0.00    +0.000 NA
ATOM     26  C   UNL     1      10.116  12.096  17.519  0.00  0.00    +0.000 C 
ATOM     27  C   UNL     1       8.647  11.674  17.684  0.00  0.00    +0.000 C 
BRANCH  25  28
ATOM     28  C   UNL     1      10.048  13.545  19.505  0.00  0.00    +0.000 C 
BRANCH  28  29
ATOM     29  C   UNL     1      10.207  14.920  18.864  0.00  0.00    +0.000 A 
ATOM     30  C   UNL     1      11.486  15.417  18.548  0.00  0.00    +0.000 A 
ATOM     31  C   UNL     1      11.645  16.662  17.929  0.00  0.00    +0.000 A 
ATOM     32  C   UNL     1      10.529  17.425  17.604  0.00  0.00    +0.000 A 
ATOM     33  C   UNL     1       9.255  16.951  17.911  0.00  0.00    +0.000 A 
ATOM     34  C   UNL     1       9.094  15.711  18.544  0.00  0.00    +0.000 A 
ENDBRANCH  28  29
ENDBRANCH  25  28
ENDBRANCH  21  22
ENDBRANCH  18  21
ENDBRANCH   1  18
TORSDOF 8
ENDMDL
MODEL 5
REMARK VINA RESULT:      -7.4      1.409      2.148
REMARK  Name = 
REMARK  9 active torsions:
REMARK  status: ('A' for Active; 'I' for Inactive)
REMARK    1  A    between atoms: C_1  and  C_2
REMARK    2  A    between atoms: C_2  and  C_3
REMARK    3  A    between atoms: N_13  and  C_14
REMARK    4  A    between atoms: C_14  and  C_15
REMARK    5  A    between atoms: C_15  and  O_16
REMARK    6  A    between atoms: C_15  and  C_17
REMARK    7  A    between atoms: C_17  and  N_18
REMARK    8  A    between atoms: N_21  and  C_22
REMARK    9  A    between atoms: C_22  and  C_23
REMARK                            x       y       z     vdW  Elec       q    Type
REMARK                         _______ _______ _______ _____ _____    ______ ____
ROOT
ATOM      1  C   UNL     1       0.887   4.371  20.124  0.00  0.00    +0.000 C 
ENDROOT
BRANCH   1   7
ATOM      2  C   UNL     1       4.126   1.231  18.077  0.00  0.00    +0.000 C 
ATOM      3  C   UNL     1       3.636   2.670  18.181  0.00  0.00    +0.000 C 
ATOM      4  N   UNL     1       2.567   2.958  17.246  0.00  0.00    +0.000 N 
ATOM      5  C   UNL     1       1.582   3.724  17.819  0.00  0.00    +0.000 C 
ATOM      6  O   UNL     1       0.682   4.251  17.176  0.00  0.00    +0.000 OA
ATOM      7  N   UNL     1       1.767   3.733  19.167  0.00  0.00    +0.000 N 
ATOM      8  C   UNL     1       2.828   2.929  19.479  0.00  0.00    +0.000 C 
ATOM      9  O   UNL     1       3.131   2.546  20.607  0.00  0.00    +0.000 OA
ATOM     10  H   UNL     1       2.643   2.943  16.240  0.00  0.00    +0.000 HD
BRANCH   3  11
ATOM     11  C   UNL     1       4.787   3.670  18.016  0.00  0.00    +0.000 A 
ATOM     12  C   UNL     1       5.360   3.915  16.751  0.00  0.00    +0.000 A 
ATOM     13  C   UNL     1       6.376   4.859  16.592  0.00  0.00    +0.000 A 
ATOM     14  C   UNL     1       6.842   5.557  17.698  0.00  0.00    +0.000 A 
ATOM     15  F   UNL     1       7.810   6.469  17.543  0.00  0.00    +0.000 F 
ATOM     16  C   UNL     1       6.319   5.319  18.961  0.00  0.00    +0.000 A 
ATOM     17  C   UNL     1       5.303   4.374  19.122  0.00  0.00    +0.000 A 
ENDBRANCH   3  11
ENDBRANCH   1   7
BRANCH   1  18
ATOM     18  C   UNL     1       1.504   5.657  20.719  0.00  0.00    +0.000 C 
BRANCH  18  19
ATOM     19  O   UNL     1       2.613   5.290  21.556  0.00  0.00    +0.000 OA
ATOM     20  H   UNL     1       3.437   5.352  21.044  0.00  0.00    +0.000 HD
ENDBRANCH  18  19
BRANCH  18  21
ATOM     21  C   UNL     1       1.970   6.625  19.606  0.00  0.00    +0.000 C 
BRANCH  21  22
ATOM     22  N   UNL     1       2.028   8.029  20.005  0.00  0.00    +0.000 NA
ATOM     23  C   UNL     1       1.776   9.043  18.957  0.00  0.00    +0.000 C 
ATOM     24  C   UNL     1       0.433   9.844  18.970  0.00  0.00    +0.000 C 
ATOM     25  N   UNL     1      -0.208  10.054  20.291  0.00  0.00    +0.000 NA
ATOM     26  C   UNL     1      -0.168   8.750  20.977  0.00  0.00    +0.000 C 
ATOM     27  C   UNL     1       1.270   8.273  21.236  0.00  0.00    +0.000 C 
BRANCH  25  28
ATOM     28  C   UNL     1       0.476  11.122  21.058  0.00  0.00    +0.000 C 
BRANCH  28  29
ATOM     29  C   UNL     1       0.617  12.456  20.331  0.00  0.00    +0.000 A 
ATOM     30  C   UNL     1      -0.524  13.197  19.971  0.00  0.00    +0.000 A 
ATOM     31  C   UNL     1      -0.409  14.438  19.334  0.00  0.00    +0.000 A 
ATOM     32  C   UNL     1       0.849  14.964  19.057  0.00  0.00    +0.000 A 
ATOM     33  C   UNL     1       1.990  14.244  19.404  0.00  0.00    +0.000 A 
ATOM     34  C   UNL     1       1.876  12.995  20.029  0.00  0.00    +0.000 A 
ENDBRANCH  28  29
ENDBRANCH  25  28
ENDBRANCH  21  22
ENDBRANCH  18  21
ENDBRANCH   1  18
TORSDOF 8
ENDMDL
MODEL 6
REMARK VINA RESULT:      -7.4      2.227      3.258
REMARK  Name = 
REMARK  9 active torsions:
REMARK  status: ('A' for Active; 'I' for Inactive)
REMARK    1  A    between atoms: C_1  and  C_2
REMARK    2  A    between atoms: C_2  and  C_3
REMARK    3  A    between atoms: N_13  and  C_14
REMARK    4  A    between atoms: C_14  and  C_15
REMARK    5  A    between atoms: C_15  and  O_16
REMARK    6  A    between atoms: C_15  and  C_17
REMARK    7  A    between atoms: C_17  and  N_18
REMARK    8  A    between atoms: N_21  and  C_22
REMARK    9  A    between atoms: C_22  and  C_23
REMARK                            x       y       z     vdW  Elec       q    Type
REMARK                         _______ _______ _______ _____ _____    ______ ____
ROOT
ATOM      1  C   UNL     1       2.563   6.282  17.911  0.00  0.00    +0.000 C 
ENDROOT
BRANCH   1   7
ATOM      2  C   UNL     1       7.335   4.960  18.073  0.00  0.00    +0.000 C 
ATOM      3  C   UNL     1       5.995   4.816  17.363  0.00  0.00    +0.000 C 
ATOM      4  N   UNL     1       5.172   3.773  17.942  0.00  0.00    +0.000 N 
ATOM      5  C   UNL     1       3.857   4.154  18.032  0.00  0.00    +0.000 C 
ATOM      6  O   UNL     1       2.949   3.377  18.306  0.00  0.00    +0.000 OA
ATOM      7  N   UNL     1       3.776   5.495  17.822  0.00  0.00    +0.000 N 
ATOM      8  C   UNL     1       5.037   5.999  17.657  0.00  0.00    +0.000 C 
ATOM      9  O   UNL     1       5.340   7.190  17.662  0.00  0.00    +0.000 OA
ATOM     10  H   UNL     1       5.393   2.788  17.957  0.00  0.00    +0.000 HD
BRANCH   3  11
ATOM     11  C   UNL     1       6.177   4.591  15.856  0.00  0.00    +0.000 A 
ATOM     12  C   UNL     1       7.294   5.117  15.174  0.00  0.00    +0.000 A 
ATOM     13  C   UNL     1       7.486   4.873  13.813  0.00  0.00    +0.000 A 
ATOM     14  C   UNL     1       6.555   4.116  13.114  0.00  0.00    +0.000 A 
ATOM     15  F   UNL     1       6.744   3.876  11.811  0.00  0.00    +0.000 F 
ATOM     16  C   UNL     1       5.431   3.609  13.750  0.00  0.00    +0.000 A 
ATOM     17  C   UNL     1       5.237   3.852  15.112  0.00  0.00    +0.000 A 
ENDBRANCH   3  11
ENDBRANCH   1   7
BRANCH   1  18
ATOM     18  C   UNL     1       2.202   6.637  19.370  0.00  0.00    +0.000 C 
BRANCH  18  19
ATOM     19  O   UNL     1       3.169   6.030  20.243  0.00  0.00    +0.000 OA
ATOM     20  H   UNL     1       3.106   5.064  20.171  0.00  0.00    +0.000 HD
ENDBRANCH  18  19
BRANCH  18  21
ATOM     21  C   UNL     1       2.171   8.168  19.587  0.00  0.00    +0.000 C 
BRANCH  21  22
ATOM     22  N   UNL     1       0.900   8.686  20.088  0.00  0.00    +0.000 NA
ATOM     23  C   UNL     1       0.544   8.369  21.489  0.00  0.00    +0.000 C 
ATOM     24  C   UNL     1       0.602   9.496  22.571  0.00  0.00    +0.000 C 
ATOM     25  N   UNL     1       0.367  10.884  22.104  0.00  0.00    +0.000 NA
ATOM     26  C   UNL     1       1.175  11.048  20.883  0.00  0.00    +0.000 C 
ATOM     27  C   UNL     1       0.726  10.104  19.757  0.00  0.00    +0.000 C 
BRANCH  25  28
ATOM     28  C   UNL     1      -1.075  11.137  21.871  0.00  0.00    +0.000 C 
BRANCH  28  29
ATOM     29  C   UNL     1      -1.690  12.235  22.734  0.00  0.00    +0.000 A 
ATOM     30  C   UNL     1      -2.938  12.038  23.356  0.00  0.00    +0.000 A 
ATOM     31  C   UNL     1      -3.499  13.023  24.177  0.00  0.00    +0.000 A 
ATOM     32  C   UNL     1      -2.817  14.214  24.400  0.00  0.00    +0.000 A 
ATOM     33  C   UNL     1      -1.582  14.428  23.792  0.00  0.00    +0.000 A 
ATOM     34  C   UNL     1      -1.025  13.449  22.957  0.00  0.00    +0.000 A 
ENDBRANCH  28  29
ENDBRANCH  25  28
ENDBRANCH  21  22
ENDBRANCH  18  21
ENDBRANCH   1  18
TORSDOF 8
ENDMDL
MODEL 7
REMARK VINA RESULT:      -7.4      3.214      4.706
REMARK  Name = 
REMARK  9 active torsions:
REMARK  status: ('A' for Active; 'I' for Inactive)
REMARK    1  A    between atoms: C_1  and  C_2
REMARK    2  A    between atoms: C_2  and  C_3
REMARK    3  A    between atoms: N_13  and  C_14
REMARK    4  A    between atoms: C_14  and  C_15
REMARK    5  A    between atoms: C_15  and  O_16
REMARK    6  A    between atoms: C_15  and  C_17
REMARK    7  A    between atoms: C_17  and  N_18
REMARK    8  A    between atoms: N_21  and  C_22
REMARK    9  A    between atoms: C_22  and  C_23
REMARK                            x       y       z     vdW  Elec       q    Type
REMARK                         _______ _______ _______ _____ _____    ______ ____
ROOT
ATOM      1  C   UNL     1       1.653   8.636  21.143  0.00  0.00    +0.000 C 
ENDROOT
BRANCH   1   7
ATOM      2  C   UNL     1       1.888   4.894  17.904  0.00  0.00    +0.000 C 
ATOM      3  C   UNL     1       2.556   6.147  18.456  0.00  0.00    +0.000 C 
ATOM      4  N   UNL     1       2.106   7.352  17.789  0.00  0.00    +0.000 N 
ATOM      5  C   UNL     1       1.905   8.380  18.676  0.00  0.00    +0.000 C 
ATOM      6  O   UNL     1       1.713   9.540  18.328  0.00  0.00    +0.000 OA
ATOM      7  N   UNL     1       1.909   7.874  19.938  0.00  0.00    +0.000 N 
ATOM      8  C   UNL     1       2.049   6.515  19.874  0.00  0.00    +0.000 C 
ATOM      9  O   UNL     1       1.879   5.731  20.806  0.00  0.00    +0.000 OA
ATOM     10  H   UNL     1       2.246   7.574  16.814  0.00  0.00    +0.000 HD
BRANCH   3  11
ATOM     11  C   UNL     1       4.085   6.038  18.408  0.00  0.00    +0.000 A 
ATOM     12  C   UNL     1       4.830   6.717  17.421  0.00  0.00    +0.000 A 
ATOM     13  C   UNL     1       6.225   6.656  17.404  0.00  0.00    +0.000 A 
ATOM     14  C   UNL     1       6.890   5.904  18.362  0.00  0.00    +0.000 A 
ATOM     15  F   UNL     1       8.228   5.853  18.351  0.00  0.00    +0.000 F 
ATOM     16  C   UNL     1       6.185   5.201  19.329  0.00  0.00    +0.000 A 
ATOM     17  C   UNL     1       4.789   5.260  19.347  0.00  0.00    +0.000 A 
ENDBRANCH   3  11
ENDBRANCH   1   7
BRANCH   1  18
ATOM     18  C   UNL     1       0.221   9.215  21.176  0.00  0.00    +0.000 C 
BRANCH  18  19
ATOM     19  O   UNL     1      -0.670   8.208  21.682  0.00  0.00    +0.000 OA
ATOM     20  H   UNL     1      -0.197   7.652  22.324  0.00  0.00    +0.000 HD
ENDBRANCH  18  19
BRANCH  18  21
ATOM     21  C   UNL     1       0.148  10.486  22.053  0.00  0.00    +0.000 C 
BRANCH  21  22
ATOM     22  N   UNL     1      -0.453  11.645  21.397  0.00  0.00    +0.000 NA
ATOM     23  C   UNL     1      -0.644  12.864  22.215  0.00  0.00    +0.000 C 
ATOM     24  C   UNL     1       0.273  14.107  21.969  0.00  0.00    +0.000 C 
ATOM     25  N   UNL     1       0.806  14.282  20.596  0.00  0.00    +0.000 NA
ATOM     26  C   UNL     1       1.300  12.958  20.175  0.00  0.00    +0.000 C 
ATOM     27  C   UNL     1       0.173  11.916  20.100  0.00  0.00    +0.000 C 
BRANCH  25  28
ATOM     28  C   UNL     1      -0.227  14.821  19.681  0.00  0.00    +0.000 C 
BRANCH  28  29
ATOM     29  C   UNL     1       0.204  16.027  18.851  0.00  0.00    +0.000 A 
ATOM     30  C   UNL     1       1.547  16.181  18.460  0.00  0.00    +0.000 A 
ATOM     31  C   UNL     1       1.951  17.263  17.670  0.00  0.00    +0.000 A 
ATOM     32  C   UNL     1       1.017  18.203  17.248  0.00  0.00    +0.000 A 
ATOM     33  C   UNL     1      -0.317  18.069  17.627  0.00  0.00    +0.000 A 
ATOM     34  C   UNL     1      -0.721  16.993  18.429  0.00  0.00    +0.000 A 
ENDBRANCH  28  29
ENDBRANCH  25  28
ENDBRANCH  21  22
ENDBRANCH  18  21
ENDBRANCH   1  18
TORSDOF 8
ENDMDL
MODEL 8
REMARK VINA RESULT:      -7.4      3.728     10.388
REMARK  Name = 
REMARK  9 active torsions:
REMARK  status: ('A' for Active; 'I' for Inactive)
REMARK    1  A    between atoms: C_1  and  C_2
REMARK    2  A    between atoms: C_2  and  C_3
REMARK    3  A    between atoms: N_13  and  C_14
REMARK    4  A    between atoms: C_14  and  C_15
REMARK    5  A    between atoms: C_15  and  O_16
REMARK    6  A    between atoms: C_15  and  C_17
REMARK    7  A    between atoms: C_17  and  N_18
REMARK    8  A    between atoms: N_21  and  C_22
REMARK    9  A    between atoms: C_22  and  C_23
REMARK                            x       y       z     vdW  Elec       q    Type
REMARK                         _______ _______ _______ _____ _____    ______ ____
ROOT
ATOM      1  C   UNL     1      -0.404   8.688  21.486  0.00  0.00    +0.000 C 
ENDROOT
BRANCH   1   7
ATOM      2  C   UNL     1      -0.137  13.604  22.046  0.00  0.00    +0.000 C 
ATOM      3  C   UNL     1      -0.945  12.421  21.527  0.00  0.00    +0.000 C 
ATOM      4  N   UNL     1      -0.582  12.056  20.172  0.00  0.00    +0.000 N 
ATOM      5  C   UNL     1      -0.520  10.695  20.011  0.00  0.00    +0.000 C 
ATOM      6  O   UNL     1      -0.424  10.152  18.916  0.00  0.00    +0.000 OA
ATOM      7  N   UNL     1      -0.532  10.110  21.239  0.00  0.00    +0.000 N 
ATOM      8  C   UNL     1      -0.539  11.084  22.199  0.00  0.00    +0.000 C 
ATOM      9  O   UNL     1      -0.336  10.911  23.398  0.00  0.00    +0.000 OA
ATOM     10  H   UNL     1      -0.700  12.636  19.354  0.00  0.00    +0.000 HD
BRANCH   3  11
ATOM     11  C   UNL     1      -2.453  12.679  21.636  0.00  0.00    +0.000 A 
ATOM     12  C   UNL     1      -3.227  12.953  20.489  0.00  0.00    +0.000 A 
ATOM     13  C   UNL     1      -4.607  13.141  20.581  0.00  0.00    +0.000 A 
ATOM     14  C   UNL     1      -5.227  13.074  21.820  0.00  0.00    +0.000 A 
ATOM     15  F   UNL     1      -6.553  13.246  21.906  0.00  0.00    +0.000 F 
ATOM     16  C   UNL     1      -4.490  12.834  22.971  0.00  0.00    +0.000 A 
ATOM     17  C   UNL     1      -3.109  12.647  22.881  0.00  0.00    +0.000 A 
ENDBRANCH   3  11
ENDBRANCH   1   7
BRANCH   1  18
ATOM     18  C   UNL     1       0.979   8.144  21.064  0.00  0.00    +0.000 C 
BRANCH  18  19
ATOM     19  O   UNL     1       1.923   8.426  22.110  0.00  0.00    +0.000 OA
ATOM     20  H   UNL     1       2.180   7.596  22.544  0.00  0.00    +0.000 HD
ENDBRANCH  18  19
BRANCH  18  21
ATOM     21  C   UNL     1       0.925   6.623  20.787  0.00  0.00    +0.000 C 
BRANCH  21  22
ATOM     22  N   UNL     1       2.231   5.985  20.636  0.00  0.00    +0.000 NA
ATOM     23  C   UNL     1       2.324   4.545  20.965  0.00  0.00    +0.000 C 
ATOM     24  C   UNL     1       2.486   3.501  19.811  0.00  0.00    +0.000 C 
ATOM     25  N   UNL     1       3.171   3.966  18.581  0.00  0.00    +0.000 NA
ATOM     26  C   UNL     1       2.584   5.279  18.256  0.00  0.00    +0.000 C 
ATOM     27  C   UNL     1       2.851   6.322  19.351  0.00  0.00    +0.000 C 
BRANCH  25  28
ATOM     28  C   UNL     1       4.639   4.031  18.773  0.00  0.00    +0.000 C 
BRANCH  28  29
ATOM     29  C   UNL     1       5.444   4.378  17.524  0.00  0.00    +0.000 A 
ATOM     30  C   UNL     1       5.211   3.698  16.313  0.00  0.00    +0.000 A 
ATOM     31  C   UNL     1       5.917   4.029  15.151  0.00  0.00    +0.000 A 
ATOM     32  C   UNL     1       6.859   5.051  15.177  0.00  0.00    +0.000 A 
ATOM     33  C   UNL     1       7.106   5.734  16.367  0.00  0.00    +0.000 A 
ATOM     34  C   UNL     1       6.409   5.395  17.535  0.00  0.00    +0.000 A 
ENDBRANCH  28  29
ENDBRANCH  25  28
ENDBRANCH  21  22
ENDBRANCH  18  21
ENDBRANCH   1  18
TORSDOF 8
ENDMDL
MODEL 9
REMARK VINA RESULT:      -7.3      6.537      8.698
REMARK  Name = 
REMARK  9 active torsions:
REMARK  status: ('A' for Active; 'I' for Inactive)
REMARK    1  A    between atoms: C_1  and  C_2
REMARK    2  A    between atoms: C_2  and  C_3
REMARK    3  A    between atoms: N_13  and  C_14
REMARK    4  A    between atoms: C_14  and  C_15
REMARK    5  A    between atoms: C_15  and  O_16
REMARK    6  A    between atoms: C_15  and  C_17
REMARK    7  A    between atoms: C_17  and  N_18
REMARK    8  A    between atoms: N_21  and  C_22
REMARK    9  A    between atoms: C_22  and  C_23
REMARK                            x       y       z     vdW  Elec       q    Type
REMARK                         _______ _______ _______ _____ _____    ______ ____
ROOT
ATOM      1  C   UNL     1       6.969   7.076  18.581  0.00  0.00    +0.000 C 
ENDROOT
BRANCH   1   7
ATOM      2  C   UNL     1       5.121   4.395  14.847  0.00  0.00    +0.000 C 
ATOM      3  C   UNL     1       5.275   4.545  16.355  0.00  0.00    +0.000 C 
ATOM      4  N   UNL     1       6.491   3.932  16.851  0.00  0.00    +0.000 N 
ATOM      5  C   UNL     1       7.103   4.712  17.800  0.00  0.00    +0.000 C 
ATOM      6  O   UNL     1       8.031   4.317  18.496  0.00  0.00    +0.000 OA
ATOM      7  N   UNL     1       6.541   5.950  17.776  0.00  0.00    +0.000 N 
ATOM      8  C   UNL     1       5.610   5.999  16.775  0.00  0.00    +0.000 C 
ATOM      9  O   UNL     1       5.075   7.018  16.342  0.00  0.00    +0.000 OA
ATOM     10  H   UNL     1       6.711   2.948  16.817  0.00  0.00    +0.000 HD
BRANCH   3  11
ATOM     11  C   UNL     1       4.050   4.003  17.103  0.00  0.00    +0.000 A 
ATOM     12  C   UNL     1       3.013   4.865  17.516  0.00  0.00    +0.000 A 
ATOM     13  C   UNL     1       1.875   4.367  18.155  0.00  0.00    +0.000 A 
ATOM     14  C   UNL     1       1.769   3.006  18.403  0.00  0.00    +0.000 A 
ATOM     15  F   UNL     1       0.674   2.528  19.008  0.00  0.00    +0.000 F 
ATOM     16  C   UNL     1       2.785   2.135  18.034  0.00  0.00    +0.000 A 
ATOM     17  C   UNL     1       3.924   2.632  17.396  0.00  0.00    +0.000 A 
ENDBRANCH   3  11
ENDBRANCH   1   7
BRANCH   1  18
ATOM     18  C   UNL     1       8.076   7.901  17.889  0.00  0.00    +0.000 C 
BRANCH  18  19
ATOM     19  O   UNL     1       8.167   7.488  16.515  0.00  0.00    +0.000 OA
ATOM     20  H   UNL     1       9.076   7.204  16.325  0.00  0.00    +0.000 HD
ENDBRANCH  18  19
BRANCH  18  21
ATOM     21  C   UNL     1       7.784   9.418  17.974  0.00  0.00    +0.000 C 
BRANCH  21  22
ATOM     22  N   UNL     1       8.969  10.257  18.140  0.00  0.00    +0.000 NA
ATOM     23  C   UNL     1       8.837  11.691  17.795  0.00  0.00    +0.000 C 
ATOM     24  C   UNL     1       8.810  12.757  18.939  0.00  0.00    +0.000 C 
ATOM     25  N   UNL     1       9.537  12.419  20.186  0.00  0.00    +0.000 NA
ATOM     26  C   UNL     1       9.161  11.032  20.517  0.00  0.00    +0.000 C 
ATOM     27  C   UNL     1       9.612  10.035  19.438  0.00  0.00    +0.000 C 
BRANCH  25  28
ATOM     28  C   UNL     1      11.000  12.587  20.019  0.00  0.00    +0.000 C 
BRANCH  28  29
ATOM     29  C   UNL     1      11.444  13.958  19.516  0.00  0.00    +0.000 A 
ATOM     30  C   UNL     1      11.944  14.111  18.209  0.00  0.00    +0.000 A 
ATOM     31  C   UNL     1      12.323  15.367  17.722  0.00  0.00    +0.000 A 
ATOM     32  C   UNL     1      12.197  16.493  18.529  0.00  0.00    +0.000 A 
ATOM     33  C   UNL     1      11.706  16.361  19.827  0.00  0.00    +0.000 A 
ATOM     34  C   UNL     1      11.339  15.101  20.320  0.00  0.00    +0.000 A 
ENDBRANCH  28  29
ENDBRANCH  25  28
ENDBRANCH  21  22
ENDBRANCH  18  21
ENDBRANCH   1  18
TORSDOF 8
ENDMDL
