MODEL 1
REMARK VINA RESULT:      -7.9      0.000      0.000
REMARK  Name = 
REMARK  2 active torsions:
REMARK  status: ('A' for Active; 'I' for Inactive)
REMARK    1  A    between atoms: C_2  and  C_11
REMARK    2  A    between atoms: N_3  and  C_4
REMARK                            x       y       z     vdW  Elec       q    Type
REMARK                         _______ _______ _______ _____ _____    ______ ____
ROOT
ATOM      1  O   UNL     1       4.288   6.203  17.449  0.00  0.00    +0.000 OA
ATOM      2  C   UNL     1       4.068   4.998  17.344  0.00  0.00    +0.000 C 
ATOM      3  N   UNL     1       4.596   4.216  16.337  0.00  0.00    +0.000 N 
ATOM      4  H   UNL     1       4.294   3.253  16.263  0.00  0.00    +0.000 HD
ENDROOT
BRANCH   2   5
ATOM      5  C   UNL     1       3.161   4.335  18.313  0.00  0.00    +0.000 A 
ATOM      6  C   UNL     1       1.839   4.083  17.910  0.00  0.00    +0.000 A 
ATOM      7  C   UNL     1       0.906   3.497  18.770  0.00  0.00    +0.000 A 
ATOM      8  C   UNL     1       1.363   3.194  20.052  0.00  0.00    +0.000 A 
ATOM      9  N   UNL     1       0.766   2.653  21.156  0.00  0.00    +0.000 N 
ATOM     10  N   UNL     1       1.615   2.565  22.191  0.00  0.00    +0.000 NA
ATOM     11  N   UNL     1       2.784   3.047  21.790  0.00  0.00    +0.000 NA
ATOM     12  C   UNL     1       2.659   3.438  20.486  0.00  0.00    +0.000 A 
ATOM     13  C   UNL     1       3.591   4.016  19.612  0.00  0.00    +0.000 A 
ATOM     14  H   UNL     1      -0.189   2.335  21.279  0.00  0.00    +0.000 HD
ENDBRANCH   2   5
BRANCH   3  15
ATOM     15  C   UNL     1       5.497   4.794  15.323  0.00  0.00    +0.000 C 
ATOM     16  C   UNL     1       6.830   5.338  15.874  0.00  0.00    +0.000 C 
ATOM     17  C   UNL     1       7.513   4.733  14.637  0.00  0.00    +0.000 C 
ATOM     18  O   UNL     1       7.569   5.501  13.417  0.00  0.00    +0.000 OA
ATOM     19  C   UNL     1       7.098   4.650  12.366  0.00  0.00    +0.000 C 
ATOM     20  C   UNL     1       6.066   3.720  13.012  0.00  0.00    +0.000 C 
ATOM     21  C   UNL     1       6.331   3.752  14.515  0.00  0.00    +0.000 C 
ENDBRANCH   3  15
TORSDOF 2
ENDMDL
MODEL 2
REMARK VINA RESULT:      -7.8      5.348      6.924
REMARK  Name = 
REMARK  2 active torsions:
REMARK  status: ('A' for Active; 'I' for Inactive)
REMARK    1  A    between atoms: C_2  and  C_11
REMARK    2  A    between atoms: N_3  and  C_4
REMARK                            x       y       z     vdW  Elec       q    Type
REMARK                         _______ _______ _______ _____ _____    ______ ____
ROOT
ATOM      1  O   UNL     1       2.688   7.250  18.975  0.00  0.00    +0.000 OA
ATOM      2  C   UNL     1       1.976   7.223  19.976  0.00  0.00    +0.000 C 
ATOM      3  N   UNL     1       1.731   6.075  20.701  0.00  0.00    +0.000 N 
ATOM      4  H   UNL     1       1.059   6.114  21.457  0.00  0.00    +0.000 HD
ENDROOT
BRANCH   2   5
ATOM      5  C   UNL     1       1.301   8.466  20.424  0.00  0.00    +0.000 A 
ATOM      6  C   UNL     1       1.146   9.504  19.490  0.00  0.00    +0.000 A 
ATOM      7  C   UNL     1       0.555  10.723  19.835  0.00  0.00    +0.000 A 
ATOM      8  C   UNL     1       0.147  10.850  21.163  0.00  0.00    +0.000 A 
ATOM      9  N   UNL     1      -0.432  11.865  21.872  0.00  0.00    +0.000 N 
ATOM     10  N   UNL     1      -0.632  11.527  23.155  0.00  0.00    +0.000 NA
ATOM     11  N   UNL     1      -0.187  10.287  23.316  0.00  0.00    +0.000 NA
ATOM     12  C   UNL     1       0.294   9.848  22.113  0.00  0.00    +0.000 A 
ATOM     13  C   UNL     1       0.876   8.625  21.754  0.00  0.00    +0.000 A 
ATOM     14  H   UNL     1      -0.706  12.790  21.561  0.00  0.00    +0.000 HD
ENDBRANCH   2   5
BRANCH   3  15
ATOM     15  C   UNL     1       2.350   4.792  20.320  0.00  0.00    +0.000 C 
ATOM     16  C   UNL     1       2.186   3.660  21.354  0.00  0.00    +0.000 C 
ATOM     17  C   UNL     1       1.940   2.707  20.174  0.00  0.00    +0.000 C 
ATOM     18  O   UNL     1       3.068   2.098  19.512  0.00  0.00    +0.000 OA
ATOM     19  C   UNL     1       2.896   2.316  18.107  0.00  0.00    +0.000 C 
ATOM     20  C   UNL     1       2.159   3.652  17.978  0.00  0.00    +0.000 C 
ATOM     21  C   UNL     1       1.509   3.925  19.333  0.00  0.00    +0.000 C 
ENDBRANCH   3  15
TORSDOF 2
ENDMDL
MODEL 3
REMARK VINA RESULT:      -7.3      2.629      7.489
REMARK  Name = 
REMARK  2 active torsions:
REMARK  status: ('A' for Active; 'I' for Inactive)
REMARK    1  A    between atoms: C_2  and  C_11
REMARK    2  A    between atoms: N_3  and  C_4
REMARK                            x       y       z     vdW  Elec       q    Type
REMARK                         _______ _______ _______ _____ _____    ______ ____
ROOT
ATOM      1  O   UNL     1       6.270   4.209  18.490  0.00  0.00    +0.000 OA
ATOM      2  C   UNL     1       5.414   4.265  17.611  0.00  0.00    +0.000 C 
ATOM      3  N   UNL     1       4.060   4.186  17.864  0.00  0.00    +0.000 N 
ATOM      4  H   UNL     1       3.422   4.144  17.080  0.00  0.00    +0.000 HD
ENDROOT
BRANCH   2   5
ATOM      5  C   UNL     1       5.833   4.381  16.192  0.00  0.00    +0.000 A 
ATOM      6  C   UNL     1       5.117   3.646  15.232  0.00  0.00    +0.000 A 
ATOM      7  C   UNL     1       5.465   3.666  13.879  0.00  0.00    +0.000 A 
ATOM      8  C   UNL     1       6.573   4.445  13.545  0.00  0.00    +0.000 A 
ATOM      9  N   UNL     1       7.221   4.695  12.368  0.00  0.00    +0.000 N 
ATOM     10  N   UNL     1       8.271   5.514  12.540  0.00  0.00    +0.000 NA
ATOM     11  N   UNL     1       8.335   5.815  13.831  0.00  0.00    +0.000 NA
ATOM     12  C   UNL     1       7.307   5.176  14.468  0.00  0.00    +0.000 A 
ATOM     13  C   UNL     1       6.943   5.159  15.822  0.00  0.00    +0.000 A 
ATOM     14  H   UNL     1       7.018   4.351  11.437  0.00  0.00    +0.000 HD
ENDBRANCH   2   5
BRANCH   3  15
ATOM     15  C   UNL     1       3.554   4.056  19.244  0.00  0.00    +0.000 C 
ATOM     16  C   UNL     1       3.256   5.392  19.953  0.00  0.00    +0.000 C 
ATOM     17  C   UNL     1       1.996   4.729  20.531  0.00  0.00    +0.000 C 
ATOM     18  O   UNL     1       2.097   3.967  21.752  0.00  0.00    +0.000 OA
ATOM     19  C   UNL     1       1.466   2.703  21.510  0.00  0.00    +0.000 C 
ATOM     20  C   UNL     1       1.692   2.402  20.026  0.00  0.00    +0.000 C 
ATOM     21  C   UNL     1       2.033   3.731  19.356  0.00  0.00    +0.000 C 
ENDBRANCH   3  15
TORSDOF 2
ENDMDL
MODEL 4
REMARK VINA RESULT:      -7.2      4.183      7.525
REMARK  Name = 
REMARK  2 active torsions:
REMARK  status: ('A' for Active; 'I' for Inactive)
REMARK    1  A    between atoms: C_2  and  C_11
REMARK    2  A    between atoms: N_3  and  C_4
REMARK                            x       y       z     vdW  Elec       q    Type
REMARK                         _______ _______ _______ _____ _____    ______ ____
ROOT
ATOM      1  O   UNL     1       2.288   5.538  19.354  0.00  0.00    +0.000 OA
ATOM      2  C   UNL     1       3.022   6.333  18.771  0.00  0.00    +0.000 C 
ATOM      3  N   UNL     1       2.725   7.673  18.627  0.00  0.00    +0.000 N 
ATOM      4  H   UNL     1       3.333   8.244  18.054  0.00  0.00    +0.000 HD
ENDROOT
BRANCH   2   5
ATOM      5  C   UNL     1       4.277   5.845  18.147  0.00  0.00    +0.000 A 
ATOM      6  C   UNL     1       5.199   5.170  18.964  0.00  0.00    +0.000 A 
ATOM      7  C   UNL     1       6.422   4.709  18.469  0.00  0.00    +0.000 A 
ATOM      8  C   UNL     1       6.675   4.975  17.124  0.00  0.00    +0.000 A 
ATOM      9  N   UNL     1       7.736   4.716  16.301  0.00  0.00    +0.000 N 
ATOM     10  N   UNL     1       7.533   5.184  15.060  0.00  0.00    +0.000 NA
ATOM     11  N   UNL     1       6.338   5.762  15.043  0.00  0.00    +0.000 NA
ATOM     12  C   UNL     1       5.791   5.646  16.291  0.00  0.00    +0.000 A 
ATOM     13  C   UNL     1       4.561   6.094  16.794  0.00  0.00    +0.000 A 
ATOM     14  H   UNL     1       8.609   4.245  16.509  0.00  0.00    +0.000 HD
ENDBRANCH   2   5
BRANCH   3  15
ATOM     15  C   UNL     1       1.493   8.242  19.205  0.00  0.00    +0.000 C 
ATOM     16  C   UNL     1       1.590   8.619  20.696  0.00  0.00    +0.000 C 
ATOM     17  C   UNL     1       0.783   9.884  20.361  0.00  0.00    +0.000 C 
ATOM     18  O   UNL     1      -0.658   9.817  20.350  0.00  0.00    +0.000 OA
ATOM     19  C   UNL     1      -1.093  10.393  19.113  0.00  0.00    +0.000 C 
ATOM     20  C   UNL     1       0.011  10.085  18.097  0.00  0.00    +0.000 C 
ATOM     21  C   UNL     1       1.266   9.755  18.903  0.00  0.00    +0.000 C 
ENDBRANCH   3  15
TORSDOF 2
ENDMDL
MODEL 5
REMARK VINA RESULT:      -7.1      2.576      7.475
REMARK  Name = 
REMARK  2 active torsions:
REMARK  status: ('A' for Active; 'I' for Inactive)
REMARK    1  A    between atoms: C_2  and  C_11
REMARK    2  A    between atoms: N_3  and  C_4
REMARK                            x       y       z     vdW  Elec       q    Type
REMARK                         _______ _______ _______ _____ _____    ______ ____
ROOT
ATOM      1  O   UNL     1       5.403   4.491  18.658  0.00  0.00    +0.000 OA
ATOM      2  C   UNL     1       4.843   4.371  17.571  0.00  0.00    +0.000 C 
ATOM      3  N   UNL     1       3.496   4.102  17.438  0.00  0.00    +0.000 N 
ATOM      4  H   UNL     1       3.127   3.924  16.513  0.00  0.00    +0.000 HD
ENDROOT
BRANCH   2   5
ATOM      5  C   UNL     1       5.640   4.477  16.323  0.00  0.00    +0.000 A 
ATOM      6  C   UNL     1       6.754   5.333  16.325  0.00  0.00    +0.000 A 
ATOM      7  C   UNL     1       7.539   5.522  15.184  0.00  0.00    +0.000 A 
ATOM      8  C   UNL     1       7.139   4.824  14.045  0.00  0.00    +0.000 A 
ATOM      9  N   UNL     1       7.617   4.765  12.766  0.00  0.00    +0.000 N 
ATOM     10  N   UNL     1       6.881   3.952  11.994  0.00  0.00    +0.000 NA
ATOM     11  N   UNL     1       5.904   3.462  12.747  0.00  0.00    +0.000 NA
ATOM     12  C   UNL     1       6.039   3.978  14.007  0.00  0.00    +0.000 A 
ATOM     13  C   UNL     1       5.265   3.786  15.159  0.00  0.00    +0.000 A 
ATOM     14  H   UNL     1       8.413   5.241  12.356  0.00  0.00    +0.000 HD
ENDBRANCH   2   5
BRANCH   3  15
ATOM     15  C   UNL     1       2.630   3.968  18.624  0.00  0.00    +0.000 C 
ATOM     16  C   UNL     1       1.148   3.678  18.316  0.00  0.00    +0.000 C 
ATOM     17  C   UNL     1       1.162   2.695  19.497  0.00  0.00    +0.000 C 
ATOM     18  O   UNL     1       0.910   3.190  20.829  0.00  0.00    +0.000 OA
ATOM     19  C   UNL     1       1.961   2.691  21.665  0.00  0.00    +0.000 C 
ATOM     20  C   UNL     1       3.197   2.587  20.767  0.00  0.00    +0.000 C 
ATOM     21  C   UNL     1       2.690   2.576  19.327  0.00  0.00    +0.000 C 
ENDBRANCH   3  15
TORSDOF 2
ENDMDL
MODEL 6
REMARK VINA RESULT:      -7.1      5.238      6.346
REMARK  Name = 
REMARK  2 active torsions:
REMARK  status: ('A' for Active; 'I' for Inactive)
REMARK    1  A    between atoms: C_2  and  C_11
REMARK    2  A    between atoms: N_3  and  C_4
REMARK                            x       y       z     vdW  Elec       q    Type
REMARK                         _______ _______ _______ _____ _____    ______ ____
ROOT
ATOM      1  O   UNL     1       2.688   8.029  18.043  0.00  0.00    +0.000 OA
ATOM      2  C   UNL     1       2.155   7.737  19.111  0.00  0.00    +0.000 C 
ATOM      3  N   UNL     1       2.182   6.466  19.648  0.00  0.00    +0.000 N 
ATOM      4  H   UNL     1       1.641   6.282  20.484  0.00  0.00    +0.000 HD
ENDROOT
BRANCH   2   5
ATOM      5  C   UNL     1       1.404   8.775  19.860  0.00  0.00    +0.000 A 
ATOM      6  C   UNL     1       0.989   9.920  19.160  0.00  0.00    +0.000 A 
ATOM      7  C   UNL     1       0.310  10.964  19.794  0.00  0.00    +0.000 A 
ATOM      8  C   UNL     1       0.085  10.806  21.161  0.00  0.00    +0.000 A 
ATOM      9  N   UNL     1      -0.506  11.591  22.111  0.00  0.00    +0.000 N 
ATOM     10  N   UNL     1      -0.476  11.018  23.324  0.00  0.00    +0.000 NA
ATOM     11  N   UNL     1       0.136   9.848  23.197  0.00  0.00    +0.000 NA
ATOM     12  C   UNL     1       0.489   9.691  21.884  0.00  0.00    +0.000 A 
ATOM     13  C   UNL     1       1.159   8.644  21.237  0.00  0.00    +0.000 A 
ATOM     14  H   UNL     1      -0.934  12.505  22.013  0.00  0.00    +0.000 HD
ENDBRANCH   2   5
BRANCH   3  15
ATOM     15  C   UNL     1       2.894   5.370  18.966  0.00  0.00    +0.000 C 
ATOM     16  C   UNL     1       4.340   5.136  19.448  0.00  0.00    +0.000 C 
ATOM     17  C   UNL     1       4.059   3.628  19.349  0.00  0.00    +0.000 C 
ATOM     18  O   UNL     1       4.247   2.958  18.086  0.00  0.00    +0.000 OA
ATOM     19  C   UNL     1       3.055   2.206  17.831  0.00  0.00    +0.000 C 
ATOM     20  C   UNL     1       1.914   3.000  18.474  0.00  0.00    +0.000 C 
ATOM     21  C   UNL     1       2.556   3.941  19.491  0.00  0.00    +0.000 C 
ENDBRANCH   3  15
TORSDOF 2
ENDMDL
MODEL 7
REMARK VINA RESULT:      -7.1      6.143      8.178
REMARK  Name = 
REMARK  2 active torsions:
REMARK  status: ('A' for Active; 'I' for Inactive)
REMARK    1  A    between atoms: C_2  and  C_11
REMARK    2  A    between atoms: N_3  and  C_4
REMARK                            x       y       z     vdW  Elec       q    Type
REMARK                         _______ _______ _______ _____ _____    ______ ____
ROOT
ATOM      1  O   UNL     1       7.800  10.138  17.396  0.00  0.00    +0.000 OA
ATOM      2  C   UNL     1       8.268   9.299  18.162  0.00  0.00    +0.000 C 
ATOM      3  N   UNL     1       9.181   9.600  19.152  0.00  0.00    +0.000 N 
ATOM      4  H   UNL     1       9.591   8.841  19.680  0.00  0.00    +0.000 HD
ENDROOT
BRANCH   2   5
ATOM      5  C   UNL     1       7.879   7.875  18.009  0.00  0.00    +0.000 A 
ATOM      6  C   UNL     1       8.258   6.977  19.021  0.00  0.00    +0.000 A 
ATOM      7  C   UNL     1       7.967   5.612  18.942  0.00  0.00    +0.000 A 
ATOM      8  C   UNL     1       7.294   5.197  17.793  0.00  0.00    +0.000 A 
ATOM      9  N   UNL     1       6.865   3.978  17.347  0.00  0.00    +0.000 N 
ATOM     10  N   UNL     1       6.266   4.066  16.150  0.00  0.00    +0.000 NA
ATOM     11  N   UNL     1       6.291   5.341  15.784  0.00  0.00    +0.000 NA
ATOM     12  C   UNL     1       6.912   6.056  16.771  0.00  0.00    +0.000 A 
ATOM     13  C   UNL     1       7.199   7.425  16.865  0.00  0.00    +0.000 A 
ATOM     14  H   UNL     1       6.948   3.068  17.787  0.00  0.00    +0.000 HD
ENDBRANCH   2   5
BRANCH   3  15
ATOM     15  C   UNL     1       9.634  10.988  19.367  0.00  0.00    +0.000 C 
ATOM     16  C   UNL     1       9.925  11.354  20.835  0.00  0.00    +0.000 C 
ATOM     17  C   UNL     1      11.153  12.128  20.330  0.00  0.00    +0.000 C 
ATOM     18  O   UNL     1      10.995  13.495  19.897  0.00  0.00    +0.000 OA
ATOM     19  C   UNL     1      11.616  13.599  18.610  0.00  0.00    +0.000 C 
ATOM     20  C   UNL     1      11.441  12.229  17.949  0.00  0.00    +0.000 C 
ATOM     21  C   UNL     1      11.145  11.238  19.072  0.00  0.00    +0.000 C 
ENDBRANCH   3  15
TORSDOF 2
ENDMDL
MODEL 8
REMARK VINA RESULT:      -7.1      5.612      7.272
REMARK  Name = 
REMARK  2 active torsions:
REMARK  status: ('A' for Active; 'I' for Inactive)
REMARK    1  A    between atoms: C_2  and  C_11
REMARK    2  A    between atoms: N_3  and  C_4
REMARK                            x       y       z     vdW  Elec       q    Type
REMARK                         _______ _______ _______ _____ _____    ______ ____
ROOT
ATOM      1  O   UNL     1       2.457   7.294  18.981  0.00  0.00    +0.000 OA
ATOM      2  C   UNL     1       1.876   7.279  20.064  0.00  0.00    +0.000 C 
ATOM      3  N   UNL     1       1.704   6.135  20.816  0.00  0.00    +0.000 N 
ATOM      4  H   UNL     1       1.134   6.186  21.650  0.00  0.00    +0.000 HD
ENDROOT
BRANCH   2   5
ATOM      5  C   UNL     1       1.286   8.534  20.593  0.00  0.00    +0.000 A 
ATOM      6  C   UNL     1       0.972   8.587  21.961  0.00  0.00    +0.000 A 
ATOM      7  C   UNL     1       0.379   9.715  22.537  0.00  0.00    +0.000 A 
ATOM      8  C   UNL     1       0.106  10.772  21.669  0.00  0.00    +0.000 A 
ATOM      9  N   UNL     1      -0.473  11.998  21.839  0.00  0.00    +0.000 N 
ATOM     10  N   UNL     1      -0.539  12.684  20.688  0.00  0.00    +0.000 NA
ATOM     11  N   UNL     1      -0.009  11.923  19.739  0.00  0.00    +0.000 NA
ATOM     12  C   UNL     1       0.396  10.748  20.311  0.00  0.00    +0.000 A 
ATOM     13  C   UNL     1       1.001   9.618  19.745  0.00  0.00    +0.000 A 
ATOM     14  H   UNL     1      -0.842  12.422  22.683  0.00  0.00    +0.000 HD
ENDBRANCH   2   5
BRANCH   3  15
ATOM     15  C   UNL     1       2.246   4.841  20.361  0.00  0.00    +0.000 C 
ATOM     16  C   UNL     1       2.186   3.710  21.406  0.00  0.00    +0.000 C 
ATOM     17  C   UNL     1       1.779   2.765  20.264  0.00  0.00    +0.000 C 
ATOM     18  O   UNL     1       2.806   2.137  19.469  0.00  0.00    +0.000 OA
ATOM     19  C   UNL     1       2.467   2.362  18.096  0.00  0.00    +0.000 C 
ATOM     20  C   UNL     1       1.747   3.714  18.059  0.00  0.00    +0.000 C 
ATOM     21  C   UNL     1       1.273   3.994  19.483  0.00  0.00    +0.000 C 
ENDBRANCH   3  15
TORSDOF 2
ENDMDL
MODEL 9
REMARK VINA RESULT:      -7.0      2.624      7.462
REMARK  Name = 
REMARK  2 active torsions:
REMARK  status: ('A' for Active; 'I' for Inactive)
REMARK    1  A    between atoms: C_2  and  C_11
REMARK    2  A    between atoms: N_3  and  C_4
REMARK                            x       y       z     vdW  Elec       q    Type
REMARK                         _______ _______ _______ _____ _____    ______ ____
ROOT
ATOM      1  O   UNL     1       6.331   4.302  18.776  0.00  0.00    +0.000 OA
ATOM      2  C   UNL     1       5.563   4.336  17.816  0.00  0.00    +0.000 C 
ATOM      3  N   UNL     1       4.192   4.238  17.938  0.00  0.00    +0.000 N 
ATOM      4  H   UNL     1       3.634   4.179  17.096  0.00  0.00    +0.000 HD
ENDROOT
BRANCH   2   5
ATOM      5  C   UNL     1       6.116   4.446  16.443  0.00  0.00    +0.000 A 
ATOM      6  C   UNL     1       7.133   5.388  16.217  0.00  0.00    +0.000 A 
ATOM      7  C   UNL     1       7.686   5.585  14.949  0.00  0.00    +0.000 A 
ATOM      8  C   UNL     1       7.155   4.803  13.923  0.00  0.00    +0.000 A 
ATOM      9  N   UNL     1       7.404   4.722  12.582  0.00  0.00    +0.000 N 
ATOM     10  N   UNL     1       6.618   3.815  11.981  0.00  0.00    +0.000 NA
ATOM     11  N   UNL     1       5.836   3.285  12.913  0.00  0.00    +0.000 NA
ATOM     12  C   UNL     1       6.144   3.870  14.110  0.00  0.00    +0.000 A 
ATOM     13  C   UNL     1       5.604   3.671  15.389  0.00  0.00    +0.000 A 
ATOM     14  H   UNL     1       8.070   5.240  12.020  0.00  0.00    +0.000 HD
ENDBRANCH   2   5
BRANCH   3  15
ATOM     15  C   UNL     1       3.557   4.113  19.264  0.00  0.00    +0.000 C 
ATOM     16  C   UNL     1       3.112   5.446  19.897  0.00  0.00    +0.000 C 
ATOM     17  C   UNL     1       1.840   4.723  20.367  0.00  0.00    +0.000 C 
ATOM     18  O   UNL     1       1.860   4.000  21.615  0.00  0.00    +0.000 OA
ATOM     19  C   UNL     1       1.331   2.695  21.351  0.00  0.00    +0.000 C 
ATOM     20  C   UNL     1       1.723   2.370  19.907  0.00  0.00    +0.000 C 
ATOM     21  C   UNL     1       2.053   3.700  19.234  0.00  0.00    +0.000 C 
ENDBRANCH   3  15
TORSDOF 2
ENDMDL
