MODEL 1
REMARK VINA RESULT:      -7.7      0.000      0.000
REMARK  Name = 
REMARK  9 active torsions:
REMARK  status: ('A' for Active; 'I' for Inactive)
REMARK    1  A    between atoms: C_1  and  C_2
REMARK    2  A    between atoms: C_2  and  C_3
REMARK    3  A    between atoms: C_2  and  N_10
REMARK    4  A    between atoms: C_11  and  C_12
REMARK    5  A    between atoms: C_12  and  O_13
REMARK    6  A    between atoms: O_13  and  C_14
REMARK    7  A    between atoms: C_23  and  S_24
REMARK    8  A    between atoms: S_24  and  C_25
REMARK    9  A    between atoms: C_25  and  C_26
REMARK                            x       y       z     vdW  Elec       q    Type
REMARK                         _______ _______ _______ _____ _____    ______ ____
ROOT
ATOM      1  N   UNL     1       4.070   5.677  17.494  0.00  0.00    +0.000 N 
ATOM      2  C   UNL     1       3.962   7.071  17.531  0.00  0.00    +0.000 A 
ATOM      3  N   UNL     1       5.082   7.589  17.061  0.00  0.00    +0.000 NA
ATOM      4  N   UNL     1       5.857   6.579  16.572  0.00  0.00    +0.000 NA
ATOM      5  C   UNL     1       5.233   5.443  16.778  0.00  0.00    +0.000 A 
ENDROOT
BRANCH   1   7
ATOM      6  C   UNL     1       2.731   3.657  17.021  0.00  0.00    +0.000 C 
ATOM      7  C   UNL     1       3.059   4.761  18.036  0.00  0.00    +0.000 C 
BRANCH   7   8
ATOM      8  C   UNL     1       3.306   4.211  19.471  0.00  0.00    +0.000 C 
ATOM      9  C   UNL     1       3.123   2.668  19.611  0.00  0.00    +0.000 C 
ATOM     10  C   UNL     1       2.153   2.521  20.802  0.00  0.00    +0.000 C 
ATOM     11  C   UNL     1       0.748   2.949  20.352  0.00  0.00    +0.000 C 
ATOM     12  C   UNL     1       0.877   4.473  20.232  0.00  0.00    +0.000 C 
ATOM     13  C   UNL     1       2.353   4.729  20.584  0.00  0.00    +0.000 C 
ATOM     14  C   UNL     1       2.568   3.690  21.692  0.00  0.00    +0.000 C 
ENDBRANCH   7   8
ENDBRANCH   1   7
BRANCH   2  15
ATOM     15  C   UNL     1       2.712   7.870  17.783  0.00  0.00    +0.000 C 
BRANCH  15  16
ATOM     16  O   UNL     1       2.374   7.877  19.175  0.00  0.00    +0.000 OA
BRANCH  16  17
ATOM     17  C   UNL     1       1.381   8.769  19.539  0.00  0.00    +0.000 A 
ATOM     18  C   UNL     1       0.903   9.586  18.503  0.00  0.00    +0.000 A 
ATOM     19  C   UNL     1      -0.089  10.547  18.749  0.00  0.00    +0.000 A 
ATOM     20  C   UNL     1      -0.624  10.706  20.027  0.00  0.00    +0.000 A 
ATOM     21  C   UNL     1      -0.169   9.896  21.059  0.00  0.00    +0.000 A 
ATOM     22  C   UNL     1       0.824   8.941  20.814  0.00  0.00    +0.000 A 
ATOM     23  F   UNL     1       1.225   8.203  21.859  0.00  0.00    +0.000 F 
ENDBRANCH  16  17
ENDBRANCH  15  16
ENDBRANCH   2  15
BRANCH   5  24
ATOM     24  S   UNL     1       5.865   3.914  16.264  0.00  0.00    +0.000 S 
BRANCH  24  25
ATOM     25  C   UNL     1       5.728   3.917  14.438  0.00  0.00    +0.000 C 
BRANCH  25  26
ATOM     26  C   UNL     1       6.907   4.482  13.654  0.00  0.00    +0.000 C 
ATOM     27  N   UNL     1       7.692   5.414  14.262  0.00  0.00    +0.000 N 
ATOM     28  O   UNL     1       7.098   4.212  12.467  0.00  0.00    +0.000 OA
ATOM     29  H   UNL     1       7.440   5.830  15.156  0.00  0.00    +0.000 HD
ATOM     30  H   UNL     1       8.381   5.893  13.697  0.00  0.00    +0.000 HD
ENDBRANCH  25  26
ENDBRANCH  24  25
ENDBRANCH   5  24
TORSDOF 8
ENDMDL
MODEL 2
REMARK VINA RESULT:      -7.7      2.175      2.559
REMARK  Name = 
REMARK  9 active torsions:
REMARK  status: ('A' for Active; 'I' for Inactive)
REMARK    1  A    between atoms: C_1  and  C_2
REMARK    2  A    between atoms: C_2  and  C_3
REMARK    3  A    between atoms: C_2  and  N_10
REMARK    4  A    between atoms: C_11  and  C_12
REMARK    5  A    between atoms: C_12  and  O_13
REMARK    6  A    between atoms: O_13  and  C_14
REMARK    7  A    between atoms: C_23  and  S_24
REMARK    8  A    between atoms: S_24  and  C_25
REMARK    9  A    between atoms: C_25  and  C_26
REMARK                            x       y       z     vdW  Elec       q    Type
REMARK                         _______ _______ _______ _____ _____    ______ ____
ROOT
ATOM      1  N   UNL     1       4.061   5.653  17.692  0.00  0.00    +0.000 N 
ATOM      2  C   UNL     1       3.532   6.947  17.721  0.00  0.00    +0.000 A 
ATOM      3  N   UNL     1       4.465   7.789  17.315  0.00  0.00    +0.000 NA
ATOM      4  N   UNL     1       5.537   7.069  16.873  0.00  0.00    +0.000 NA
ATOM      5  C   UNL     1       5.277   5.795  17.045  0.00  0.00    +0.000 A 
ENDROOT
BRANCH   1   7
ATOM      6  C   UNL     1       3.672   3.246  17.301  0.00  0.00    +0.000 C 
ATOM      7  C   UNL     1       3.348   4.465  18.177  0.00  0.00    +0.000 C 
BRANCH   7   8
ATOM      8  C   UNL     1       3.446   4.159  19.700  0.00  0.00    +0.000 C 
ATOM      9  C   UNL     1       3.447   2.640  20.055  0.00  0.00    +0.000 C 
ATOM     10  C   UNL     1       2.336   2.512  21.117  0.00  0.00    +0.000 C 
ATOM     11  C   UNL     1       0.971   2.656  20.428  0.00  0.00    +0.000 C 
ATOM     12  C   UNL     1       0.917   4.152  20.089  0.00  0.00    +0.000 C 
ATOM     13  C   UNL     1       2.277   4.674  20.585  0.00  0.00    +0.000 C 
ATOM     14  C   UNL     1       2.456   3.840  21.860  0.00  0.00    +0.000 C 
ENDBRANCH   7   8
ENDBRANCH   1   7
BRANCH   2  15
ATOM     15  C   UNL     1       2.086   7.325  17.900  0.00  0.00    +0.000 C 
BRANCH  15  16
ATOM     16  O   UNL     1       1.933   8.743  18.024  0.00  0.00    +0.000 OA
BRANCH  16  17
ATOM     17  C   UNL     1       1.415   9.179  19.230  0.00  0.00    +0.000 A 
ATOM     18  C   UNL     1       1.528   8.271  20.293  0.00  0.00    +0.000 A 
ATOM     19  C   UNL     1       1.021   8.586  21.563  0.00  0.00    +0.000 A 
ATOM     20  C   UNL     1       0.399   9.813  21.795  0.00  0.00    +0.000 A 
ATOM     21  C   UNL     1       0.291  10.727  20.755  0.00  0.00    +0.000 A 
ATOM     22  C   UNL     1       0.792  10.410  19.489  0.00  0.00    +0.000 A 
ATOM     23  F   UNL     1       0.642  11.333  18.529  0.00  0.00    +0.000 F 
ENDBRANCH  16  17
ENDBRANCH  15  16
ENDBRANCH   2  15
BRANCH   5  24
ATOM     24  S   UNL     1       6.372   4.538  16.570  0.00  0.00    +0.000 S 
BRANCH  24  25
ATOM     25  C   UNL     1       7.750   4.610  17.775  0.00  0.00    +0.000 C 
BRANCH  25  26
ATOM     26  C   UNL     1       7.604   5.581  18.940  0.00  0.00    +0.000 C 
ATOM     27  N   UNL     1       8.203   6.800  18.836  0.00  0.00    +0.000 N 
ATOM     28  O   UNL     1       7.069   5.259  20.002  0.00  0.00    +0.000 OA
ATOM     29  H   UNL     1       8.841   7.023  18.075  0.00  0.00    +0.000 HD
ATOM     30  H   UNL     1       8.230   7.385  19.661  0.00  0.00    +0.000 HD
ENDBRANCH  25  26
ENDBRANCH  24  25
ENDBRANCH   5  24
TORSDOF 8
ENDMDL
MODEL 3
REMARK VINA RESULT:      -7.6      3.065      7.162
REMARK  Name = 
REMARK  9 active torsions:
REMARK  status: ('A' for Active; 'I' for Inactive)
REMARK    1  A    between atoms: C_1  and  C_2
REMARK    2  A    between atoms: C_2  and  C_3
REMARK    3  A    between atoms: C_2  and  N_10
REMARK    4  A    between atoms: C_11  and  C_12
REMARK    5  A    between atoms: C_12  and  O_13
REMARK    6  A    between atoms: O_13  and  C_14
REMARK    7  A    between atoms: C_23  and  S_24
REMARK    8  A    between atoms: S_24  and  C_25
REMARK    9  A    between atoms: C_25  and  C_26
REMARK                            x       y       z     vdW  Elec       q    Type
REMARK                         _______ _______ _______ _____ _____    ______ ____
ROOT
ATOM      1  N   UNL     1       4.098   5.892  17.525  0.00  0.00    +0.000 N 
ATOM      2  C   UNL     1       5.133   5.935  16.586  0.00  0.00    +0.000 A 
ATOM      3  N   UNL     1       5.073   7.092  15.951  0.00  0.00    +0.000 NA
ATOM      4  N   UNL     1       4.129   7.870  16.555  0.00  0.00    +0.000 NA
ATOM      5  C   UNL     1       3.585   7.179  17.529  0.00  0.00    +0.000 A 
ENDROOT
BRANCH   1   7
ATOM      6  C   UNL     1       4.453   4.826  19.725  0.00  0.00    +0.000 C 
ATOM      7  C   UNL     1       3.785   4.716  18.347  0.00  0.00    +0.000 C 
BRANCH   7   8
ATOM      8  C   UNL     1       2.288   4.298  18.432  0.00  0.00    +0.000 C 
ATOM      9  C   UNL     1       1.643   4.486  19.840  0.00  0.00    +0.000 C 
ATOM     10  C   UNL     1       1.010   3.112  20.139  0.00  0.00    +0.000 C 
ATOM     11  C   UNL     1       2.128   2.108  20.454  0.00  0.00    +0.000 C 
ATOM     12  C   UNL     1       2.771   1.871  19.081  0.00  0.00    +0.000 C 
ATOM     13  C   UNL     1       1.971   2.802  18.154  0.00  0.00    +0.000 C 
ATOM     14  C   UNL     1       0.565   2.661  18.750  0.00  0.00    +0.000 C 
ENDBRANCH   7   8
ENDBRANCH   1   7
BRANCH   2  15
ATOM     15  C   UNL     1       6.294   4.984  16.481  0.00  0.00    +0.000 C 
BRANCH  15  16
ATOM     16  O   UNL     1       7.210   5.396  15.461  0.00  0.00    +0.000 OA
BRANCH  16  17
ATOM     17  C   UNL     1       6.999   4.836  14.213  0.00  0.00    +0.000 A 
ATOM     18  C   UNL     1       5.916   3.948  14.133  0.00  0.00    +0.000 A 
ATOM     19  C   UNL     1       5.609   3.298  12.928  0.00  0.00    +0.000 A 
ATOM     20  C   UNL     1       6.374   3.526  11.783  0.00  0.00    +0.000 A 
ATOM     21  C   UNL     1       7.442   4.412  11.846  0.00  0.00    +0.000 A 
ATOM     22  C   UNL     1       7.749   5.055  13.049  0.00  0.00    +0.000 A 
ATOM     23  F   UNL     1       8.801   5.887  13.040  0.00  0.00    +0.000 F 
ENDBRANCH  16  17
ENDBRANCH  15  16
ENDBRANCH   2  15
BRANCH   5  24
ATOM     24  S   UNL     1       2.363   7.824  18.575  0.00  0.00    +0.000 S 
BRANCH  24  25
ATOM     25  C   UNL     1       1.874   9.423  17.826  0.00  0.00    +0.000 C 
BRANCH  25  26
ATOM     26  C   UNL     1       0.749  10.194  18.507  0.00  0.00    +0.000 C 
ATOM     27  N   UNL     1      -0.422  10.348  17.830  0.00  0.00    +0.000 N 
ATOM     28  O   UNL     1       0.906  10.771  19.584  0.00  0.00    +0.000 OA
ATOM     29  H   UNL     1      -0.518  10.082  16.852  0.00  0.00    +0.000 HD
ATOM     30  H   UNL     1      -1.113  10.977  18.217  0.00  0.00    +0.000 HD
ENDBRANCH  25  26
ENDBRANCH  24  25
ENDBRANCH   5  24
TORSDOF 8
ENDMDL
MODEL 4
REMARK VINA RESULT:      -7.6      1.642      2.156
REMARK  Name = 
REMARK  9 active torsions:
REMARK  status: ('A' for Active; 'I' for Inactive)
REMARK    1  A    between atoms: C_1  and  C_2
REMARK    2  A    between atoms: C_2  and  C_3
REMARK    3  A    between atoms: C_2  and  N_10
REMARK    4  A    between atoms: C_11  and  C_12
REMARK    5  A    between atoms: C_12  and  O_13
REMARK    6  A    between atoms: O_13  and  C_14
REMARK    7  A    between atoms: C_23  and  S_24
REMARK    8  A    between atoms: S_24  and  C_25
REMARK    9  A    between atoms: C_25  and  C_26
REMARK                            x       y       z     vdW  Elec       q    Type
REMARK                         _______ _______ _______ _____ _____    ______ ____
ROOT
ATOM      1  N   UNL     1       5.166   5.463  17.003  0.00  0.00    +0.000 N 
ATOM      2  C   UNL     1       4.858   6.826  16.958  0.00  0.00    +0.000 A 
ATOM      3  N   UNL     1       5.159   7.283  15.757  0.00  0.00    +0.000 NA
ATOM      4  N   UNL     1       5.506   6.228  14.965  0.00  0.00    +0.000 NA
ATOM      5  C   UNL     1       5.458   5.135  15.689  0.00  0.00    +0.000 A 
ENDROOT
BRANCH   1   7
ATOM      6  C   UNL     1       6.183   4.992  19.204  0.00  0.00    +0.000 C 
ATOM      7  C   UNL     1       5.064   4.639  18.213  0.00  0.00    +0.000 C 
BRANCH   7   8
ATOM      8  C   UNL     1       3.664   4.550  18.888  0.00  0.00    +0.000 C 
ATOM      9  C   UNL     1       3.517   3.392  19.922  0.00  0.00    +0.000 C 
ATOM     10  C   UNL     1       2.239   2.657  19.469  0.00  0.00    +0.000 C 
ATOM     11  C   UNL     1       2.546   1.873  18.185  0.00  0.00    +0.000 C 
ATOM     12  C   UNL     1       2.668   2.980  17.130  0.00  0.00    +0.000 C 
ATOM     13  C   UNL     1       2.460   4.268  17.947  0.00  0.00    +0.000 C 
ATOM     14  C   UNL     1       1.385   3.806  18.939  0.00  0.00    +0.000 C 
ENDBRANCH   7   8
ENDBRANCH   1   7
BRANCH   2  15
ATOM     15  C   UNL     1       4.065   7.604  17.974  0.00  0.00    +0.000 C 
BRANCH  15  16
ATOM     16  O   UNL     1       2.718   7.808  17.533  0.00  0.00    +0.000 OA
BRANCH  16  17
ATOM     17  C   UNL     1       1.889   8.447  18.438  0.00  0.00    +0.000 A 
ATOM     18  C   UNL     1       1.157   9.526  17.918  0.00  0.00    +0.000 A 
ATOM     19  C   UNL     1       0.297  10.270  18.740  0.00  0.00    +0.000 A 
ATOM     20  C   UNL     1       0.148   9.948  20.089  0.00  0.00    +0.000 A 
ATOM     21  C   UNL     1       0.858   8.875  20.613  0.00  0.00    +0.000 A 
ATOM     22  C   UNL     1       1.718   8.137  19.795  0.00  0.00    +0.000 A 
ATOM     23  F   UNL     1       2.381   7.124  20.370  0.00  0.00    +0.000 F 
ENDBRANCH  16  17
ENDBRANCH  15  16
ENDBRANCH   2  15
BRANCH   5  24
ATOM     24  S   UNL     1       5.791   3.561  15.044  0.00  0.00    +0.000 S 
BRANCH  24  25
ATOM     25  C   UNL     1       6.289   3.842  13.304  0.00  0.00    +0.000 C 
BRANCH  25  26
ATOM     26  C   UNL     1       5.558   3.040  12.234  0.00  0.00    +0.000 C 
ATOM     27  N   UNL     1       6.182   1.945  11.718  0.00  0.00    +0.000 N 
ATOM     28  O   UNL     1       4.490   3.414  11.748  0.00  0.00    +0.000 OA
ATOM     29  H   UNL     1       7.154   1.730  11.928  0.00  0.00    +0.000 HD
ATOM     30  H   UNL     1       5.764   1.500  10.911  0.00  0.00    +0.000 HD
ENDBRANCH  25  26
ENDBRANCH  24  25
ENDBRANCH   5  24
TORSDOF 8
ENDMDL
MODEL 5
REMARK VINA RESULT:      -7.5      1.953      2.168
REMARK  Name = 
REMARK  9 active torsions:
REMARK  status: ('A' for Active; 'I' for Inactive)
REMARK    1  A    between atoms: C_1  and  C_2
REMARK    2  A    between atoms: C_2  and  C_3
REMARK    3  A    between atoms: C_2  and  N_10
REMARK    4  A    between atoms: C_11  and  C_12
REMARK    5  A    between atoms: C_12  and  O_13
REMARK    6  A    between atoms: O_13  and  C_14
REMARK    7  A    between atoms: C_23  and  S_24
REMARK    8  A    between atoms: S_24  and  C_25
REMARK    9  A    between atoms: C_25  and  C_26
REMARK                            x       y       z     vdW  Elec       q    Type
REMARK                         _______ _______ _______ _____ _____    ______ ____
ROOT
ATOM      1  N   UNL     1       4.026   5.911  17.729  0.00  0.00    +0.000 N 
ATOM      2  C   UNL     1       3.624   7.249  17.768  0.00  0.00    +0.000 A 
ATOM      3  N   UNL     1       4.638   8.001  17.380  0.00  0.00    +0.000 NA
ATOM      4  N   UNL     1       5.639   7.186  16.938  0.00  0.00    +0.000 NA
ATOM      5  C   UNL     1       5.256   5.940  17.094  0.00  0.00    +0.000 A 
ENDROOT
BRANCH   1   7
ATOM      6  C   UNL     1       3.291   3.608  17.221  0.00  0.00    +0.000 C 
ATOM      7  C   UNL     1       3.196   4.792  18.194  0.00  0.00    +0.000 C 
BRANCH   7   8
ATOM      8  C   UNL     1       3.360   4.367  19.683  0.00  0.00    +0.000 C 
ATOM      9  C   UNL     1       3.490   2.828  19.904  0.00  0.00    +0.000 C 
ATOM     10  C   UNL     1       2.423   2.521  20.975  0.00  0.00    +0.000 C 
ATOM     11  C   UNL     1       1.032   2.614  20.330  0.00  0.00    +0.000 C 
ATOM     12  C   UNL     1       0.852   4.124  20.123  0.00  0.00    +0.000 C 
ATOM     13  C   UNL     1       2.180   4.709  20.634  0.00  0.00    +0.000 C 
ATOM     14  C   UNL     1       2.459   3.787  21.827  0.00  0.00    +0.000 C 
ENDBRANCH   7   8
ENDBRANCH   1   7
BRANCH   2  15
ATOM     15  C   UNL     1       2.220   7.763  17.938  0.00  0.00    +0.000 C 
BRANCH  15  16
ATOM     16  O   UNL     1       1.905   7.959  19.321  0.00  0.00    +0.000 OA
BRANCH  16  17
ATOM     17  C   UNL     1       1.075   9.032  19.594  0.00  0.00    +0.000 A 
ATOM     18  C   UNL     1       0.745   9.828  18.487  0.00  0.00    +0.000 A 
ATOM     19  C   UNL     1      -0.073  10.959  18.635  0.00  0.00    +0.000 A 
ATOM     20  C   UNL     1      -0.578  11.311  19.887  0.00  0.00    +0.000 A 
ATOM     21  C   UNL     1      -0.269  10.524  20.990  0.00  0.00    +0.000 A 
ATOM     22  C   UNL     1       0.549   9.400  20.841  0.00  0.00    +0.000 A 
ATOM     23  F   UNL     1       0.817   8.695  21.949  0.00  0.00    +0.000 F 
ENDBRANCH  16  17
ENDBRANCH  15  16
ENDBRANCH   2  15
BRANCH   5  24
ATOM     24  S   UNL     1       6.229   4.589  16.614  0.00  0.00    +0.000 S 
BRANCH  24  25
ATOM     25  C   UNL     1       7.671   4.600  17.743  0.00  0.00    +0.000 C 
BRANCH  25  26
ATOM     26  C   UNL     1       7.615   5.551  18.933  0.00  0.00    +0.000 C 
ATOM     27  N   UNL     1       8.214   6.768  18.809  0.00  0.00    +0.000 N 
ATOM     28  O   UNL     1       7.154   5.212  20.024  0.00  0.00    +0.000 OA
ATOM     29  H   UNL     1       8.797   7.001  18.008  0.00  0.00    +0.000 HD
ATOM     30  H   UNL     1       8.302   7.338  19.639  0.00  0.00    +0.000 HD
ENDBRANCH  25  26
ENDBRANCH  24  25
ENDBRANCH   5  24
TORSDOF 8
ENDMDL
MODEL 6
REMARK VINA RESULT:      -7.5      1.009      1.367
REMARK  Name = 
REMARK  9 active torsions:
REMARK  status: ('A' for Active; 'I' for Inactive)
REMARK    1  A    between atoms: C_1  and  C_2
REMARK    2  A    between atoms: C_2  and  C_3
REMARK    3  A    between atoms: C_2  and  N_10
REMARK    4  A    between atoms: C_11  and  C_12
REMARK    5  A    between atoms: C_12  and  O_13
REMARK    6  A    between atoms: O_13  and  C_14
REMARK    7  A    between atoms: C_23  and  S_24
REMARK    8  A    between atoms: S_24  and  C_25
REMARK    9  A    between atoms: C_25  and  C_26
REMARK                            x       y       z     vdW  Elec       q    Type
REMARK                         _______ _______ _______ _____ _____    ______ ____
ROOT
ATOM      1  N   UNL     1       3.950   5.648  17.554  0.00  0.00    +0.000 N 
ATOM      2  C   UNL     1       3.612   7.004  17.510  0.00  0.00    +0.000 A 
ATOM      3  N   UNL     1       4.646   7.677  17.040  0.00  0.00    +0.000 NA
ATOM      4  N   UNL     1       5.594   6.786  16.628  0.00  0.00    +0.000 NA
ATOM      5  C   UNL     1       5.159   5.574  16.881  0.00  0.00    +0.000 A 
ENDROOT
BRANCH   1   7
ATOM      6  C   UNL     1       3.056   3.372  17.205  0.00  0.00    +0.000 C 
ATOM      7  C   UNL     1       3.086   4.605  18.120  0.00  0.00    +0.000 C 
BRANCH   7   8
ATOM      8  C   UNL     1       3.311   4.242  19.617  0.00  0.00    +0.000 C 
ATOM      9  C   UNL     1       3.401   2.712  19.905  0.00  0.00    +0.000 C 
ATOM     10  C   UNL     1       2.380   2.492  21.040  0.00  0.00    +0.000 C 
ATOM     11  C   UNL     1       0.962   2.605  20.461  0.00  0.00    +0.000 C 
ATOM     12  C   UNL     1       0.822   4.109  20.192  0.00  0.00    +0.000 C 
ATOM     13  C   UNL     1       2.193   4.669  20.608  0.00  0.00    +0.000 C 
ATOM     14  C   UNL     1       2.502   3.794  21.829  0.00  0.00    +0.000 C 
ENDBRANCH   7   8
ENDBRANCH   1   7
BRANCH   2  15
ATOM     15  C   UNL     1       2.240   7.595  17.686  0.00  0.00    +0.000 C 
BRANCH  15  16
ATOM     16  O   UNL     1       2.310   8.905  18.261  0.00  0.00    +0.000 OA
BRANCH  16  17
ATOM     17  C   UNL     1       1.459   9.130  19.328  0.00  0.00    +0.000 A 
ATOM     18  C   UNL     1       1.646   8.282  20.430  0.00  0.00    +0.000 A 
ATOM     19  C   UNL     1       0.832   8.395  21.568  0.00  0.00    +0.000 A 
ATOM     20  C   UNL     1      -0.176   9.357  21.627  0.00  0.00    +0.000 A 
ATOM     21  C   UNL     1      -0.364  10.211  20.548  0.00  0.00    +0.000 A 
ATOM     22  C   UNL     1       0.444  10.094  19.413  0.00  0.00    +0.000 A 
ATOM     23  F   UNL     1       0.199  10.943  18.404  0.00  0.00    +0.000 F 
ENDBRANCH  16  17
ENDBRANCH  15  16
ENDBRANCH   2  15
BRANCH   5  24
ATOM     24  S   UNL     1       6.052   4.148  16.469  0.00  0.00    +0.000 S 
BRANCH  24  25
ATOM     25  C   UNL     1       5.803   3.918  14.669  0.00  0.00    +0.000 C 
BRANCH  25  26
ATOM     26  C   UNL     1       6.886   4.460  13.743  0.00  0.00    +0.000 C 
ATOM     27  N   UNL     1       7.653   5.492  14.190  0.00  0.00    +0.000 N 
ATOM     28  O   UNL     1       7.009   4.075  12.579  0.00  0.00    +0.000 OA
ATOM     29  H   UNL     1       7.440   5.986  15.054  0.00  0.00    +0.000 HD
ATOM     30  H   UNL     1       8.270   5.944  13.528  0.00  0.00    +0.000 HD
ENDBRANCH  25  26
ENDBRANCH  24  25
ENDBRANCH   5  24
TORSDOF 8
ENDMDL
MODEL 7
REMARK VINA RESULT:      -7.5      1.885      2.497
REMARK  Name = 
REMARK  9 active torsions:
REMARK  status: ('A' for Active; 'I' for Inactive)
REMARK    1  A    between atoms: C_1  and  C_2
REMARK    2  A    between atoms: C_2  and  C_3
REMARK    3  A    between atoms: C_2  and  N_10
REMARK    4  A    between atoms: C_11  and  C_12
REMARK    5  A    between atoms: C_12  and  O_13
REMARK    6  A    between atoms: O_13  and  C_14
REMARK    7  A    between atoms: C_23  and  S_24
REMARK    8  A    between atoms: S_24  and  C_25
REMARK    9  A    between atoms: C_25  and  C_26
REMARK                            x       y       z     vdW  Elec       q    Type
REMARK                         _______ _______ _______ _____ _____    ______ ____
ROOT
ATOM      1  N   UNL     1       5.123   5.365  16.962  0.00  0.00    +0.000 N 
ATOM      2  C   UNL     1       4.935   6.750  16.952  0.00  0.00    +0.000 A 
ATOM      3  N   UNL     1       5.262   7.208  15.757  0.00  0.00    +0.000 NA
ATOM      4  N   UNL     1       5.507   6.145  14.938  0.00  0.00    +0.000 NA
ATOM      5  C   UNL     1       5.371   5.043  15.638  0.00  0.00    +0.000 A 
ENDROOT
BRANCH   1   7
ATOM      6  C   UNL     1       6.097   4.782  19.156  0.00  0.00    +0.000 C 
ATOM      7  C   UNL     1       4.961   4.524  18.155  0.00  0.00    +0.000 C 
BRANCH   7   8
ATOM      8  C   UNL     1       3.555   4.515  18.824  0.00  0.00    +0.000 C 
ATOM      9  C   UNL     1       3.428   3.556  20.047  0.00  0.00    +0.000 C 
ATOM     10  C   UNL     1       2.178   2.713  19.723  0.00  0.00    +0.000 C 
ATOM     11  C   UNL     1       2.524   1.722  18.602  0.00  0.00    +0.000 C 
ATOM     12  C   UNL     1       2.628   2.628  17.367  0.00  0.00    +0.000 C 
ATOM     13  C   UNL     1       2.372   4.033  17.939  0.00  0.00    +0.000 C 
ATOM     14  C   UNL     1       1.299   3.723  18.990  0.00  0.00    +0.000 C 
ENDBRANCH   7   8
ENDBRANCH   1   7
BRANCH   2  15
ATOM     15  C   UNL     1       4.224   7.570  17.995  0.00  0.00    +0.000 C 
BRANCH  15  16
ATOM     16  O   UNL     1       2.833   7.711  17.683  0.00  0.00    +0.000 OA
BRANCH  16  17
ATOM     17  C   UNL     1       2.045   8.214  18.703  0.00  0.00    +0.000 A 
ATOM     18  C   UNL     1       2.080   7.483  19.900  0.00  0.00    +0.000 A 
ATOM     19  C   UNL     1       1.308   7.879  21.004  0.00  0.00    +0.000 A 
ATOM     20  C   UNL     1       0.494   9.010  20.933  0.00  0.00    +0.000 A 
ATOM     21  C   UNL     1       0.460   9.749  19.758  0.00  0.00    +0.000 A 
ATOM     22  C   UNL     1       1.226   9.351  18.657  0.00  0.00    +0.000 A 
ATOM     23  F   UNL     1       1.134  10.104  17.552  0.00  0.00    +0.000 F 
ENDBRANCH  16  17
ENDBRANCH  15  16
ENDBRANCH   2  15
BRANCH   5  24
ATOM     24  S   UNL     1       5.558   3.462  14.954  0.00  0.00    +0.000 S 
BRANCH  24  25
ATOM     25  C   UNL     1       6.187   3.736  13.256  0.00  0.00    +0.000 C 
BRANCH  25  26
ATOM     26  C   UNL     1       5.515   2.957  12.131  0.00  0.00    +0.000 C 
ATOM     27  N   UNL     1       6.186   1.898  11.597  0.00  0.00    +0.000 N 
ATOM     28  O   UNL     1       4.454   3.320  11.622  0.00  0.00    +0.000 OA
ATOM     29  H   UNL     1       7.156   1.701  11.834  0.00  0.00    +0.000 HD
ATOM     30  H   UNL     1       5.809   1.473  10.761  0.00  0.00    +0.000 HD
ENDBRANCH  25  26
ENDBRANCH  24  25
ENDBRANCH   5  24
TORSDOF 8
ENDMDL
MODEL 8
REMARK VINA RESULT:      -7.5      2.507      3.122
REMARK  Name = 
REMARK  9 active torsions:
REMARK  status: ('A' for Active; 'I' for Inactive)
REMARK    1  A    between atoms: C_1  and  C_2
REMARK    2  A    between atoms: C_2  and  C_3
REMARK    3  A    between atoms: C_2  and  N_10
REMARK    4  A    between atoms: C_11  and  C_12
REMARK    5  A    between atoms: C_12  and  O_13
REMARK    6  A    between atoms: O_13  and  C_14
REMARK    7  A    between atoms: C_23  and  S_24
REMARK    8  A    between atoms: S_24  and  C_25
REMARK    9  A    between atoms: C_25  and  C_26
REMARK                            x       y       z     vdW  Elec       q    Type
REMARK                         _______ _______ _______ _____ _____    ______ ____
ROOT
ATOM      1  N   UNL     1       3.788   6.241  18.219  0.00  0.00    +0.000 N 
ATOM      2  C   UNL     1       3.353   7.425  17.617  0.00  0.00    +0.000 A 
ATOM      3  N   UNL     1       4.212   7.753  16.669  0.00  0.00    +0.000 NA
ATOM      4  N   UNL     1       5.111   6.736  16.528  0.00  0.00    +0.000 NA
ATOM      5  C   UNL     1       4.828   5.808  17.412  0.00  0.00    +0.000 A 
ENDROOT
BRANCH   1   7
ATOM      6  C   UNL     1       2.582   6.708  20.323  0.00  0.00    +0.000 C 
ATOM      7  C   UNL     1       3.141   5.628  19.386  0.00  0.00    +0.000 C 
BRANCH   7   8
ATOM      8  C   UNL     1       2.123   4.484  19.104  0.00  0.00    +0.000 C 
ATOM      9  C   UNL     1       0.956   4.391  20.134  0.00  0.00    +0.000 C 
ATOM     10  C   UNL     1       0.973   2.912  20.574  0.00  0.00    +0.000 C 
ATOM     11  C   UNL     1       2.190   2.679  21.481  0.00  0.00    +0.000 C 
ATOM     12  C   UNL     1       3.365   2.732  20.495  0.00  0.00    +0.000 C 
ATOM     13  C   UNL     1       2.681   3.035  19.150  0.00  0.00    +0.000 C 
ATOM     14  C   UNL     1       1.398   2.207  19.289  0.00  0.00    +0.000 C 
ENDBRANCH   7   8
ENDBRANCH   1   7
BRANCH   2  15
ATOM     15  C   UNL     1       2.011   8.083  17.792  0.00  0.00    +0.000 C 
BRANCH  15  16
ATOM     16  O   UNL     1       2.058   9.463  17.412  0.00  0.00    +0.000 OA
BRANCH  16  17
ATOM     17  C   UNL     1       1.531  10.349  18.336  0.00  0.00    +0.000 A 
ATOM     18  C   UNL     1       0.463   9.853  19.098  0.00  0.00    +0.000 A 
ATOM     19  C   UNL     1      -0.171  10.661  20.054  0.00  0.00    +0.000 A 
ATOM     20  C   UNL     1       0.251  11.974  20.268  0.00  0.00    +0.000 A 
ATOM     21  C   UNL     1       1.315  12.474  19.528  0.00  0.00    +0.000 A 
ATOM     22  C   UNL     1       1.943  11.669  18.572  0.00  0.00    +0.000 A 
ATOM     23  F   UNL     1       2.954  12.221  17.886  0.00  0.00    +0.000 F 
ENDBRANCH  16  17
ENDBRANCH  15  16
ENDBRANCH   2  15
BRANCH   5  24
ATOM     24  S   UNL     1       5.712   4.323  17.536  0.00  0.00    +0.000 S 
BRANCH  24  25
ATOM     25  C   UNL     1       7.444   4.813  17.875  0.00  0.00    +0.000 C 
BRANCH  25  26
ATOM     26  C   UNL     1       7.682   5.760  19.045  0.00  0.00    +0.000 C 
ATOM     27  N   UNL     1       8.213   6.986  18.778  0.00  0.00    +0.000 N 
ATOM     28  O   UNL     1       7.521   5.413  20.216  0.00  0.00    +0.000 OA
ATOM     29  H   UNL     1       8.569   7.229  17.856  0.00  0.00    +0.000 HD
ATOM     30  H   UNL     1       8.504   7.555  19.561  0.00  0.00    +0.000 HD
ENDBRANCH  25  26
ENDBRANCH  24  25
ENDBRANCH   5  24
TORSDOF 8
ENDMDL
MODEL 9
REMARK VINA RESULT:      -7.4      1.705      2.326
REMARK  Name = 
REMARK  9 active torsions:
REMARK  status: ('A' for Active; 'I' for Inactive)
REMARK    1  A    between atoms: C_1  and  C_2
REMARK    2  A    between atoms: C_2  and  C_3
REMARK    3  A    between atoms: C_2  and  N_10
REMARK    4  A    between atoms: C_11  and  C_12
REMARK    5  A    between atoms: C_12  and  O_13
REMARK    6  A    between atoms: O_13  and  C_14
REMARK    7  A    between atoms: C_23  and  S_24
REMARK    8  A    between atoms: S_24  and  C_25
REMARK    9  A    between atoms: C_25  and  C_26
REMARK                            x       y       z     vdW  Elec       q    Type
REMARK                         _______ _______ _______ _____ _____    ______ ____
ROOT
ATOM      1  N   UNL     1       3.589   6.400  18.378  0.00  0.00    +0.000 N 
ATOM      2  C   UNL     1       3.054   7.519  17.733  0.00  0.00    +0.000 A 
ATOM      3  N   UNL     1       3.918   7.929  16.823  0.00  0.00    +0.000 NA
ATOM      4  N   UNL     1       4.932   7.019  16.745  0.00  0.00    +0.000 NA
ATOM      5  C   UNL     1       4.711   6.077  17.632  0.00  0.00    +0.000 A 
ENDROOT
BRANCH   1   7
ATOM      6  C   UNL     1       2.339   6.766  20.477  0.00  0.00    +0.000 C 
ATOM      7  C   UNL     1       2.957   5.733  19.523  0.00  0.00    +0.000 C 
BRANCH   7   8
ATOM      8  C   UNL     1       1.995   4.551  19.205  0.00  0.00    +0.000 C 
ATOM      9  C   UNL     1       0.894   4.306  20.283  0.00  0.00    +0.000 C 
ATOM     10  C   UNL     1       1.024   2.803  20.603  0.00  0.00    +0.000 C 
ATOM     11  C   UNL     1       2.302   2.579  21.424  0.00  0.00    +0.000 C 
ATOM     12  C   UNL     1       3.414   2.782  20.387  0.00  0.00    +0.000 C 
ATOM     13  C   UNL     1       2.639   3.141  19.107  0.00  0.00    +0.000 C 
ATOM     14  C   UNL     1       1.417   2.225  19.246  0.00  0.00    +0.000 C 
ENDBRANCH   7   8
ENDBRANCH   1   7
BRANCH   2  15
ATOM     15  C   UNL     1       1.639   8.022  17.830  0.00  0.00    +0.000 C 
BRANCH  15  16
ATOM     16  O   UNL     1       1.577   9.436  17.610  0.00  0.00    +0.000 OA
BRANCH  16  17
ATOM     17  C   UNL     1       0.622  10.109  18.352  0.00  0.00    +0.000 A 
ATOM     18  C   UNL     1       1.099  10.735  19.513  0.00  0.00    +0.000 A 
ATOM     19  C   UNL     1       0.225  11.432  20.362  0.00  0.00    +0.000 A 
ATOM     20  C   UNL     1      -1.135  11.520  20.065  0.00  0.00    +0.000 A 
ATOM     21  C   UNL     1      -1.618  10.915  18.911  0.00  0.00    +0.000 A 
ATOM     22  C   UNL     1      -0.748  10.217  18.069  0.00  0.00    +0.000 A 
ATOM     23  F   UNL     1      -1.285   9.647  16.981  0.00  0.00    +0.000 F 
ENDBRANCH  16  17
ENDBRANCH  15  16
ENDBRANCH   2  15
BRANCH   5  24
ATOM     24  S   UNL     1       5.749   4.704  17.827  0.00  0.00    +0.000 S 
BRANCH  24  25
ATOM     25  C   UNL     1       5.690   3.816  16.226  0.00  0.00    +0.000 C 
BRANCH  25  26
ATOM     26  C   UNL     1       6.571   4.349  15.102  0.00  0.00    +0.000 C 
ATOM     27  N   UNL     1       7.416   5.379  15.385  0.00  0.00    +0.000 N 
ATOM     28  O   UNL     1       6.459   3.960  13.939  0.00  0.00    +0.000 OA
ATOM     29  H   UNL     1       7.379   5.876  16.272  0.00  0.00    +0.000 HD
ATOM     30  H   UNL     1       7.892   5.826  14.613  0.00  0.00    +0.000 HD
ENDBRANCH  25  26
ENDBRANCH  24  25
ENDBRANCH   5  24
TORSDOF 8
ENDMDL
