MODEL 1
REMARK VINA RESULT:      -6.7      0.000      0.000
REMARK  Name = 
REMARK  5 active torsions:
REMARK  status: ('A' for Active; 'I' for Inactive)
REMARK    1  A    between atoms: C_1  and  S_2
REMARK    2  A    between atoms: S_2  and  N_5
REMARK    3  A    between atoms: C_9  and  S_10
REMARK    4  A    between atoms: S_10  and  C_11
REMARK    5  A    between atoms: C_11  and  C_12
REMARK                            x       y       z     vdW  Elec       q    Type
REMARK                         _______ _______ _______ _____ _____    ______ ____
ROOT
ATOM      1  N   UNL     1       6.519   5.309  17.091  0.00  0.00    +0.000 N 
ATOM      2  C   UNL     1       7.698   4.686  17.697  0.00  0.00    +0.000 C 
ATOM      3  C   UNL     1       7.594   5.241  19.112  0.00  0.00    +0.000 C 
ATOM      4  N   UNL     1       6.188   5.680  19.306  0.00  0.00    +0.000 NA
ATOM      5  C   UNL     1       5.672   5.762  18.115  0.00  0.00    +0.000 C 
ENDROOT
BRANCH   1   7
ATOM      6  C   UNL     1       5.860   3.710  15.021  0.00  0.00    +0.000 C 
ATOM      7  S   UNL     1       6.426   5.354  15.437  0.00  0.00    +0.000 S 
ATOM      8  O   UNL     1       7.781   5.470  14.930  0.00  0.00    +0.000 OA
ATOM      9  O   UNL     1       5.408   6.285  15.011  0.00  0.00    +0.000 OA
ENDBRANCH   1   7
BRANCH   5  10
ATOM     10  S   UNL     1       4.058   6.316  17.867  0.00  0.00    +0.000 S 
BRANCH  10  11
ATOM     11  C   UNL     1       3.249   4.719  17.516  0.00  0.00    +0.000 C 
BRANCH  11  12
ATOM     12  C   UNL     1       2.481   4.164  18.694  0.00  0.00    +0.000 A 
ATOM     13  C   UNL     1       1.493   3.185  18.507  0.00  0.00    +0.000 A 
ATOM     14  C   UNL     1       0.785   2.672  19.597  0.00  0.00    +0.000 A 
ATOM     15  C   UNL     1       1.056   3.130  20.885  0.00  0.00    +0.000 A 
ATOM     16  C   UNL     1       2.044   4.091  21.085  0.00  0.00    +0.000 A 
ATOM     17  C   UNL     1       2.753   4.606  19.998  0.00  0.00    +0.000 A 
ENDBRANCH  11  12
ENDBRANCH  10  11
ENDBRANCH   5  10
TORSDOF 4
ENDMDL
MODEL 2
REMARK VINA RESULT:      -6.5      1.994      2.870
REMARK  Name = 
REMARK  5 active torsions:
REMARK  status: ('A' for Active; 'I' for Inactive)
REMARK    1  A    between atoms: C_1  and  S_2
REMARK    2  A    between atoms: S_2  and  N_5
REMARK    3  A    between atoms: C_9  and  S_10
REMARK    4  A    between atoms: S_10  and  C_11
REMARK    5  A    between atoms: C_11  and  C_12
REMARK                            x       y       z     vdW  Elec       q    Type
REMARK                         _______ _______ _______ _____ _____    ______ ____
ROOT
ATOM      1  N   UNL     1       6.296   5.050  17.334  0.00  0.00    +0.000 N 
ATOM      2  C   UNL     1       6.777   4.305  16.168  0.00  0.00    +0.000 C 
ATOM      3  C   UNL     1       5.447   3.895  15.549  0.00  0.00    +0.000 C 
ATOM      4  N   UNL     1       4.412   4.811  16.092  0.00  0.00    +0.000 NA
ATOM      5  C   UNL     1       4.944   5.371  17.138  0.00  0.00    +0.000 C 
ENDROOT
BRANCH   1   7
ATOM      6  C   UNL     1       7.888   7.024  18.253  0.00  0.00    +0.000 C 
ATOM      7  S   UNL     1       7.366   5.343  18.565  0.00  0.00    +0.000 S 
ATOM      8  O   UNL     1       8.525   4.497  18.343  0.00  0.00    +0.000 OA
ATOM      9  O   UNL     1       6.689   5.329  19.840  0.00  0.00    +0.000 OA
ENDBRANCH   1   7
BRANCH   5  10
ATOM     10  S   UNL     1       4.051   6.465  18.128  0.00  0.00    +0.000 S 
BRANCH  10  11
ATOM     11  C   UNL     1       2.373   5.801  17.863  0.00  0.00    +0.000 C 
BRANCH  11  12
ATOM     12  C   UNL     1       1.991   4.724  18.852  0.00  0.00    +0.000 A 
ATOM     13  C   UNL     1       2.135   4.935  20.232  0.00  0.00    +0.000 A 
ATOM     14  C   UNL     1       1.781   3.939  21.146  0.00  0.00    +0.000 A 
ATOM     15  C   UNL     1       1.278   2.721  20.692  0.00  0.00    +0.000 A 
ATOM     16  C   UNL     1       1.118   2.503  19.325  0.00  0.00    +0.000 A 
ATOM     17  C   UNL     1       1.472   3.498  18.410  0.00  0.00    +0.000 A 
ENDBRANCH  11  12
ENDBRANCH  10  11
ENDBRANCH   5  10
TORSDOF 4
ENDMDL
MODEL 3
REMARK VINA RESULT:      -6.4      2.131      2.812
REMARK  Name = 
REMARK  5 active torsions:
REMARK  status: ('A' for Active; 'I' for Inactive)
REMARK    1  A    between atoms: C_1  and  S_2
REMARK    2  A    between atoms: S_2  and  N_5
REMARK    3  A    between atoms: C_9  and  S_10
REMARK    4  A    between atoms: S_10  and  C_11
REMARK    5  A    between atoms: C_11  and  C_12
REMARK                            x       y       z     vdW  Elec       q    Type
REMARK                         _______ _______ _______ _____ _____    ______ ____
ROOT
ATOM      1  N   UNL     1       6.471   5.009  16.756  0.00  0.00    +0.000 N 
ATOM      2  C   UNL     1       7.376   5.014  15.604  0.00  0.00    +0.000 C 
ATOM      3  C   UNL     1       6.521   4.262  14.591  0.00  0.00    +0.000 C 
ATOM      4  N   UNL     1       5.114   4.346  15.061  0.00  0.00    +0.000 NA
ATOM      5  C   UNL     1       5.176   4.704  16.310  0.00  0.00    +0.000 C 
ENDROOT
BRANCH   1   7
ATOM      6  C   UNL     1       7.752   6.995  18.055  0.00  0.00    +0.000 C 
ATOM      7  S   UNL     1       7.110   5.338  18.249  0.00  0.00    +0.000 S 
ATOM      8  O   UNL     1       8.256   4.464  18.432  0.00  0.00    +0.000 OA
ATOM      9  O   UNL     1       6.069   5.389  19.246  0.00  0.00    +0.000 OA
ENDBRANCH   1   7
BRANCH   5  10
ATOM     10  S   UNL     1       3.756   4.851  17.277  0.00  0.00    +0.000 S 
BRANCH  10  11
ATOM     11  C   UNL     1       3.675   3.155  17.944  0.00  0.00    +0.000 C 
BRANCH  11  12
ATOM     12  C   UNL     1       2.850   3.045  19.206  0.00  0.00    +0.000 A 
ATOM     13  C   UNL     1       1.486   3.371  19.199  0.00  0.00    +0.000 A 
ATOM     14  C   UNL     1       0.723   3.268  20.366  0.00  0.00    +0.000 A 
ATOM     15  C   UNL     1       1.316   2.838  21.551  0.00  0.00    +0.000 A 
ATOM     16  C   UNL     1       2.667   2.497  21.568  0.00  0.00    +0.000 A 
ATOM     17  C   UNL     1       3.430   2.600  20.404  0.00  0.00    +0.000 A 
ENDBRANCH  11  12
ENDBRANCH  10  11
ENDBRANCH   5  10
TORSDOF 4
ENDMDL
MODEL 4
REMARK VINA RESULT:      -6.3      1.168      1.347
REMARK  Name = 
REMARK  5 active torsions:
REMARK  status: ('A' for Active; 'I' for Inactive)
REMARK    1  A    between atoms: C_1  and  S_2
REMARK    2  A    between atoms: S_2  and  N_5
REMARK    3  A    between atoms: C_9  and  S_10
REMARK    4  A    between atoms: S_10  and  C_11
REMARK    5  A    between atoms: C_11  and  C_12
REMARK                            x       y       z     vdW  Elec       q    Type
REMARK                         _______ _______ _______ _____ _____    ______ ____
ROOT
ATOM      1  N   UNL     1       6.542   5.112  17.264  0.00  0.00    +0.000 N 
ATOM      2  C   UNL     1       7.802   4.710  17.895  0.00  0.00    +0.000 C 
ATOM      3  C   UNL     1       7.619   5.336  19.273  0.00  0.00    +0.000 C 
ATOM      4  N   UNL     1       6.164   5.574  19.453  0.00  0.00    +0.000 NA
ATOM      5  C   UNL     1       5.640   5.501  18.265  0.00  0.00    +0.000 C 
ENDROOT
BRANCH   1   7
ATOM      6  C   UNL     1       5.352   6.394  15.211  0.00  0.00    +0.000 C 
ATOM      7  S   UNL     1       6.441   5.034  15.612  0.00  0.00    +0.000 S 
ATOM      8  O   UNL     1       5.727   3.814  15.278  0.00  0.00    +0.000 OA
ATOM      9  O   UNL     1       7.723   5.313  15.011  0.00  0.00    +0.000 OA
ENDBRANCH   1   7
BRANCH   5  10
ATOM     10  S   UNL     1       3.961   5.793  18.000  0.00  0.00    +0.000 S 
BRANCH  10  11
ATOM     11  C   UNL     1       3.375   4.069  17.889  0.00  0.00    +0.000 C 
BRANCH  11  12
ATOM     12  C   UNL     1       2.689   3.587  19.146  0.00  0.00    +0.000 A 
ATOM     13  C   UNL     1       1.291   3.628  19.259  0.00  0.00    +0.000 A 
ATOM     14  C   UNL     1       0.657   3.181  20.421  0.00  0.00    +0.000 A 
ATOM     15  C   UNL     1       1.412   2.687  21.483  0.00  0.00    +0.000 A 
ATOM     16  C   UNL     1       2.800   2.627  21.378  0.00  0.00    +0.000 A 
ATOM     17  C   UNL     1       3.435   3.074  20.218  0.00  0.00    +0.000 A 
ENDBRANCH  11  12
ENDBRANCH  10  11
ENDBRANCH   5  10
TORSDOF 4
ENDMDL
MODEL 5
REMARK VINA RESULT:      -6.3      1.789      2.284
REMARK  Name = 
REMARK  5 active torsions:
REMARK  status: ('A' for Active; 'I' for Inactive)
REMARK    1  A    between atoms: C_1  and  S_2
REMARK    2  A    between atoms: S_2  and  N_5
REMARK    3  A    between atoms: C_9  and  S_10
REMARK    4  A    between atoms: S_10  and  C_11
REMARK    5  A    between atoms: C_11  and  C_12
REMARK                            x       y       z     vdW  Elec       q    Type
REMARK                         _______ _______ _______ _____ _____    ______ ____
ROOT
ATOM      1  N   UNL     1       6.444   4.768  17.302  0.00  0.00    +0.000 N 
ATOM      2  C   UNL     1       7.546   5.406  18.027  0.00  0.00    +0.000 C 
ATOM      3  C   UNL     1       6.921   5.518  19.412  0.00  0.00    +0.000 C 
ATOM      4  N   UNL     1       5.804   4.541  19.467  0.00  0.00    +0.000 NA
ATOM      5  C   UNL     1       5.548   4.221  18.233  0.00  0.00    +0.000 C 
ENDROOT
BRANCH   1   7
ATOM      6  C   UNL     1       5.210   6.023  15.258  0.00  0.00    +0.000 C 
ATOM      7  S   UNL     1       6.471   4.817  15.645  0.00  0.00    +0.000 S 
ATOM      8  O   UNL     1       5.985   3.535  15.166  0.00  0.00    +0.000 OA
ATOM      9  O   UNL     1       7.731   5.338  15.174  0.00  0.00    +0.000 OA
ENDBRANCH   1   7
BRANCH   5  10
ATOM     10  S   UNL     1       4.255   3.154  17.827  0.00  0.00    +0.000 S 
BRANCH  10  11
ATOM     11  C   UNL     1       3.005   4.384  17.324  0.00  0.00    +0.000 C 
BRANCH  11  12
ATOM     12  C   UNL     1       2.569   5.291  18.452  0.00  0.00    +0.000 A 
ATOM     13  C   UNL     1       2.088   4.756  19.656  0.00  0.00    +0.000 A 
ATOM     14  C   UNL     1       1.686   5.596  20.699  0.00  0.00    +0.000 A 
ATOM     15  C   UNL     1       1.762   6.979  20.549  0.00  0.00    +0.000 A 
ATOM     16  C   UNL     1       2.251   7.523  19.364  0.00  0.00    +0.000 A 
ATOM     17  C   UNL     1       2.652   6.686  18.321  0.00  0.00    +0.000 A 
ENDBRANCH  11  12
ENDBRANCH  10  11
ENDBRANCH   5  10
TORSDOF 4
ENDMDL
MODEL 6
REMARK VINA RESULT:      -6.3      1.222      1.630
REMARK  Name = 
REMARK  5 active torsions:
REMARK  status: ('A' for Active; 'I' for Inactive)
REMARK    1  A    between atoms: C_1  and  S_2
REMARK    2  A    between atoms: S_2  and  N_5
REMARK    3  A    between atoms: C_9  and  S_10
REMARK    4  A    between atoms: S_10  and  C_11
REMARK    5  A    between atoms: C_11  and  C_12
REMARK                            x       y       z     vdW  Elec       q    Type
REMARK                         _______ _______ _______ _____ _____    ______ ____
ROOT
ATOM      1  N   UNL     1       6.483   5.010  17.152  0.00  0.00    +0.000 N 
ATOM      2  C   UNL     1       7.728   4.793  17.893  0.00  0.00    +0.000 C 
ATOM      3  C   UNL     1       7.371   5.465  19.213  0.00  0.00    +0.000 C 
ATOM      4  N   UNL     1       5.889   5.540  19.278  0.00  0.00    +0.000 NA
ATOM      5  C   UNL     1       5.468   5.343  18.063  0.00  0.00    +0.000 C 
ENDROOT
BRANCH   1   7
ATOM      6  C   UNL     1       5.287   6.005  14.949  0.00  0.00    +0.000 C 
ATOM      7  S   UNL     1       6.517   4.833  15.505  0.00  0.00    +0.000 S 
ATOM      8  O   UNL     1       6.001   3.510  15.200  0.00  0.00    +0.000 OA
ATOM      9  O   UNL     1       7.791   5.256  14.976  0.00  0.00    +0.000 OA
ENDBRANCH   1   7
BRANCH   5  10
ATOM     10  S   UNL     1       3.793   5.422  17.665  0.00  0.00    +0.000 S 
BRANCH  10  11
ATOM     11  C   UNL     1       3.366   3.656  17.832  0.00  0.00    +0.000 C 
BRANCH  11  12
ATOM     12  C   UNL     1       2.688   3.325  19.141  0.00  0.00    +0.000 A 
ATOM     13  C   UNL     1       3.428   2.827  20.224  0.00  0.00    +0.000 A 
ATOM     14  C   UNL     1       2.801   2.522  21.435  0.00  0.00    +0.000 A 
ATOM     15  C   UNL     1       1.428   2.711  21.578  0.00  0.00    +0.000 A 
ATOM     16  C   UNL     1       0.684   3.218  20.515  0.00  0.00    +0.000 A 
ATOM     17  C   UNL     1       1.309   3.523  19.304  0.00  0.00    +0.000 A 
ENDBRANCH  11  12
ENDBRANCH  10  11
ENDBRANCH   5  10
TORSDOF 4
ENDMDL
MODEL 7
REMARK VINA RESULT:      -6.3      1.059      1.681
REMARK  Name = 
REMARK  5 active torsions:
REMARK  status: ('A' for Active; 'I' for Inactive)
REMARK    1  A    between atoms: C_1  and  S_2
REMARK    2  A    between atoms: S_2  and  N_5
REMARK    3  A    between atoms: C_9  and  S_10
REMARK    4  A    between atoms: S_10  and  C_11
REMARK    5  A    between atoms: C_11  and  C_12
REMARK                            x       y       z     vdW  Elec       q    Type
REMARK                         _______ _______ _______ _____ _____    ______ ____
ROOT
ATOM      1  N   UNL     1       6.223   5.258  16.962  0.00  0.00    +0.000 N 
ATOM      2  C   UNL     1       7.504   4.617  17.270  0.00  0.00    +0.000 C 
ATOM      3  C   UNL     1       7.778   5.219  18.642  0.00  0.00    +0.000 C 
ATOM      4  N   UNL     1       6.478   5.708  19.171  0.00  0.00    +0.000 NA
ATOM      5  C   UNL     1       5.677   5.769  18.149  0.00  0.00    +0.000 C 
ENDROOT
BRANCH   1   7
ATOM      6  C   UNL     1       7.201   4.863  14.479  0.00  0.00    +0.000 C 
ATOM      7  S   UNL     1       5.710   5.255  15.385  0.00  0.00    +0.000 S 
ATOM      8  O   UNL     1       5.359   6.621  15.041  0.00  0.00    +0.000 OA
ATOM      9  O   UNL     1       4.770   4.184  15.160  0.00  0.00    +0.000 OA
ENDBRANCH   1   7
BRANCH   5  10
ATOM     10  S   UNL     1       4.066   6.365  18.300  0.00  0.00    +0.000 S 
BRANCH  10  11
ATOM     11  C   UNL     1       3.546   5.437  19.782  0.00  0.00    +0.000 C 
BRANCH  11  12
ATOM     12  C   UNL     1       2.591   4.306  19.477  0.00  0.00    +0.000 A 
ATOM     13  C   UNL     1       1.455   4.093  20.273  0.00  0.00    +0.000 A 
ATOM     14  C   UNL     1       0.572   3.048  19.990  0.00  0.00    +0.000 A 
ATOM     15  C   UNL     1       0.814   2.204  18.907  0.00  0.00    +0.000 A 
ATOM     16  C   UNL     1       1.930   2.413  18.100  0.00  0.00    +0.000 A 
ATOM     17  C   UNL     1       2.814   3.457  18.382  0.00  0.00    +0.000 A 
ENDBRANCH  11  12
ENDBRANCH  10  11
ENDBRANCH   5  10
TORSDOF 4
ENDMDL
MODEL 8
REMARK VINA RESULT:      -6.2      0.979      1.523
REMARK  Name = 
REMARK  5 active torsions:
REMARK  status: ('A' for Active; 'I' for Inactive)
REMARK    1  A    between atoms: C_1  and  S_2
REMARK    2  A    between atoms: S_2  and  N_5
REMARK    3  A    between atoms: C_9  and  S_10
REMARK    4  A    between atoms: S_10  and  C_11
REMARK    5  A    between atoms: C_11  and  C_12
REMARK                            x       y       z     vdW  Elec       q    Type
REMARK                         _______ _______ _______ _____ _____    ______ ____
ROOT
ATOM      1  N   UNL     1       6.450   5.066  16.876  0.00  0.00    +0.000 N 
ATOM      2  C   UNL     1       7.587   5.527  17.677  0.00  0.00    +0.000 C 
ATOM      3  C   UNL     1       6.988   5.418  19.074  0.00  0.00    +0.000 C 
ATOM      4  N   UNL     1       5.833   4.487  18.982  0.00  0.00    +0.000 NA
ATOM      5  C   UNL     1       5.547   4.398  17.716  0.00  0.00    +0.000 C 
ENDROOT
BRANCH   1   7
ATOM      6  C   UNL     1       6.063   3.824  14.513  0.00  0.00    +0.000 C 
ATOM      7  S   UNL     1       6.454   5.404  15.253  0.00  0.00    +0.000 S 
ATOM      8  O   UNL     1       7.823   5.713  14.879  0.00  0.00    +0.000 OA
ATOM      9  O   UNL     1       5.386   6.316  14.921  0.00  0.00    +0.000 OA
ENDBRANCH   1   7
BRANCH   5  10
ATOM     10  S   UNL     1       4.207   3.467  17.159  0.00  0.00    +0.000 S 
BRANCH  10  11
ATOM     11  C   UNL     1       2.844   4.484  17.820  0.00  0.00    +0.000 C 
BRANCH  11  12
ATOM     12  C   UNL     1       2.258   3.940  19.102  0.00  0.00    +0.000 A 
ATOM     13  C   UNL     1       2.697   4.413  20.348  0.00  0.00    +0.000 A 
ATOM     14  C   UNL     1       2.153   3.911  21.533  0.00  0.00    +0.000 A 
ATOM     15  C   UNL     1       1.164   2.931  21.487  0.00  0.00    +0.000 A 
ATOM     16  C   UNL     1       0.709   2.462  20.256  0.00  0.00    +0.000 A 
ATOM     17  C   UNL     1       1.251   2.963  19.071  0.00  0.00    +0.000 A 
ENDBRANCH  11  12
ENDBRANCH  10  11
ENDBRANCH   5  10
TORSDOF 4
ENDMDL
MODEL 9
REMARK VINA RESULT:      -6.2      3.402      6.087
REMARK  Name = 
REMARK  5 active torsions:
REMARK  status: ('A' for Active; 'I' for Inactive)
REMARK    1  A    between atoms: C_1  and  S_2
REMARK    2  A    between atoms: S_2  and  N_5
REMARK    3  A    between atoms: C_9  and  S_10
REMARK    4  A    between atoms: S_10  and  C_11
REMARK    5  A    between atoms: C_11  and  C_12
REMARK                            x       y       z     vdW  Elec       q    Type
REMARK                         _______ _______ _______ _____ _____    ______ ____
ROOT
ATOM      1  N   UNL     1       2.706   3.369  19.382  0.00  0.00    +0.000 N 
ATOM      2  C   UNL     1       3.109   1.961  19.413  0.00  0.00    +0.000 C 
ATOM      3  C   UNL     1       3.528   1.773  17.960  0.00  0.00    +0.000 C 
ATOM      4  N   UNL     1       3.792   3.125  17.404  0.00  0.00    +0.000 NA
ATOM      5  C   UNL     1       3.235   3.965  18.227  0.00  0.00    +0.000 C 
ENDROOT
BRANCH   1   7
ATOM      6  C   UNL     1       1.759   2.571  21.778  0.00  0.00    +0.000 C 
ATOM      7  S   UNL     1       1.770   3.938  20.626  0.00  0.00    +0.000 S 
ATOM      8  O   UNL     1       0.415   4.072  20.123  0.00  0.00    +0.000 OA
ATOM      9  O   UNL     1       2.416   5.051  21.279  0.00  0.00    +0.000 OA
ENDBRANCH   1   7
BRANCH   5  10
ATOM     10  S   UNL     1       3.236   5.662  17.922  0.00  0.00    +0.000 S 
BRANCH  10  11
ATOM     11  C   UNL     1       4.662   5.758  16.788  0.00  0.00    +0.000 C 
BRANCH  11  12
ATOM     12  C   UNL     1       5.934   6.216  17.463  0.00  0.00    +0.000 A 
ATOM     13  C   UNL     1       6.526   5.445  18.474  0.00  0.00    +0.000 A 
ATOM     14  C   UNL     1       7.703   5.869  19.097  0.00  0.00    +0.000 A 
ATOM     15  C   UNL     1       8.302   7.068  18.715  0.00  0.00    +0.000 A 
ATOM     16  C   UNL     1       7.733   7.836  17.703  0.00  0.00    +0.000 A 
ATOM     17  C   UNL     1       6.556   7.414  17.080  0.00  0.00    +0.000 A 
ENDBRANCH  11  12
ENDBRANCH  10  11
ENDBRANCH   5  10
TORSDOF 4
ENDMDL
