MODEL 1
REMARK VINA RESULT:      -6.0      0.000      0.000
REMARK  Name = 
REMARK  8 active torsions:
REMARK  status: ('A' for Active; 'I' for Inactive)
REMARK    1  A    between atoms: C_1  and  C_2
REMARK    2  A    between atoms: C_2  and  N_3
REMARK    3  A    between atoms: N_3  and  C_4
REMARK    4  A    between atoms: N_13  and  C_14
REMARK    5  A    between atoms: C_14  and  O_15
REMARK    6  A    between atoms: O_15  and  C_16
REMARK    7  A    between atoms: C_16  and  C_17
REMARK    8  A    between atoms: C_17  and  O_18
REMARK                            x       y       z     vdW  Elec       q    Type
REMARK                         _______ _______ _______ _____ _____    ______ ____
ROOT
ATOM      1  C   UNL     1       2.332   5.189  18.976  0.00  0.00    +0.000 A 
ATOM      2  N   UNL     1       2.128   6.521  19.106  0.00  0.00    +0.000 NA
ATOM      3  C   UNL     1       2.883   7.368  18.383  0.00  0.00    +0.000 A 
ATOM      4  N   UNL     1       3.860   7.070  17.506  0.00  0.00    +0.000 NA
ATOM      5  C   UNL     1       4.030   5.745  17.382  0.00  0.00    +0.000 A 
ATOM      6  C   UNL     1       3.319   4.759  18.066  0.00  0.00    +0.000 A 
ATOM      7  C   UNL     1       3.828   3.511  17.617  0.00  0.00    +0.000 A 
ATOM      8 CL   UNL     1       3.290   1.974  18.119  0.00  0.00    +0.000 Cl
ATOM      9  C   UNL     1       4.820   3.753  16.703  0.00  0.00    +0.000 A 
ATOM     10  N   UNL     1       4.936   5.116  16.558  0.00  0.00    +0.000 N 
ENDROOT
BRANCH   1  11
ATOM     11  N   UNL     1       1.594   4.287  19.743  0.00  0.00    +0.000 N 
ATOM     12  H   UNL     1       0.596   4.469  19.670  0.00  0.00    +0.000 HD
BRANCH  11  14
ATOM     13  C   UNL     1       1.611   2.699  21.573  0.00  0.00    +0.000 C 
ATOM     14  C   UNL     1       2.072   4.069  21.097  0.00  0.00    +0.000 C 
ENDBRANCH  11  14
ENDBRANCH   1  11
BRANCH  10  15
ATOM     15  C   UNL     1       5.928   5.765  15.714  0.00  0.00    +0.000 C 
BRANCH  15  16
ATOM     16  O   UNL     1       7.217   5.623  16.325  0.00  0.00    +0.000 OA
BRANCH  16  17
ATOM     17  C   UNL     1       7.424   6.637  17.320  0.00  0.00    +0.000 C 
BRANCH  17  18
ATOM     18  C   UNL     1       7.687   5.978  18.673  0.00  0.00    +0.000 C 
BRANCH  18  19
ATOM     19  O   UNL     1       7.814   4.566  18.533  0.00  0.00    +0.000 OA
ATOM     20  H   UNL     1       8.438   4.284  19.228  0.00  0.00    +0.000 HD
ENDBRANCH  18  19
ENDBRANCH  17  18
ENDBRANCH  16  17
ENDBRANCH  15  16
ENDBRANCH  10  15
TORSDOF 7
ENDMDL
MODEL 2
REMARK VINA RESULT:      -6.0      2.572      4.868
REMARK  Name = 
REMARK  8 active torsions:
REMARK  status: ('A' for Active; 'I' for Inactive)
REMARK    1  A    between atoms: C_1  and  C_2
REMARK    2  A    between atoms: C_2  and  N_3
REMARK    3  A    between atoms: N_3  and  C_4
REMARK    4  A    between atoms: N_13  and  C_14
REMARK    5  A    between atoms: C_14  and  O_15
REMARK    6  A    between atoms: O_15  and  C_16
REMARK    7  A    between atoms: C_16  and  C_17
REMARK    8  A    between atoms: C_17  and  O_18
REMARK                            x       y       z     vdW  Elec       q    Type
REMARK                         _______ _______ _______ _____ _____    ______ ____
ROOT
ATOM      1  C   UNL     1       4.640   6.511  17.088  0.00  0.00    +0.000 A 
ATOM      2  N   UNL     1       3.906   7.480  17.684  0.00  0.00    +0.000 NA
ATOM      3  C   UNL     1       2.766   7.138  18.311  0.00  0.00    +0.000 A 
ATOM      4  N   UNL     1       2.221   5.913  18.439  0.00  0.00    +0.000 NA
ATOM      5  C   UNL     1       2.977   4.970  17.856  0.00  0.00    +0.000 A 
ATOM      6  C   UNL     1       4.176   5.183  17.177  0.00  0.00    +0.000 A 
ATOM      7  C   UNL     1       4.622   3.909  16.736  0.00  0.00    +0.000 A 
ATOM      8 CL   UNL     1       6.056   3.595  15.872  0.00  0.00    +0.000 Cl
ATOM      9  C   UNL     1       3.705   2.970  17.133  0.00  0.00    +0.000 A 
ATOM     10  N   UNL     1       2.707   3.620  17.821  0.00  0.00    +0.000 N 
ENDROOT
BRANCH   1  11
ATOM     11  N   UNL     1       5.805   6.841  16.393  0.00  0.00    +0.000 N 
ATOM     12  H   UNL     1       6.085   6.093  15.765  0.00  0.00    +0.000 HD
BRANCH  11  14
ATOM     13  C   UNL     1       7.489   6.290  18.046  0.00  0.00    +0.000 C 
ATOM     14  C   UNL     1       6.883   7.395  17.194  0.00  0.00    +0.000 C 
ENDBRANCH  11  14
ENDBRANCH   1  11
BRANCH  10  15
ATOM     15  C   UNL     1       1.521   2.965  18.351  0.00  0.00    +0.000 C 
BRANCH  15  16
ATOM     16  O   UNL     1       1.857   2.343  19.598  0.00  0.00    +0.000 OA
BRANCH  16  17
ATOM     17  C   UNL     1       1.187   2.991  20.689  0.00  0.00    +0.000 C 
BRANCH  17  18
ATOM     18  C   UNL     1       2.220   3.629  21.618  0.00  0.00    +0.000 C 
BRANCH  18  19
ATOM     19  O   UNL     1       2.432   4.994  21.275  0.00  0.00    +0.000 OA
ATOM     20  H   UNL     1       3.005   5.359  21.975  0.00  0.00    +0.000 HD
ENDBRANCH  18  19
ENDBRANCH  17  18
ENDBRANCH  16  17
ENDBRANCH  15  16
ENDBRANCH  10  15
TORSDOF 7
ENDMDL
MODEL 3
REMARK VINA RESULT:      -6.0      1.904      2.742
REMARK  Name = 
REMARK  8 active torsions:
REMARK  status: ('A' for Active; 'I' for Inactive)
REMARK    1  A    between atoms: C_1  and  C_2
REMARK    2  A    between atoms: C_2  and  N_3
REMARK    3  A    between atoms: N_3  and  C_4
REMARK    4  A    between atoms: N_13  and  C_14
REMARK    5  A    between atoms: C_14  and  O_15
REMARK    6  A    between atoms: O_15  and  C_16
REMARK    7  A    between atoms: C_16  and  C_17
REMARK    8  A    between atoms: C_17  and  O_18
REMARK                            x       y       z     vdW  Elec       q    Type
REMARK                         _______ _______ _______ _____ _____    ______ ____
ROOT
ATOM      1  C   UNL     1       1.654   3.751  19.127  0.00  0.00    +0.000 A 
ATOM      2  N   UNL     1       1.901   2.640  18.394  0.00  0.00    +0.000 NA
ATOM      3  C   UNL     1       2.785   2.712  17.383  0.00  0.00    +0.000 A 
ATOM      4  N   UNL     1       3.494   3.779  16.972  0.00  0.00    +0.000 NA
ATOM      5  C   UNL     1       3.247   4.861  17.726  0.00  0.00    +0.000 A 
ATOM      6  C   UNL     1       2.360   4.927  18.800  0.00  0.00    +0.000 A 
ATOM      7  C   UNL     1       2.426   6.256  19.297  0.00  0.00    +0.000 A 
ATOM      8 CL   UNL     1       1.557   6.871  20.627  0.00  0.00    +0.000 Cl
ATOM      9  C   UNL     1       3.317   6.959  18.529  0.00  0.00    +0.000 A 
ATOM     10  N   UNL     1       3.820   6.104  17.576  0.00  0.00    +0.000 N 
ENDROOT
BRANCH   1  11
ATOM     11  N   UNL     1       0.711   3.719  20.156  0.00  0.00    +0.000 N 
ATOM     12  H   UNL     1       0.418   4.656  20.419  0.00  0.00    +0.000 HD
BRANCH  11  14
ATOM     13  C   UNL     1       2.455   3.108  21.723  0.00  0.00    +0.000 C 
ATOM     14  C   UNL     1       1.025   2.846  21.274  0.00  0.00    +0.000 C 
ENDBRANCH  11  14
ENDBRANCH   1  11
BRANCH  10  15
ATOM     15  C   UNL     1       4.754   6.502  16.534  0.00  0.00    +0.000 C 
BRANCH  15  16
ATOM     16  O   UNL     1       6.002   6.857  17.145  0.00  0.00    +0.000 OA
BRANCH  16  17
ATOM     17  C   UNL     1       7.005   5.868  16.872  0.00  0.00    +0.000 C 
BRANCH  17  18
ATOM     18  C   UNL     1       7.319   5.091  18.149  0.00  0.00    +0.000 C 
BRANCH  18  19
ATOM     19  O   UNL     1       6.484   3.942  18.260  0.00  0.00    +0.000 OA
ATOM     20  H   UNL     1       6.066   3.831  17.385  0.00  0.00    +0.000 HD
ENDBRANCH  18  19
ENDBRANCH  17  18
ENDBRANCH  16  17
ENDBRANCH  15  16
ENDBRANCH  10  15
TORSDOF 7
ENDMDL
MODEL 4
REMARK VINA RESULT:      -5.8      1.080      1.140
REMARK  Name = 
REMARK  8 active torsions:
REMARK  status: ('A' for Active; 'I' for Inactive)
REMARK    1  A    between atoms: C_1  and  C_2
REMARK    2  A    between atoms: C_2  and  N_3
REMARK    3  A    between atoms: N_3  and  C_4
REMARK    4  A    between atoms: N_13  and  C_14
REMARK    5  A    between atoms: C_14  and  O_15
REMARK    6  A    between atoms: O_15  and  C_16
REMARK    7  A    between atoms: C_16  and  C_17
REMARK    8  A    between atoms: C_17  and  O_18
REMARK                            x       y       z     vdW  Elec       q    Type
REMARK                         _______ _______ _______ _____ _____    ______ ____
ROOT
ATOM      1  C   UNL     1       1.770   4.615  19.661  0.00  0.00    +0.000 A 
ATOM      2  N   UNL     1       1.594   5.815  20.264  0.00  0.00    +0.000 NA
ATOM      3  C   UNL     1       2.310   6.870  19.834  0.00  0.00    +0.000 A 
ATOM      4  N   UNL     1       3.221   6.909  18.844  0.00  0.00    +0.000 NA
ATOM      5  C   UNL     1       3.363   5.715  18.251  0.00  0.00    +0.000 A 
ATOM      6  C   UNL     1       2.687   4.543  18.592  0.00  0.00    +0.000 A 
ATOM      7  C   UNL     1       3.146   3.537  17.701  0.00  0.00    +0.000 A 
ATOM      8 CL   UNL     1       2.622   1.917  17.666  0.00  0.00    +0.000 Cl
ATOM      9  C   UNL     1       4.077   4.096  16.864  0.00  0.00    +0.000 A 
ATOM     10  N   UNL     1       4.202   5.425  17.199  0.00  0.00    +0.000 N 
ENDROOT
BRANCH   1  11
ATOM     11  N   UNL     1       1.073   3.494  20.112  0.00  0.00    +0.000 N 
ATOM     12  H   UNL     1       0.082   3.562  19.896  0.00  0.00    +0.000 HD
BRANCH  11  14
ATOM     13  C   UNL     1       2.808   2.574  21.531  0.00  0.00    +0.000 C 
ATOM     14  C   UNL     1       1.370   3.068  21.469  0.00  0.00    +0.000 C 
ENDBRANCH  11  14
ENDBRANCH   1  11
BRANCH  10  15
ATOM     15  C   UNL     1       5.143   6.339  16.569  0.00  0.00    +0.000 C 
BRANCH  15  16
ATOM     16  O   UNL     1       6.473   5.845  16.774  0.00  0.00    +0.000 OA
BRANCH  16  17
ATOM     17  C   UNL     1       7.150   6.603  17.786  0.00  0.00    +0.000 C 
BRANCH  17  18
ATOM     18  C   UNL     1       7.738   5.654  18.829  0.00  0.00    +0.000 C 
BRANCH  18  19
ATOM     19  O   UNL     1       6.782   5.364  19.845  0.00  0.00    +0.000 OA
ATOM     20  H   UNL     1       7.076   5.855  20.635  0.00  0.00    +0.000 HD
ENDBRANCH  18  19
ENDBRANCH  17  18
ENDBRANCH  16  17
ENDBRANCH  15  16
ENDBRANCH  10  15
TORSDOF 7
ENDMDL
MODEL 5
REMARK VINA RESULT:      -5.8      2.076      3.026
REMARK  Name = 
REMARK  8 active torsions:
REMARK  status: ('A' for Active; 'I' for Inactive)
REMARK    1  A    between atoms: C_1  and  C_2
REMARK    2  A    between atoms: C_2  and  N_3
REMARK    3  A    between atoms: N_3  and  C_4
REMARK    4  A    between atoms: N_13  and  C_14
REMARK    5  A    between atoms: C_14  and  O_15
REMARK    6  A    between atoms: O_15  and  C_16
REMARK    7  A    between atoms: C_16  and  C_17
REMARK    8  A    between atoms: C_17  and  O_18
REMARK                            x       y       z     vdW  Elec       q    Type
REMARK                         _______ _______ _______ _____ _____    ______ ____
ROOT
ATOM      1  C   UNL     1       2.191   4.131  18.984  0.00  0.00    +0.000 A 
ATOM      2  N   UNL     1       2.439   2.907  18.461  0.00  0.00    +0.000 NA
ATOM      3  C   UNL     1       3.302   2.801  17.435  0.00  0.00    +0.000 A 
ATOM      4  N   UNL     1       3.989   3.783  16.820  0.00  0.00    +0.000 NA
ATOM      5  C   UNL     1       3.740   4.982  17.369  0.00  0.00    +0.000 A 
ATOM      6  C   UNL     1       2.874   5.234  18.432  0.00  0.00    +0.000 A 
ATOM      7  C   UNL     1       2.931   6.632  18.676  0.00  0.00    +0.000 A 
ATOM      8 CL   UNL     1       2.079   7.471  19.889  0.00  0.00    +0.000 Cl
ATOM      9  C   UNL     1       3.797   7.192  17.773  0.00  0.00    +0.000 A 
ATOM     10  N   UNL     1       4.293   6.182  16.982  0.00  0.00    +0.000 N 
ENDROOT
BRANCH   1  11
ATOM     11  N   UNL     1       1.269   4.279  20.021  0.00  0.00    +0.000 N 
ATOM     12  H   UNL     1       1.429   5.138  20.540  0.00  0.00    +0.000 HD
BRANCH  11  14
ATOM     13  C   UNL     1       2.138   3.040  21.913  0.00  0.00    +0.000 C 
ATOM     14  C   UNL     1       1.055   3.103  20.848  0.00  0.00    +0.000 C 
ENDBRANCH  11  14
ENDBRANCH   1  11
BRANCH  10  15
ATOM     15  C   UNL     1       5.202   6.392  15.865  0.00  0.00    +0.000 C 
BRANCH  15  16
ATOM     16  O   UNL     1       6.550   6.299  16.344  0.00  0.00    +0.000 OA
BRANCH  16  17
ATOM     17  C   UNL     1       7.160   5.072  15.919  0.00  0.00    +0.000 C 
BRANCH  17  18
ATOM     18  C   UNL     1       6.969   4.901  14.412  0.00  0.00    +0.000 C 
BRANCH  18  19
ATOM     19  O   UNL     1       7.976   5.605  13.692  0.00  0.00    +0.000 OA
ATOM     20  H   UNL     1       8.225   6.363  14.255  0.00  0.00    +0.000 HD
ENDBRANCH  18  19
ENDBRANCH  17  18
ENDBRANCH  16  17
ENDBRANCH  15  16
ENDBRANCH  10  15
TORSDOF 7
ENDMDL
MODEL 6
REMARK VINA RESULT:      -5.7      3.206      5.810
REMARK  Name = 
REMARK  8 active torsions:
REMARK  status: ('A' for Active; 'I' for Inactive)
REMARK    1  A    between atoms: C_1  and  C_2
REMARK    2  A    between atoms: C_2  and  N_3
REMARK    3  A    between atoms: N_3  and  C_4
REMARK    4  A    between atoms: N_13  and  C_14
REMARK    5  A    between atoms: C_14  and  O_15
REMARK    6  A    between atoms: O_15  and  C_16
REMARK    7  A    between atoms: C_16  and  C_17
REMARK    8  A    between atoms: C_17  and  O_18
REMARK                            x       y       z     vdW  Elec       q    Type
REMARK                         _______ _______ _______ _____ _____    ______ ____
ROOT
ATOM      1  C   UNL     1       6.293   6.179  16.586  0.00  0.00    +0.000 A 
ATOM      2  N   UNL     1       7.127   5.282  16.008  0.00  0.00    +0.000 NA
ATOM      3  C   UNL     1       6.716   4.009  15.869  0.00  0.00    +0.000 A 
ATOM      4  N   UNL     1       5.540   3.468  16.240  0.00  0.00    +0.000 NA
ATOM      5  C   UNL     1       4.726   4.380  16.793  0.00  0.00    +0.000 A 
ATOM      6  C   UNL     1       5.022   5.728  16.995  0.00  0.00    +0.000 A 
ATOM      7  C   UNL     1       3.874   6.307  17.599  0.00  0.00    +0.000 A 
ATOM      8 CL   UNL     1       3.692   7.943  18.038  0.00  0.00    +0.000 Cl
ATOM      9  C   UNL     1       2.930   5.325  17.760  0.00  0.00    +0.000 A 
ATOM     10  N   UNL     1       3.452   4.154  17.262  0.00  0.00    +0.000 N 
ENDROOT
BRANCH   1  11
ATOM     11  N   UNL     1       6.707   7.497  16.782  0.00  0.00    +0.000 N 
ATOM     12  H   UNL     1       6.836   7.980  15.897  0.00  0.00    +0.000 HD
BRANCH  11  14
ATOM     13  C   UNL     1       8.075   9.174  17.871  0.00  0.00    +0.000 C 
ATOM     14  C   UNL     1       7.784   7.687  17.739  0.00  0.00    +0.000 C 
ENDBRANCH  11  14
ENDBRANCH   1  11
BRANCH  10  15
ATOM     15  C   UNL     1       2.767   2.871  17.309  0.00  0.00    +0.000 C 
BRANCH  15  16
ATOM     16  O   UNL     1       1.423   3.082  17.763  0.00  0.00    +0.000 OA
BRANCH  16  17
ATOM     17  C   UNL     1       1.181   2.376  18.988  0.00  0.00    +0.000 C 
BRANCH  17  18
ATOM     18  C   UNL     1       0.829   3.372  20.092  0.00  0.00    +0.000 C 
BRANCH  18  19
ATOM     19  O   UNL     1       0.919   2.757  21.374  0.00  0.00    +0.000 OA
ATOM     20  H   UNL     1       1.677   2.144  21.323  0.00  0.00    +0.000 HD
ENDBRANCH  18  19
ENDBRANCH  17  18
ENDBRANCH  16  17
ENDBRANCH  15  16
ENDBRANCH  10  15
TORSDOF 7
ENDMDL
MODEL 7
REMARK VINA RESULT:      -5.7      1.831      2.648
REMARK  Name = 
REMARK  8 active torsions:
REMARK  status: ('A' for Active; 'I' for Inactive)
REMARK    1  A    between atoms: C_1  and  C_2
REMARK    2  A    between atoms: C_2  and  N_3
REMARK    3  A    between atoms: N_3  and  C_4
REMARK    4  A    between atoms: N_13  and  C_14
REMARK    5  A    between atoms: C_14  and  O_15
REMARK    6  A    between atoms: O_15  and  C_16
REMARK    7  A    between atoms: C_16  and  C_17
REMARK    8  A    between atoms: C_17  and  O_18
REMARK                            x       y       z     vdW  Elec       q    Type
REMARK                         _______ _______ _______ _____ _____    ______ ____
ROOT
ATOM      1  C   UNL     1       2.324   3.935  18.431  0.00  0.00    +0.000 A 
ATOM      2  N   UNL     1       2.551   2.605  18.322  0.00  0.00    +0.000 NA
ATOM      3  C   UNL     1       3.656   2.185  17.680  0.00  0.00    +0.000 A 
ATOM      4  N   UNL     1       4.616   2.929  17.101  0.00  0.00    +0.000 NA
ATOM      5  C   UNL     1       4.378   4.242  17.239  0.00  0.00    +0.000 A 
ATOM      6  C   UNL     1       3.278   4.814  17.879  0.00  0.00    +0.000 A 
ATOM      7  C   UNL     1       3.444   6.222  17.787  0.00  0.00    +0.000 A 
ATOM      8 CL   UNL     1       2.392   7.397  18.429  0.00  0.00    +0.000 Cl
ATOM      9  C   UNL     1       4.604   6.474  17.101  0.00  0.00    +0.000 A 
ATOM     10  N   UNL     1       5.173   5.265  16.774  0.00  0.00    +0.000 N 
ENDROOT
BRANCH   1  11
ATOM     11  N   UNL     1       1.166   4.401  19.054  0.00  0.00    +0.000 N 
ATOM     12  H   UNL     1       1.025   5.393  18.880  0.00  0.00    +0.000 HD
BRANCH  11  14
ATOM     13  C   UNL     1       2.146   4.527  21.265  0.00  0.00    +0.000 C 
ATOM     14  C   UNL     1       0.986   3.997  20.438  0.00  0.00    +0.000 C 
ENDBRANCH  11  14
ENDBRANCH   1  11
BRANCH  10  15
ATOM     15  C   UNL     1       6.389   5.122  15.988  0.00  0.00    +0.000 C 
BRANCH  15  16
ATOM     16  O   UNL     1       7.488   5.655  16.739  0.00  0.00    +0.000 OA
BRANCH  16  17
ATOM     17  C   UNL     1       7.646   4.953  17.980  0.00  0.00    +0.000 C 
BRANCH  17  18
ATOM     18  C   UNL     1       7.736   5.957  19.129  0.00  0.00    +0.000 C 
BRANCH  18  19
ATOM     19  O   UNL     1       8.079   5.303  20.346  0.00  0.00    +0.000 OA
ATOM     20  H   UNL     1       7.459   5.647  21.017  0.00  0.00    +0.000 HD
ENDBRANCH  18  19
ENDBRANCH  17  18
ENDBRANCH  16  17
ENDBRANCH  15  16
ENDBRANCH  10  15
TORSDOF 7
ENDMDL
MODEL 8
REMARK VINA RESULT:      -5.7      1.250      1.271
REMARK  Name = 
REMARK  8 active torsions:
REMARK  status: ('A' for Active; 'I' for Inactive)
REMARK    1  A    between atoms: C_1  and  C_2
REMARK    2  A    between atoms: C_2  and  N_3
REMARK    3  A    between atoms: N_3  and  C_4
REMARK    4  A    between atoms: N_13  and  C_14
REMARK    5  A    between atoms: C_14  and  O_15
REMARK    6  A    between atoms: O_15  and  C_16
REMARK    7  A    between atoms: C_16  and  C_17
REMARK    8  A    between atoms: C_17  and  O_18
REMARK                            x       y       z     vdW  Elec       q    Type
REMARK                         _______ _______ _______ _____ _____    ______ ____
ROOT
ATOM      1  C   UNL     1       2.612   4.496  19.637  0.00  0.00    +0.000 A 
ATOM      2  N   UNL     1       2.227   5.722  20.064  0.00  0.00    +0.000 NA
ATOM      3  C   UNL     1       2.646   6.807  19.388  0.00  0.00    +0.000 A 
ATOM      4  N   UNL     1       3.431   6.855  18.295  0.00  0.00    +0.000 NA
ATOM      5  C   UNL     1       3.782   5.628  17.881  0.00  0.00    +0.000 A 
ATOM      6  C   UNL     1       3.420   4.424  18.484  0.00  0.00    +0.000 A 
ATOM      7  C   UNL     1       4.010   3.390  17.708  0.00  0.00    +0.000 A 
ATOM      8 CL   UNL     1       3.862   1.718  17.993  0.00  0.00    +0.000 Cl
ATOM      9  C   UNL     1       4.711   3.969  16.682  0.00  0.00    +0.000 A 
ATOM     10  N   UNL     1       4.565   5.333  16.788  0.00  0.00    +0.000 N 
ENDROOT
BRANCH   1  11
ATOM     11  N   UNL     1       2.229   3.355  20.342  0.00  0.00    +0.000 N 
ATOM     12  H   UNL     1       2.880   2.589  20.190  0.00  0.00    +0.000 HD
BRANCH  11  14
ATOM     13  C   UNL     1       0.568   2.406  18.856  0.00  0.00    +0.000 C 
ATOM     14  C   UNL     1       0.827   2.988  20.237  0.00  0.00    +0.000 C 
ENDBRANCH  11  14
ENDBRANCH   1  11
BRANCH  10  15
ATOM     15  C   UNL     1       5.215   6.294  15.909  0.00  0.00    +0.000 C 
BRANCH  15  16
ATOM     16  O   UNL     1       6.633   6.214  16.109  0.00  0.00    +0.000 OA
BRANCH  16  17
ATOM     17  C   UNL     1       7.052   7.104  17.154  0.00  0.00    +0.000 C 
BRANCH  17  18
ATOM     18  C   UNL     1       7.602   6.292  18.326  0.00  0.00    +0.000 C 
BRANCH  18  19
ATOM     19  O   UNL     1       8.502   7.075  19.105  0.00  0.00    +0.000 OA
ATOM     20  H   UNL     1       8.178   7.994  19.044  0.00  0.00    +0.000 HD
ENDBRANCH  18  19
ENDBRANCH  17  18
ENDBRANCH  16  17
ENDBRANCH  15  16
ENDBRANCH  10  15
TORSDOF 7
ENDMDL
MODEL 9
REMARK VINA RESULT:      -5.7      3.260      5.657
REMARK  Name = 
REMARK  8 active torsions:
REMARK  status: ('A' for Active; 'I' for Inactive)
REMARK    1  A    between atoms: C_1  and  C_2
REMARK    2  A    between atoms: C_2  and  N_3
REMARK    3  A    between atoms: N_3  and  C_4
REMARK    4  A    between atoms: N_13  and  C_14
REMARK    5  A    between atoms: C_14  and  O_15
REMARK    6  A    between atoms: O_15  and  C_16
REMARK    7  A    between atoms: C_16  and  C_17
REMARK    8  A    between atoms: C_17  and  O_18
REMARK                            x       y       z     vdW  Elec       q    Type
REMARK                         _______ _______ _______ _____ _____    ______ ____
ROOT
ATOM      1  C   UNL     1       6.750   5.765  16.374  0.00  0.00    +0.000 A 
ATOM      2  N   UNL     1       6.463   5.655  15.056  0.00  0.00    +0.000 NA
ATOM      3  C   UNL     1       5.507   4.792  14.668  0.00  0.00    +0.000 A 
ATOM      4  N   UNL     1       4.756   3.981  15.438  0.00  0.00    +0.000 NA
ATOM      5  C   UNL     1       5.046   4.123  16.740  0.00  0.00    +0.000 A 
ATOM      6  C   UNL     1       6.008   4.977  17.278  0.00  0.00    +0.000 A 
ATOM      7  C   UNL     1       5.963   4.799  18.687  0.00  0.00    +0.000 A 
ATOM      8 CL   UNL     1       6.920   5.623  19.829  0.00  0.00    +0.000 Cl
ATOM      9  C   UNL     1       5.010   3.856  18.971  0.00  0.00    +0.000 A 
ATOM     10  N   UNL     1       4.449   3.451  17.783  0.00  0.00    +0.000 N 
ENDROOT
BRANCH   1  11
ATOM     11  N   UNL     1       7.765   6.621  16.803  0.00  0.00    +0.000 N 
ATOM     12  H   UNL     1       8.411   6.145  17.427  0.00  0.00    +0.000 HD
BRANCH  11  14
ATOM     13  C   UNL     1       8.378   8.491  18.215  0.00  0.00    +0.000 C 
ATOM     14  C   UNL     1       7.336   7.932  17.258  0.00  0.00    +0.000 C 
ENDBRANCH  11  14
ENDBRANCH   1  11
BRANCH  10  15
ATOM     15  C   UNL     1       3.437   2.412  17.671  0.00  0.00    +0.000 C 
BRANCH  15  16
ATOM     16  O   UNL     1       2.227   2.999  17.174  0.00  0.00    +0.000 OA
BRANCH  16  17
ATOM     17  C   UNL     1       1.508   3.655  18.228  0.00  0.00    +0.000 C 
BRANCH  17  18
ATOM     18  C   UNL     1       1.093   2.628  19.281  0.00  0.00    +0.000 C 
BRANCH  18  19
ATOM     19  O   UNL     1       0.457   3.265  20.385  0.00  0.00    +0.000 OA
ATOM     20  H   UNL     1      -0.106   3.964  20.001  0.00  0.00    +0.000 HD
ENDBRANCH  18  19
ENDBRANCH  17  18
ENDBRANCH  16  17
ENDBRANCH  15  16
ENDBRANCH  10  15
TORSDOF 7
ENDMDL
