MODEL 1
REMARK VINA RESULT:      -6.5      0.000      0.000
REMARK  Name = 
REMARK  5 active torsions:
REMARK  status: ('A' for Active; 'I' for Inactive)
REMARK    1  A    between atoms: C_1  and  N_2
REMARK    2  A    between atoms: N_2  and  C_3
REMARK    3  A    between atoms: C_4  and  O_6
REMARK    4  A    between atoms: O_6  and  C_7
REMARK    5  A    between atoms: N_14  and  C_15
REMARK                            x       y       z     vdW  Elec       q    Type
REMARK                         _______ _______ _______ _____ _____    ______ ____
ROOT
ATOM      1  C   UNL     1       4.831   4.097  19.420  0.00  0.00    +0.000 C 
ATOM      2  C   UNL     1       3.916   5.062  19.431  0.00  0.00    +0.000 C 
ATOM      3  C   UNL     1       2.441   4.688  19.252  0.00  0.00    +0.000 C 
ATOM      4  C   UNL     1       2.143   4.481  17.764  0.00  0.00    +0.000 C 
ATOM      5  C   UNL     1       2.621   3.041  17.500  0.00  0.00    +0.000 C 
ATOM      6  C   UNL     1       2.978   2.478  18.887  0.00  0.00    +0.000 C 
ATOM      7  C   UNL     1       4.377   2.665  19.526  0.00  0.00    +0.000 C 
ATOM      8  N   UNL     1       2.195   3.331  19.795  0.00  0.00    +0.000 NA
ATOM      9  C   UNL     1       0.793   3.052  19.989  0.00  0.00    +0.000 C 
ENDROOT
BRANCH   1  10
ATOM     10  O   UNL     1       5.991   4.295  18.682  0.00  0.00    +0.000 OA
BRANCH  10  14
ATOM     11  C   UNL     1       7.761   7.322  17.905  0.00  0.00    +0.000 C 
ATOM     12  N   UNL     1       7.120   6.074  17.753  0.00  0.00    +0.000 N 
ATOM     13  C   UNL     1       6.389   5.794  16.540  0.00  0.00    +0.000 C 
ATOM     14  C   UNL     1       6.889   5.297  18.960  0.00  0.00    +0.000 C 
ATOM     15  O   UNL     1       7.424   5.501  20.080  0.00  0.00    +0.000 OA
ENDBRANCH  10  14
ENDBRANCH   1  10
TORSDOF 2
ENDMDL
MODEL 2
REMARK VINA RESULT:      -6.2      1.122      1.301
REMARK  Name = 
REMARK  5 active torsions:
REMARK  status: ('A' for Active; 'I' for Inactive)
REMARK    1  A    between atoms: C_1  and  N_2
REMARK    2  A    between atoms: N_2  and  C_3
REMARK    3  A    between atoms: C_4  and  O_6
REMARK    4  A    between atoms: O_6  and  C_7
REMARK    5  A    between atoms: N_14  and  C_15
REMARK                            x       y       z     vdW  Elec       q    Type
REMARK                         _______ _______ _______ _____ _____    ______ ____
ROOT
ATOM      1  C   UNL     1       4.740   3.630  18.327  0.00  0.00    +0.000 C 
ATOM      2  C   UNL     1       4.450   4.414  19.361  0.00  0.00    +0.000 C 
ATOM      3  C   UNL     1       3.005   4.465  19.870  0.00  0.00    +0.000 C 
ATOM      4  C   UNL     1       2.184   5.404  18.983  0.00  0.00    +0.000 C 
ATOM      5  C   UNL     1       1.809   4.521  17.778  0.00  0.00    +0.000 C 
ATOM      6  C   UNL     1       2.282   3.107  18.156  0.00  0.00    +0.000 C 
ATOM      7  C   UNL     1       3.725   2.610  17.882  0.00  0.00    +0.000 C 
ATOM      8  N   UNL     1       2.337   3.165  19.626  0.00  0.00    +0.000 NA
ATOM      9  C   UNL     1       1.118   3.012  20.382  0.00  0.00    +0.000 C 
ENDROOT
BRANCH   1  10
ATOM     10  O   UNL     1       5.547   4.139  17.318  0.00  0.00    +0.000 OA
BRANCH  10  14
ATOM     11  C   UNL     1       7.443   7.185  17.479  0.00  0.00    +0.000 C 
ATOM     12  N   UNL     1       6.519   6.209  17.049  0.00  0.00    +0.000 N 
ATOM     13  C   UNL     1       5.266   6.627  16.465  0.00  0.00    +0.000 C 
ATOM     14  C   UNL     1       6.687   4.862  17.569  0.00  0.00    +0.000 C 
ATOM     15  O   UNL     1       7.711   4.422  18.153  0.00  0.00    +0.000 OA
ENDBRANCH  10  14
ENDBRANCH   1  10
TORSDOF 2
ENDMDL
MODEL 3
REMARK VINA RESULT:      -6.2      1.862      5.521
REMARK  Name = 
REMARK  5 active torsions:
REMARK  status: ('A' for Active; 'I' for Inactive)
REMARK    1  A    between atoms: C_1  and  N_2
REMARK    2  A    between atoms: N_2  and  C_3
REMARK    3  A    between atoms: C_4  and  O_6
REMARK    4  A    between atoms: O_6  and  C_7
REMARK    5  A    between atoms: N_14  and  C_15
REMARK                            x       y       z     vdW  Elec       q    Type
REMARK                         _______ _______ _______ _____ _____    ______ ____
ROOT
ATOM      1  C   UNL     1       4.381   5.125  17.555  0.00  0.00    +0.000 C 
ATOM      2  C   UNL     1       5.149   5.101  18.640  0.00  0.00    +0.000 C 
ATOM      3  C   UNL     1       6.565   5.684  18.560  0.00  0.00    +0.000 C 
ATOM      4  C   UNL     1       7.505   4.657  17.924  0.00  0.00    +0.000 C 
ATOM      5  C   UNL     1       7.263   4.836  16.414  0.00  0.00    +0.000 C 
ATOM      6  C   UNL     1       6.350   6.070  16.299  0.00  0.00    +0.000 C 
ATOM      7  C   UNL     1       4.805   5.972  16.384  0.00  0.00    +0.000 C 
ATOM      8  N   UNL     1       6.604   6.780  17.563  0.00  0.00    +0.000 NA
ATOM      9  C   UNL     1       7.782   7.603  17.682  0.00  0.00    +0.000 C 
ENDROOT
BRANCH   1  10
ATOM     10  O   UNL     1       3.665   3.981  17.227  0.00  0.00    +0.000 OA
BRANCH  10  14
ATOM     11  C   UNL     1       1.113   2.154  18.972  0.00  0.00    +0.000 C 
ATOM     12  N   UNL     1       2.271   2.439  18.217  0.00  0.00    +0.000 N 
ATOM     13  C   UNL     1       3.440   1.606  18.369  0.00  0.00    +0.000 C 
ATOM     14  C   UNL     1       2.372   3.768  17.636  0.00  0.00    +0.000 C 
ATOM     15  O   UNL     1       1.430   4.594  17.521  0.00  0.00    +0.000 OA
ENDBRANCH  10  14
ENDBRANCH   1  10
TORSDOF 2
ENDMDL
MODEL 4
REMARK VINA RESULT:      -6.1      1.279      1.454
REMARK  Name = 
REMARK  5 active torsions:
REMARK  status: ('A' for Active; 'I' for Inactive)
REMARK    1  A    between atoms: C_1  and  N_2
REMARK    2  A    between atoms: N_2  and  C_3
REMARK    3  A    between atoms: C_4  and  O_6
REMARK    4  A    between atoms: O_6  and  C_7
REMARK    5  A    between atoms: N_14  and  C_15
REMARK                            x       y       z     vdW  Elec       q    Type
REMARK                         _______ _______ _______ _____ _____    ______ ____
ROOT
ATOM      1  C   UNL     1       4.715   5.101  19.279  0.00  0.00    +0.000 C 
ATOM      2  C   UNL     1       3.538   5.701  19.433  0.00  0.00    +0.000 C 
ATOM      3  C   UNL     1       2.258   4.869  19.294  0.00  0.00    +0.000 C 
ATOM      4  C   UNL     1       1.923   4.690  17.812  0.00  0.00    +0.000 C 
ATOM      5  C   UNL     1       2.824   3.517  17.380  0.00  0.00    +0.000 C 
ATOM      6  C   UNL     1       3.458   3.001  18.684  0.00  0.00    +0.000 C 
ATOM      7  C   UNL     1       4.766   3.596  19.266  0.00  0.00    +0.000 C 
ATOM      8  N   UNL     1       2.516   3.472  19.712  0.00  0.00    +0.000 NA
ATOM      9  C   UNL     1       1.305   2.726  19.950  0.00  0.00    +0.000 C 
ENDROOT
BRANCH   1  10
ATOM     10  O   UNL     1       5.681   5.731  18.505  0.00  0.00    +0.000 OA
BRANCH  10  14
ATOM     11  C   UNL     1       7.170   4.834  15.362  0.00  0.00    +0.000 C 
ATOM     12  N   UNL     1       6.208   5.200  16.327  0.00  0.00    +0.000 N 
ATOM     13  C   UNL     1       5.107   6.052  15.943  0.00  0.00    +0.000 C 
ATOM     14  C   UNL     1       6.576   5.042  17.724  0.00  0.00    +0.000 C 
ATOM     15  O   UNL     1       7.554   4.379  18.156  0.00  0.00    +0.000 OA
ENDBRANCH  10  14
ENDBRANCH   1  10
TORSDOF 2
ENDMDL
MODEL 5
REMARK VINA RESULT:      -6.1      1.307      1.899
REMARK  Name = 
REMARK  5 active torsions:
REMARK  status: ('A' for Active; 'I' for Inactive)
REMARK    1  A    between atoms: C_1  and  N_2
REMARK    2  A    between atoms: N_2  and  C_3
REMARK    3  A    between atoms: C_4  and  O_6
REMARK    4  A    between atoms: O_6  and  C_7
REMARK    5  A    between atoms: N_14  and  C_15
REMARK                            x       y       z     vdW  Elec       q    Type
REMARK                         _______ _______ _______ _____ _____    ______ ____
ROOT
ATOM      1  C   UNL     1       4.605   5.098  19.299  0.00  0.00    +0.000 C 
ATOM      2  C   UNL     1       3.426   5.694  19.451  0.00  0.00    +0.000 C 
ATOM      3  C   UNL     1       2.149   4.860  19.300  0.00  0.00    +0.000 C 
ATOM      4  C   UNL     1       1.823   4.688  17.815  0.00  0.00    +0.000 C 
ATOM      5  C   UNL     1       2.729   3.520  17.381  0.00  0.00    +0.000 C 
ATOM      6  C   UNL     1       3.358   2.998  18.685  0.00  0.00    +0.000 C 
ATOM      7  C   UNL     1       4.661   3.593  19.277  0.00  0.00    +0.000 C 
ATOM      8  N   UNL     1       2.409   3.460  19.711  0.00  0.00    +0.000 NA
ATOM      9  C   UNL     1       1.199   2.709  19.938  0.00  0.00    +0.000 C 
ENDROOT
BRANCH   1  10
ATOM     10  O   UNL     1       5.574   5.736  18.534  0.00  0.00    +0.000 OA
BRANCH  10  14
ATOM     11  C   UNL     1       6.824   4.700  15.331  0.00  0.00    +0.000 C 
ATOM     12  N   UNL     1       6.787   5.088  16.687  0.00  0.00    +0.000 N 
ATOM     13  C   UNL     1       7.734   4.518  17.615  0.00  0.00    +0.000 C 
ATOM     14  C   UNL     1       5.568   5.722  17.162  0.00  0.00    +0.000 C 
ATOM     15  O   UNL     1       4.651   6.189  16.437  0.00  0.00    +0.000 OA
ENDBRANCH  10  14
ENDBRANCH   1  10
TORSDOF 2
ENDMDL
MODEL 6
REMARK VINA RESULT:      -6.0      1.378      2.382
REMARK  Name = 
REMARK  5 active torsions:
REMARK  status: ('A' for Active; 'I' for Inactive)
REMARK    1  A    between atoms: C_1  and  N_2
REMARK    2  A    between atoms: N_2  and  C_3
REMARK    3  A    between atoms: C_4  and  O_6
REMARK    4  A    between atoms: O_6  and  C_7
REMARK    5  A    between atoms: N_14  and  C_15
REMARK                            x       y       z     vdW  Elec       q    Type
REMARK                         _______ _______ _______ _____ _____    ______ ____
ROOT
ATOM      1  C   UNL     1       4.134   4.646  17.546  0.00  0.00    +0.000 C 
ATOM      2  C   UNL     1       3.575   3.621  16.909  0.00  0.00    +0.000 C 
ATOM      3  C   UNL     1       2.672   2.663  17.695  0.00  0.00    +0.000 C 
ATOM      4  C   UNL     1       3.537   1.659  18.462  0.00  0.00    +0.000 C 
ATOM      5  C   UNL     1       3.948   2.434  19.728  0.00  0.00    +0.000 C 
ATOM      6  C   UNL     1       3.139   3.742  19.676  0.00  0.00    +0.000 C 
ATOM      7  C   UNL     1       3.641   5.001  18.923  0.00  0.00    +0.000 C 
ATOM      8  N   UNL     1       2.008   3.390  18.802  0.00  0.00    +0.000 NA
ATOM      9  C   UNL     1       0.891   2.665  19.357  0.00  0.00    +0.000 C 
ENDROOT
BRANCH   1  10
ATOM     10  O   UNL     1       5.477   4.915  17.312  0.00  0.00    +0.000 OA
BRANCH  10  14
ATOM     11  C   UNL     1       7.734   7.697  17.571  0.00  0.00    +0.000 C 
ATOM     12  N   UNL     1       6.926   6.596  17.927  0.00  0.00    +0.000 N 
ATOM     13  C   UNL     1       7.344   5.726  19.000  0.00  0.00    +0.000 C 
ATOM     14  C   UNL     1       5.935   6.159  16.956  0.00  0.00    +0.000 C 
ATOM     15  O   UNL     1       5.553   6.813  15.951  0.00  0.00    +0.000 OA
ENDBRANCH  10  14
ENDBRANCH   1  10
TORSDOF 2
ENDMDL
MODEL 7
REMARK VINA RESULT:      -6.0      2.197      5.405
REMARK  Name = 
REMARK  5 active torsions:
REMARK  status: ('A' for Active; 'I' for Inactive)
REMARK    1  A    between atoms: C_1  and  N_2
REMARK    2  A    between atoms: N_2  and  C_3
REMARK    3  A    between atoms: C_4  and  O_6
REMARK    4  A    between atoms: O_6  and  C_7
REMARK    5  A    between atoms: N_14  and  C_15
REMARK                            x       y       z     vdW  Elec       q    Type
REMARK                         _______ _______ _______ _____ _____    ______ ____
ROOT
ATOM      1  C   UNL     1       3.452   5.978  18.503  0.00  0.00    +0.000 C 
ATOM      2  C   UNL     1       4.418   5.195  18.972  0.00  0.00    +0.000 C 
ATOM      3  C   UNL     1       5.789   5.218  18.287  0.00  0.00    +0.000 C 
ATOM      4  C   UNL     1       5.748   4.341  17.032  0.00  0.00    +0.000 C 
ATOM      5  C   UNL     1       5.117   5.263  15.972  0.00  0.00    +0.000 C 
ATOM      6  C   UNL     1       5.021   6.642  16.648  0.00  0.00    +0.000 C 
ATOM      7  C   UNL     1       3.808   7.060  17.517  0.00  0.00    +0.000 C 
ATOM      8  N   UNL     1       6.041   6.557  17.705  0.00  0.00    +0.000 NA
ATOM      9  C   UNL     1       7.426   6.767  17.364  0.00  0.00    +0.000 C 
ENDROOT
BRANCH   1  10
ATOM     10  O   UNL     1       2.179   5.440  18.354  0.00  0.00    +0.000 OA
BRANCH  10  14
ATOM     11  C   UNL     1       0.771   2.184  18.914  0.00  0.00    +0.000 C 
ATOM     12  N   UNL     1       1.354   3.447  19.157  0.00  0.00    +0.000 N 
ATOM     13  C   UNL     1       0.999   4.174  20.353  0.00  0.00    +0.000 C 
ATOM     14  C   UNL     1       1.961   4.126  18.024  0.00  0.00    +0.000 C 
ATOM     15  O   UNL     1       2.246   3.599  16.918  0.00  0.00    +0.000 OA
ENDBRANCH  10  14
ENDBRANCH   1  10
TORSDOF 2
ENDMDL
MODEL 8
REMARK VINA RESULT:      -6.0      0.861      1.414
REMARK  Name = 
REMARK  5 active torsions:
REMARK  status: ('A' for Active; 'I' for Inactive)
REMARK    1  A    between atoms: C_1  and  N_2
REMARK    2  A    between atoms: N_2  and  C_3
REMARK    3  A    between atoms: C_4  and  O_6
REMARK    4  A    between atoms: O_6  and  C_7
REMARK    5  A    between atoms: N_14  and  C_15
REMARK                            x       y       z     vdW  Elec       q    Type
REMARK                         _______ _______ _______ _____ _____    ______ ____
ROOT
ATOM      1  C   UNL     1       4.785   3.881  19.313  0.00  0.00    +0.000 C 
ATOM      2  C   UNL     1       3.952   4.881  19.585  0.00  0.00    +0.000 C 
ATOM      3  C   UNL     1       2.446   4.660  19.408  0.00  0.00    +0.000 C 
ATOM      4  C   UNL     1       2.077   4.812  17.931  0.00  0.00    +0.000 C 
ATOM      5  C   UNL     1       2.427   3.437  17.331  0.00  0.00    +0.000 C 
ATOM      6  C   UNL     1       2.789   2.555  18.539  0.00  0.00    +0.000 C 
ATOM      7  C   UNL     1       4.222   2.497  19.127  0.00  0.00    +0.000 C 
ATOM      8  N   UNL     1       2.112   3.238  19.654  0.00  0.00    +0.000 NA
ATOM      9  C   UNL     1       0.701   3.021  19.858  0.00  0.00    +0.000 C 
ENDROOT
BRANCH   1  10
ATOM     10  O   UNL     1       5.930   4.157  18.575  0.00  0.00    +0.000 OA
BRANCH  10  14
ATOM     11  C   UNL     1       7.507   7.139  17.344  0.00  0.00    +0.000 C 
ATOM     12  N   UNL     1       7.042   6.143  18.229  0.00  0.00    +0.000 N 
ATOM     13  C   UNL     1       7.822   5.811  19.397  0.00  0.00    +0.000 C 
ATOM     14  C   UNL     1       6.027   5.231  17.726  0.00  0.00    +0.000 C 
ATOM     15  O   UNL     1       5.342   5.396  16.684  0.00  0.00    +0.000 OA
ENDBRANCH  10  14
ENDBRANCH   1  10
TORSDOF 2
ENDMDL
MODEL 9
REMARK VINA RESULT:      -6.0      1.499      2.164
REMARK  Name = 
REMARK  5 active torsions:
REMARK  status: ('A' for Active; 'I' for Inactive)
REMARK    1  A    between atoms: C_1  and  N_2
REMARK    2  A    between atoms: N_2  and  C_3
REMARK    3  A    between atoms: C_4  and  O_6
REMARK    4  A    between atoms: O_6  and  C_7
REMARK    5  A    between atoms: N_14  and  C_15
REMARK                            x       y       z     vdW  Elec       q    Type
REMARK                         _______ _______ _______ _____ _____    ______ ____
ROOT
ATOM      1  C   UNL     1       4.288   3.558  17.672  0.00  0.00    +0.000 C 
ATOM      2  C   UNL     1       4.440   3.630  18.991  0.00  0.00    +0.000 C 
ATOM      3  C   UNL     1       3.207   3.884  19.866  0.00  0.00    +0.000 C 
ATOM      4  C   UNL     1       2.879   5.379  19.866  0.00  0.00    +0.000 C 
ATOM      5  C   UNL     1       2.087   5.572  18.560  0.00  0.00    +0.000 C 
ATOM      6  C   UNL     1       1.864   4.151  18.014  0.00  0.00    +0.000 C 
ATOM      7  C   UNL     1       2.898   3.436  17.106  0.00  0.00    +0.000 C 
ATOM      8  N   UNL     1       2.002   3.315  19.218  0.00  0.00    +0.000 NA
ATOM      9  C   UNL     1       0.884   3.196  20.122  0.00  0.00    +0.000 C 
ENDROOT
BRANCH   1  10
ATOM     10  O   UNL     1       5.196   4.233  16.865  0.00  0.00    +0.000 OA
BRANCH  10  14
ATOM     11  C   UNL     1       7.364   7.048  17.389  0.00  0.00    +0.000 C 
ATOM     12  N   UNL     1       6.809   5.754  17.488  0.00  0.00    +0.000 N 
ATOM     13  C   UNL     1       7.681   4.621  17.683  0.00  0.00    +0.000 C 
ATOM     14  C   UNL     1       5.453   5.575  16.994  0.00  0.00    +0.000 C 
ATOM     15  O   UNL     1       4.639   6.498  16.730  0.00  0.00    +0.000 OA
ENDBRANCH  10  14
ENDBRANCH   1  10
TORSDOF 2
ENDMDL
