MODEL 1
REMARK VINA RESULT:      -8.0      0.000      0.000
REMARK  Name = 
REMARK  6 active torsions:
REMARK  status: ('A' for Active; 'I' for Inactive)
REMARK    1  A    between atoms: N_1  and  S_2
REMARK    2  A    between atoms: S_2  and  C_5
REMARK    3  A    between atoms: C_8  and  S_9
REMARK    4  A    between atoms: S_9  and  C_10
REMARK    5  A    between atoms: N_14  and  C_15
REMARK    6  A    between atoms: C_18  and  C_19
REMARK                            x       y       z     vdW  Elec       q    Type
REMARK                         _______ _______ _______ _____ _____    ______ ____
ROOT
ATOM      1  C   UNL     1       7.268   6.270  17.491  0.00  0.00    +0.000 A 
ATOM      2  N   UNL     1       7.027   7.294  16.707  0.00  0.00    +0.000 NA
ATOM      3  N   UNL     1       7.552   8.459  17.218  0.00  0.00    +0.000 NA
ATOM      4  C   UNL     1       8.208   8.290  18.350  0.00  0.00    +0.000 A 
ATOM      5  N   UNL     1       8.863   9.235  19.071  0.00  0.00    +0.000 N 
ATOM      6  S   UNL     1       8.143   6.653  18.912  0.00  0.00    +0.000 S 
ATOM      7  H   UNL     1       9.202   8.978  19.989  0.00  0.00    +0.000 HD
ENDROOT
BRANCH   5   8
ATOM      8  C   UNL     1       9.320  10.487  18.609  0.00  0.00    +0.000 A 
ATOM      9  C   UNL     1       8.476  11.461  18.060  0.00  0.00    +0.000 A 
ATOM     10  C   UNL     1       8.955  12.717  17.675  0.00  0.00    +0.000 A 
ATOM     11  C   UNL     1      10.303  13.045  17.835  0.00  0.00    +0.000 A 
ATOM     12  C   UNL     1      11.163  12.079  18.374  0.00  0.00    +0.000 A 
ATOM     13  C   UNL     1      10.676  10.822  18.760  0.00  0.00    +0.000 A 
BRANCH  11  14
ATOM     14  C   UNL     1      10.816  14.410  17.453  0.00  0.00    +0.000 C 
ATOM     15  F   UNL     1       9.828  15.327  17.246  0.00  0.00    +0.000 F 
ATOM     16  F   UNL     1      11.626  14.949  18.407  0.00  0.00    +0.000 F 
ATOM     17  F   UNL     1      11.550  14.393  16.306  0.00  0.00    +0.000 F 
ENDBRANCH  11  14
ENDBRANCH   5   8
BRANCH   1  18
ATOM     18  S   UNL     1       6.758   4.655  17.058  0.00  0.00    +0.000 S 
BRANCH  18  22
ATOM     19  C   UNL     1       3.068   4.257  19.744  0.00  0.00    +0.000 A 
ATOM     20  C   UNL     1       3.304   5.473  19.099  0.00  0.00    +0.000 A 
ATOM     21  C   UNL     1       4.421   5.607  18.267  0.00  0.00    +0.000 A 
ATOM     22  C   UNL     1       5.312   4.537  18.097  0.00  0.00    +0.000 A 
ATOM     23  C   UNL     1       5.048   3.317  18.732  0.00  0.00    +0.000 A 
ATOM     24  C   UNL     1       3.929   3.174  19.557  0.00  0.00    +0.000 A 
BRANCH  19  25
ATOM     25  S   UNL     1       1.667   4.088  20.812  0.00  0.00    +0.000 S 
ATOM     26  O   UNL     1       0.991   5.360  20.886  0.00  0.00    +0.000 OA
ATOM     27  O   UNL     1       2.055   3.341  21.988  0.00  0.00    +0.000 OA
BRANCH  25  28
ATOM     28  N   UNL     1       0.664   3.059  19.946  0.00  0.00    +0.000 NA
ATOM     29  H   UNL     1       0.224   3.578  19.186  0.00  0.00    +0.000 HD
ATOM     30  H   UNL     1      -0.004   2.615  20.578  0.00  0.00    +0.000 HD
ENDBRANCH  25  28
ENDBRANCH  19  25
ENDBRANCH  18  22
ENDBRANCH   1  18
TORSDOF 6
ENDMDL
MODEL 2
REMARK VINA RESULT:      -8.0      1.210      1.542
REMARK  Name = 
REMARK  6 active torsions:
REMARK  status: ('A' for Active; 'I' for Inactive)
REMARK    1  A    between atoms: N_1  and  S_2
REMARK    2  A    between atoms: S_2  and  C_5
REMARK    3  A    between atoms: C_8  and  S_9
REMARK    4  A    between atoms: S_9  and  C_10
REMARK    5  A    between atoms: N_14  and  C_15
REMARK    6  A    between atoms: C_18  and  C_19
REMARK                            x       y       z     vdW  Elec       q    Type
REMARK                         _______ _______ _______ _____ _____    ______ ____
ROOT
ATOM      1  C   UNL     1       7.141   6.208  17.254  0.00  0.00    +0.000 A 
ATOM      2  N   UNL     1       6.884   7.380  16.721  0.00  0.00    +0.000 NA
ATOM      3  N   UNL     1       7.447   8.402  17.449  0.00  0.00    +0.000 NA
ATOM      4  C   UNL     1       8.146   7.988  18.489  0.00  0.00    +0.000 A 
ATOM      5  N   UNL     1       8.844   8.750  19.368  0.00  0.00    +0.000 N 
ATOM      6  S   UNL     1       8.078   6.269  18.685  0.00  0.00    +0.000 S 
ATOM      7  H   UNL     1       9.216   8.298  20.194  0.00  0.00    +0.000 HD
ENDROOT
BRANCH   5   8
ATOM      8  C   UNL     1       9.301  10.070  19.169  0.00  0.00    +0.000 A 
ATOM      9  C   UNL     1       9.566  10.612  17.904  0.00  0.00    +0.000 A 
ATOM     10  C   UNL     1       9.952  11.945  17.743  0.00  0.00    +0.000 A 
ATOM     11  C   UNL     1      10.081  12.790  18.848  0.00  0.00    +0.000 A 
ATOM     12  C   UNL     1       9.829  12.262  20.121  0.00  0.00    +0.000 A 
ATOM     13  C   UNL     1       9.439  10.923  20.276  0.00  0.00    +0.000 A 
BRANCH  11  14
ATOM     14  C   UNL     1      10.464  14.237  18.673  0.00  0.00    +0.000 C 
ATOM     15  F   UNL     1       9.410  15.049  18.375  0.00  0.00    +0.000 F 
ATOM     16  F   UNL     1      11.033  14.766  19.792  0.00  0.00    +0.000 F 
ATOM     17  F   UNL     1      11.368  14.422  17.671  0.00  0.00    +0.000 F 
ENDBRANCH  11  14
ENDBRANCH   5   8
BRANCH   1  18
ATOM     18  S   UNL     1       6.589   4.729  16.504  0.00  0.00    +0.000 S 
BRANCH  18  22
ATOM     19  C   UNL     1       2.890   3.954  19.094  0.00  0.00    +0.000 A 
ATOM     20  C   UNL     1       4.143   3.567  19.575  0.00  0.00    +0.000 A 
ATOM     21  C   UNL     1       5.282   3.807  18.800  0.00  0.00    +0.000 A 
ATOM     22  C   UNL     1       5.171   4.410  17.539  0.00  0.00    +0.000 A 
ATOM     23  C   UNL     1       3.910   4.814  17.082  0.00  0.00    +0.000 A 
ATOM     24  C   UNL     1       2.768   4.585  17.854  0.00  0.00    +0.000 A 
BRANCH  19  25
ATOM     25  S   UNL     1       1.442   3.636  20.061  0.00  0.00    +0.000 S 
ATOM     26  O   UNL     1       0.581   2.749  19.320  0.00  0.00    +0.000 OA
ATOM     27  O   UNL     1       0.975   4.879  20.635  0.00  0.00    +0.000 OA
BRANCH  25  28
ATOM     28  N   UNL     1       2.048   2.754  21.353  0.00  0.00    +0.000 NA
ATOM     29  H   UNL     1       1.395   2.809  22.135  0.00  0.00    +0.000 HD
ATOM     30  H   UNL     1       2.988   3.079  21.583  0.00  0.00    +0.000 HD
ENDBRANCH  25  28
ENDBRANCH  19  25
ENDBRANCH  18  22
ENDBRANCH   1  18
TORSDOF 6
ENDMDL
MODEL 3
REMARK VINA RESULT:      -7.9      1.226      1.687
REMARK  Name = 
REMARK  6 active torsions:
REMARK  status: ('A' for Active; 'I' for Inactive)
REMARK    1  A    between atoms: N_1  and  S_2
REMARK    2  A    between atoms: S_2  and  C_5
REMARK    3  A    between atoms: C_8  and  S_9
REMARK    4  A    between atoms: S_9  and  C_10
REMARK    5  A    between atoms: N_14  and  C_15
REMARK    6  A    between atoms: C_18  and  C_19
REMARK                            x       y       z     vdW  Elec       q    Type
REMARK                         _______ _______ _______ _____ _____    ______ ____
ROOT
ATOM      1  C   UNL     1       7.159   6.207  17.251  0.00  0.00    +0.000 A 
ATOM      2  N   UNL     1       6.887   7.378  16.725  0.00  0.00    +0.000 NA
ATOM      3  N   UNL     1       7.438   8.404  17.459  0.00  0.00    +0.000 NA
ATOM      4  C   UNL     1       8.143   7.992  18.495  0.00  0.00    +0.000 A 
ATOM      5  N   UNL     1       8.833   8.758  19.378  0.00  0.00    +0.000 N 
ATOM      6  S   UNL     1       8.097   6.271  18.681  0.00  0.00    +0.000 S 
ATOM      7  H   UNL     1       9.211   8.305  20.201  0.00  0.00    +0.000 HD
ENDROOT
BRANCH   5   8
ATOM      8  C   UNL     1       9.273  10.084  19.186  0.00  0.00    +0.000 A 
ATOM      9  C   UNL     1       9.389  11.016  20.225  0.00  0.00    +0.000 A 
ATOM     10  C   UNL     1       9.893  12.301  20.007  0.00  0.00    +0.000 A 
ATOM     11  C   UNL     1      10.309  12.698  18.733  0.00  0.00    +0.000 A 
ATOM     12  C   UNL     1      10.192  11.780  17.680  0.00  0.00    +0.000 A 
ATOM     13  C   UNL     1       9.687  10.491  17.907  0.00  0.00    +0.000 A 
BRANCH  11  14
ATOM     14  C   UNL     1      10.886  14.071  18.502  0.00  0.00    +0.000 C 
ATOM     15  F   UNL     1      11.428  14.632  19.620  0.00  0.00    +0.000 F 
ATOM     16  F   UNL     1      11.879  14.070  17.570  0.00  0.00    +0.000 F 
ATOM     17  F   UNL     1       9.957  14.961  18.056  0.00  0.00    +0.000 F 
ENDBRANCH  11  14
ENDBRANCH   5   8
BRANCH   1  18
ATOM     18  S   UNL     1       6.624   4.726  16.492  0.00  0.00    +0.000 S 
BRANCH  18  22
ATOM     19  C   UNL     1       2.905   3.905  19.039  0.00  0.00    +0.000 A 
ATOM     20  C   UNL     1       4.167   3.701  19.603  0.00  0.00    +0.000 A 
ATOM     21  C   UNL     1       5.312   3.957  18.841  0.00  0.00    +0.000 A 
ATOM     22  C   UNL     1       5.199   4.395  17.513  0.00  0.00    +0.000 A 
ATOM     23  C   UNL     1       3.927   4.618  16.971  0.00  0.00    +0.000 A 
ATOM     24  C   UNL     1       2.779   4.371  17.729  0.00  0.00    +0.000 A 
BRANCH  19  25
ATOM     25  S   UNL     1       1.454   3.564  19.993  0.00  0.00    +0.000 S 
ATOM     26  O   UNL     1       0.604   2.680  19.234  0.00  0.00    +0.000 OA
ATOM     27  O   UNL     1       0.973   4.797  20.579  0.00  0.00    +0.000 OA
BRANCH  25  28
ATOM     28  N   UNL     1       2.056   2.670  21.277  0.00  0.00    +0.000 NA
ATOM     29  H   UNL     1       3.069   2.789  21.325  0.00  0.00    +0.000 HD
ATOM     30  H   UNL     1       1.764   1.695  21.187  0.00  0.00    +0.000 HD
ENDBRANCH  25  28
ENDBRANCH  19  25
ENDBRANCH  18  22
ENDBRANCH   1  18
TORSDOF 6
ENDMDL
MODEL 4
REMARK VINA RESULT:      -7.9      0.864      1.218
REMARK  Name = 
REMARK  6 active torsions:
REMARK  status: ('A' for Active; 'I' for Inactive)
REMARK    1  A    between atoms: N_1  and  S_2
REMARK    2  A    between atoms: S_2  and  C_5
REMARK    3  A    between atoms: C_8  and  S_9
REMARK    4  A    between atoms: S_9  and  C_10
REMARK    5  A    between atoms: N_14  and  C_15
REMARK    6  A    between atoms: C_18  and  C_19
REMARK                            x       y       z     vdW  Elec       q    Type
REMARK                         _______ _______ _______ _____ _____    ______ ____
ROOT
ATOM      1  C   UNL     1       7.075   6.458  17.313  0.00  0.00    +0.000 A 
ATOM      2  N   UNL     1       6.830   7.636  16.789  0.00  0.00    +0.000 NA
ATOM      3  N   UNL     1       7.461   8.642  17.484  0.00  0.00    +0.000 NA
ATOM      4  C   UNL     1       8.197   8.207  18.489  0.00  0.00    +0.000 A 
ATOM      5  N   UNL     1       8.964   8.949  19.329  0.00  0.00    +0.000 N 
ATOM      6  S   UNL     1       8.084   6.492  18.695  0.00  0.00    +0.000 S 
ATOM      7  H   UNL     1       9.361   8.487  20.137  0.00  0.00    +0.000 HD
ENDROOT
BRANCH   5   8
ATOM      8  C   UNL     1       9.452  10.252  19.102  0.00  0.00    +0.000 A 
ATOM      9  C   UNL     1       9.912  10.697  17.855  0.00  0.00    +0.000 A 
ATOM     10  C   UNL     1      10.325  12.017  17.653  0.00  0.00    +0.000 A 
ATOM     11  C   UNL     1      10.286  12.945  18.697  0.00  0.00    +0.000 A 
ATOM     12  C   UNL     1       9.837  12.514  19.952  0.00  0.00    +0.000 A 
ATOM     13  C   UNL     1       9.422  11.188  20.148  0.00  0.00    +0.000 A 
BRANCH  11  14
ATOM     14  C   UNL     1      10.698  14.377  18.472  0.00  0.00    +0.000 C 
ATOM     15  F   UNL     1      11.795  14.750  19.191  0.00  0.00    +0.000 F 
ATOM     16  F   UNL     1      11.005  14.634  17.169  0.00  0.00    +0.000 F 
ATOM     17  F   UNL     1       9.719  15.263  18.806  0.00  0.00    +0.000 F 
ENDBRANCH  11  14
ENDBRANCH   5   8
BRANCH   1  18
ATOM     18  S   UNL     1       6.438   4.996  16.597  0.00  0.00    +0.000 S 
BRANCH  18  22
ATOM     19  C   UNL     1       2.965   4.244  19.489  0.00  0.00    +0.000 A 
ATOM     20  C   UNL     1       2.752   5.062  18.378  0.00  0.00    +0.000 A 
ATOM     21  C   UNL     1       3.800   5.293  17.480  0.00  0.00    +0.000 A 
ATOM     22  C   UNL     1       5.064   4.727  17.702  0.00  0.00    +0.000 A 
ATOM     23  C   UNL     1       5.254   3.889  18.809  0.00  0.00    +0.000 A 
ATOM     24  C   UNL     1       4.209   3.648  19.705  0.00  0.00    +0.000 A 
BRANCH  19  25
ATOM     25  S   UNL     1       1.648   3.964  20.638  0.00  0.00    +0.000 S 
ATOM     26  O   UNL     1       0.867   5.171  20.743  0.00  0.00    +0.000 OA
ATOM     27  O   UNL     1       2.169   3.268  21.795  0.00  0.00    +0.000 OA
BRANCH  25  28
ATOM     28  N   UNL     1       0.694   2.840  19.839  0.00  0.00    +0.000 NA
ATOM     29  H   UNL     1      -0.198   2.748  20.326  0.00  0.00    +0.000 HD
ATOM     30  H   UNL     1       1.202   1.958  19.747  0.00  0.00    +0.000 HD
ENDBRANCH  25  28
ENDBRANCH  19  25
ENDBRANCH  18  22
ENDBRANCH   1  18
TORSDOF 6
ENDMDL
MODEL 5
REMARK VINA RESULT:      -7.8      1.269      1.427
REMARK  Name = 
REMARK  6 active torsions:
REMARK  status: ('A' for Active; 'I' for Inactive)
REMARK    1  A    between atoms: N_1  and  S_2
REMARK    2  A    between atoms: S_2  and  C_5
REMARK    3  A    between atoms: C_8  and  S_9
REMARK    4  A    between atoms: S_9  and  C_10
REMARK    5  A    between atoms: N_14  and  C_15
REMARK    6  A    between atoms: C_18  and  C_19
REMARK                            x       y       z     vdW  Elec       q    Type
REMARK                         _______ _______ _______ _____ _____    ______ ____
ROOT
ATOM      1  C   UNL     1       7.194   6.210  17.235  0.00  0.00    +0.000 A 
ATOM      2  N   UNL     1       6.916   7.381  16.710  0.00  0.00    +0.000 NA
ATOM      3  N   UNL     1       7.452   8.408  17.452  0.00  0.00    +0.000 NA
ATOM      4  C   UNL     1       8.153   7.999  18.492  0.00  0.00    +0.000 A 
ATOM      5  N   UNL     1       8.829   8.768  19.383  0.00  0.00    +0.000 N 
ATOM      6  S   UNL     1       8.121   6.277  18.672  0.00  0.00    +0.000 S 
ATOM      7  H   UNL     1       9.205   8.316  20.207  0.00  0.00    +0.000 HD
ENDROOT
BRANCH   5   8
ATOM      8  C   UNL     1       9.259  10.099  19.199  0.00  0.00    +0.000 A 
ATOM      9  C   UNL     1       9.352  11.030  20.242  0.00  0.00    +0.000 A 
ATOM     10  C   UNL     1       9.847  12.320  20.032  0.00  0.00    +0.000 A 
ATOM     11  C   UNL     1      10.275  12.723  18.765  0.00  0.00    +0.000 A 
ATOM     12  C   UNL     1      10.181  11.807  17.709  0.00  0.00    +0.000 A 
ATOM     13  C   UNL     1       9.685  10.512  17.927  0.00  0.00    +0.000 A 
BRANCH  11  14
ATOM     14  C   UNL     1      10.842  14.102  18.544  0.00  0.00    +0.000 C 
ATOM     15  F   UNL     1       9.974  15.107  18.857  0.00  0.00    +0.000 F 
ATOM     16  F   UNL     1      11.959  14.333  19.288  0.00  0.00    +0.000 F 
ATOM     17  F   UNL     1      11.204  14.318  17.249  0.00  0.00    +0.000 F 
ENDBRANCH  11  14
ENDBRANCH   5   8
BRANCH   1  18
ATOM     18  S   UNL     1       6.679   4.727  16.466  0.00  0.00    +0.000 S 
BRANCH  18  22
ATOM     19  C   UNL     1       2.974   3.913  19.036  0.00  0.00    +0.000 A 
ATOM     20  C   UNL     1       2.821   4.037  17.654  0.00  0.00    +0.000 A 
ATOM     21  C   UNL     1       3.945   4.275  16.855  0.00  0.00    +0.000 A 
ATOM     22  C   UNL     1       5.214   4.412  17.436  0.00  0.00    +0.000 A 
ATOM     23  C   UNL     1       5.354   4.260  18.821  0.00  0.00    +0.000 A 
ATOM     24  C   UNL     1       4.237   4.015  19.624  0.00  0.00    +0.000 A 
BRANCH  19  25
ATOM     25  S   UNL     1       1.554   3.631  20.054  0.00  0.00    +0.000 S 
ATOM     26  O   UNL     1       0.646   2.764  19.343  0.00  0.00    +0.000 OA
ATOM     27  O   UNL     1       1.136   4.884  20.642  0.00  0.00    +0.000 OA
BRANCH  25  28
ATOM     28  N   UNL     1       2.182   2.733  21.324  0.00  0.00    +0.000 NA
ATOM     29  H   UNL     1       3.200   2.808  21.319  0.00  0.00    +0.000 HD
ATOM     30  H   UNL     1       1.843   1.771  21.268  0.00  0.00    +0.000 HD
ENDBRANCH  25  28
ENDBRANCH  19  25
ENDBRANCH  18  22
ENDBRANCH   1  18
TORSDOF 6
ENDMDL
MODEL 6
REMARK VINA RESULT:      -7.7      1.343      1.641
REMARK  Name = 
REMARK  6 active torsions:
REMARK  status: ('A' for Active; 'I' for Inactive)
REMARK    1  A    between atoms: N_1  and  S_2
REMARK    2  A    between atoms: S_2  and  C_5
REMARK    3  A    between atoms: C_8  and  S_9
REMARK    4  A    between atoms: S_9  and  C_10
REMARK    5  A    between atoms: N_14  and  C_15
REMARK    6  A    between atoms: C_18  and  C_19
REMARK                            x       y       z     vdW  Elec       q    Type
REMARK                         _______ _______ _______ _____ _____    ______ ____
ROOT
ATOM      1  C   UNL     1       6.770   5.924  16.949  0.00  0.00    +0.000 A 
ATOM      2  N   UNL     1       6.471   7.112  16.479  0.00  0.00    +0.000 NA
ATOM      3  N   UNL     1       7.063   8.112  17.216  0.00  0.00    +0.000 NA
ATOM      4  C   UNL     1       7.823   7.665  18.197  0.00  0.00    +0.000 A 
ATOM      5  N   UNL     1       8.562   8.400  19.067  0.00  0.00    +0.000 N 
ATOM      6  S   UNL     1       7.785   5.939  18.327  0.00  0.00    +0.000 S 
ATOM      7  H   UNL     1       8.984   7.920  19.852  0.00  0.00    +0.000 HD
ENDROOT
BRANCH   5   8
ATOM      8  C   UNL     1       8.993   9.733  18.897  0.00  0.00    +0.000 A 
ATOM      9  C   UNL     1       8.621  10.530  17.807  0.00  0.00    +0.000 A 
ATOM     10  C   UNL     1       9.013  11.868  17.707  0.00  0.00    +0.000 A 
ATOM     11  C   UNL     1       9.790  12.460  18.706  0.00  0.00    +0.000 A 
ATOM     12  C   UNL     1      10.178  11.674  19.800  0.00  0.00    +0.000 A 
ATOM     13  C   UNL     1       9.779  10.332  19.894  0.00  0.00    +0.000 A 
BRANCH  11  14
ATOM     14  C   UNL     1      10.184  13.912  18.618  0.00  0.00    +0.000 C 
ATOM     15  F   UNL     1      11.288  14.224  19.355  0.00  0.00    +0.000 F 
ATOM     16  F   UNL     1      10.470  14.299  17.343  0.00  0.00    +0.000 F 
ATOM     17  F   UNL     1       9.201  14.749  19.051  0.00  0.00    +0.000 F 
ENDBRANCH  11  14
ENDBRANCH   5   8
BRANCH   1  18
ATOM     18  S   UNL     1       6.192   4.469  16.170  0.00  0.00    +0.000 S 
BRANCH  18  22
ATOM     19  C   UNL     1       2.490   3.633  18.737  0.00  0.00    +0.000 A 
ATOM     20  C   UNL     1       2.742   4.943  18.323  0.00  0.00    +0.000 A 
ATOM     21  C   UNL     1       3.863   5.212  17.530  0.00  0.00    +0.000 A 
ATOM     22  C   UNL     1       4.742   4.181  17.169  0.00  0.00    +0.000 A 
ATOM     23  C   UNL     1       4.462   2.869  17.572  0.00  0.00    +0.000 A 
ATOM     24  C   UNL     1       3.340   2.592  18.358  0.00  0.00    +0.000 A 
BRANCH  19  25
ATOM     25  S   UNL     1       1.084   3.290  19.755  0.00  0.00    +0.000 S 
ATOM     26  O   UNL     1       0.185   2.434  19.022  0.00  0.00    +0.000 OA
ATOM     27  O   UNL     1       0.650   4.515  20.391  0.00  0.00    +0.000 OA
BRANCH  25  28
ATOM     28  N   UNL     1       1.739   2.360  20.988  0.00  0.00    +0.000 NA
ATOM     29  H   UNL     1       2.561   2.832  21.366  0.00  0.00    +0.000 HD
ATOM     30  H   UNL     1       1.931   1.417  20.645  0.00  0.00    +0.000 HD
ENDBRANCH  25  28
ENDBRANCH  19  25
ENDBRANCH  18  22
ENDBRANCH   1  18
TORSDOF 6
ENDMDL
MODEL 7
REMARK VINA RESULT:      -7.7      1.079      1.369
REMARK  Name = 
REMARK  6 active torsions:
REMARK  status: ('A' for Active; 'I' for Inactive)
REMARK    1  A    between atoms: N_1  and  S_2
REMARK    2  A    between atoms: S_2  and  C_5
REMARK    3  A    between atoms: C_8  and  S_9
REMARK    4  A    between atoms: S_9  and  C_10
REMARK    5  A    between atoms: N_14  and  C_15
REMARK    6  A    between atoms: C_18  and  C_19
REMARK                            x       y       z     vdW  Elec       q    Type
REMARK                         _______ _______ _______ _____ _____    ______ ____
ROOT
ATOM      1  C   UNL     1       7.192   6.134  17.226  0.00  0.00    +0.000 A 
ATOM      2  N   UNL     1       6.905   7.299  16.696  0.00  0.00    +0.000 NA
ATOM      3  N   UNL     1       7.432   8.335  17.434  0.00  0.00    +0.000 NA
ATOM      4  C   UNL     1       8.135   7.935  18.477  0.00  0.00    +0.000 A 
ATOM      5  N   UNL     1       8.804   8.713  19.365  0.00  0.00    +0.000 N 
ATOM      6  S   UNL     1       8.116   6.214  18.664  0.00  0.00    +0.000 S 
ATOM      7  H   UNL     1       9.183   8.268  20.192  0.00  0.00    +0.000 HD
ENDROOT
BRANCH   5   8
ATOM      8  C   UNL     1       9.223  10.047  19.176  0.00  0.00    +0.000 A 
ATOM      9  C   UNL     1       9.920  10.781  20.145  0.00  0.00    +0.000 A 
ATOM     10  C   UNL     1      10.379  12.077  19.895  0.00  0.00    +0.000 A 
ATOM     11  C   UNL     1      10.160  12.685  18.656  0.00  0.00    +0.000 A 
ATOM     12  C   UNL     1       9.457  11.968  17.679  0.00  0.00    +0.000 A 
ATOM     13  C   UNL     1       9.002  10.666  17.935  0.00  0.00    +0.000 A 
BRANCH  11  14
ATOM     14  C   UNL     1      10.684  14.070  18.372  0.00  0.00    +0.000 C 
ATOM     15  F   UNL     1       9.712  15.026  18.336  0.00  0.00    +0.000 F 
ATOM     16  F   UNL     1      11.581  14.490  19.307  0.00  0.00    +0.000 F 
ATOM     17  F   UNL     1      11.327  14.151  17.175  0.00  0.00    +0.000 F 
ENDBRANCH  11  14
ENDBRANCH   5   8
BRANCH   1  18
ATOM     18  S   UNL     1       6.689   4.643  16.464  0.00  0.00    +0.000 S 
BRANCH  18  22
ATOM     19  C   UNL     1       2.976   3.706  18.979  0.00  0.00    +0.000 A 
ATOM     20  C   UNL     1       4.134   4.146  19.625  0.00  0.00    +0.000 A 
ATOM     21  C   UNL     1       5.272   4.446  18.869  0.00  0.00    +0.000 A 
ATOM     22  C   UNL     1       5.263   4.286  17.475  0.00  0.00    +0.000 A 
ATOM     23  C   UNL     1       4.086   3.868  16.841  0.00  0.00    +0.000 A 
ATOM     24  C   UNL     1       2.943   3.574  17.589  0.00  0.00    +0.000 A 
BRANCH  19  25
ATOM     25  S   UNL     1       1.538   3.307  19.932  0.00  0.00    +0.000 S 
ATOM     26  O   UNL     1       0.863   4.533  20.277  0.00  0.00    +0.000 OA
ATOM     27  O   UNL     1       1.885   2.304  20.915  0.00  0.00    +0.000 OA
BRANCH  25  28
ATOM     28  N   UNL     1       0.565   2.517  18.818  0.00  0.00    +0.000 NA
ATOM     29  H   UNL     1      -0.304   2.232  19.272  0.00  0.00    +0.000 HD
ATOM     30  H   UNL     1       1.079   1.741  18.399  0.00  0.00    +0.000 HD
ENDBRANCH  25  28
ENDBRANCH  19  25
ENDBRANCH  18  22
ENDBRANCH   1  18
TORSDOF 6
ENDMDL
MODEL 8
REMARK VINA RESULT:      -7.7      1.088      1.737
REMARK  Name = 
REMARK  6 active torsions:
REMARK  status: ('A' for Active; 'I' for Inactive)
REMARK    1  A    between atoms: N_1  and  S_2
REMARK    2  A    between atoms: S_2  and  C_5
REMARK    3  A    between atoms: C_8  and  S_9
REMARK    4  A    between atoms: S_9  and  C_10
REMARK    5  A    between atoms: N_14  and  C_15
REMARK    6  A    between atoms: C_18  and  C_19
REMARK                            x       y       z     vdW  Elec       q    Type
REMARK                         _______ _______ _______ _____ _____    ______ ____
ROOT
ATOM      1  C   UNL     1       7.142   6.369  17.314  0.00  0.00    +0.000 A 
ATOM      2  N   UNL     1       6.930   7.537  16.753  0.00  0.00    +0.000 NA
ATOM      3  N   UNL     1       7.523   8.555  17.465  0.00  0.00    +0.000 NA
ATOM      4  C   UNL     1       8.199   8.138  18.518  0.00  0.00    +0.000 A 
ATOM      5  N   UNL     1       8.917   8.895  19.387  0.00  0.00    +0.000 N 
ATOM      6  S   UNL     1       8.070   6.427  18.750  0.00  0.00    +0.000 S 
ATOM      7  H   UNL     1       9.266   8.448  20.226  0.00  0.00    +0.000 HD
ENDROOT
BRANCH   5   8
ATOM      8  C   UNL     1       9.421  10.193  19.164  0.00  0.00    +0.000 A 
ATOM      9  C   UNL     1       9.728  10.693  17.892  0.00  0.00    +0.000 A 
ATOM     10  C   UNL     1      10.162  12.008  17.704  0.00  0.00    +0.000 A 
ATOM     11  C   UNL     1      10.297  12.876  18.790  0.00  0.00    +0.000 A 
ATOM     12  C   UNL     1      10.002  12.390  20.071  0.00  0.00    +0.000 A 
ATOM     13  C   UNL     1       9.566  11.069  20.252  0.00  0.00    +0.000 A 
BRANCH  11  14
ATOM     14  C   UNL     1      10.731  14.306  18.586  0.00  0.00    +0.000 C 
ATOM     15  F   UNL     1      12.042  14.528  18.889  0.00  0.00    +0.000 F 
ATOM     16  F   UNL     1      10.574  14.720  17.297  0.00  0.00    +0.000 F 
ATOM     17  F   UNL     1      10.021  15.183  19.349  0.00  0.00    +0.000 F 
ENDBRANCH  11  14
ENDBRANCH   5   8
BRANCH   1  18
ATOM     18  S   UNL     1       6.544   4.894  16.590  0.00  0.00    +0.000 S 
BRANCH  18  22
ATOM     19  C   UNL     1       2.963   4.244  19.374  0.00  0.00    +0.000 A 
ATOM     20  C   UNL     1       3.659   3.130  18.899  0.00  0.00    +0.000 A 
ATOM     21  C   UNL     1       4.761   3.313  18.056  0.00  0.00    +0.000 A 
ATOM     22  C   UNL     1       5.154   4.603  17.671  0.00  0.00    +0.000 A 
ATOM     23  C   UNL     1       4.461   5.710  18.175  0.00  0.00    +0.000 A 
ATOM     24  C   UNL     1       3.364   5.535  19.023  0.00  0.00    +0.000 A 
BRANCH  19  25
ATOM     25  S   UNL     1       1.558   4.017  20.425  0.00  0.00    +0.000 S 
ATOM     26  O   UNL     1       0.711   3.004  19.846  0.00  0.00    +0.000 OA
ATOM     27  O   UNL     1       1.058   5.312  20.832  0.00  0.00    +0.000 OA
BRANCH  25  28
ATOM     28  N   UNL     1       2.234   3.349  21.807  0.00  0.00    +0.000 NA
ATOM     29  H   UNL     1       1.527   3.307  22.541  0.00  0.00    +0.000 HD
ATOM     30  H   UNL     1       3.068   3.875  22.072  0.00  0.00    +0.000 HD
ENDBRANCH  25  28
ENDBRANCH  19  25
ENDBRANCH  18  22
ENDBRANCH   1  18
TORSDOF 6
ENDMDL
MODEL 9
REMARK VINA RESULT:      -7.7      1.088      1.267
REMARK  Name = 
REMARK  6 active torsions:
REMARK  status: ('A' for Active; 'I' for Inactive)
REMARK    1  A    between atoms: N_1  and  S_2
REMARK    2  A    between atoms: S_2  and  C_5
REMARK    3  A    between atoms: C_8  and  S_9
REMARK    4  A    between atoms: S_9  and  C_10
REMARK    5  A    between atoms: N_14  and  C_15
REMARK    6  A    between atoms: C_18  and  C_19
REMARK                            x       y       z     vdW  Elec       q    Type
REMARK                         _______ _______ _______ _____ _____    ______ ____
ROOT
ATOM      1  C   UNL     1       7.088   6.355  17.279  0.00  0.00    +0.000 A 
ATOM      2  N   UNL     1       6.878   7.536  16.745  0.00  0.00    +0.000 NA
ATOM      3  N   UNL     1       7.484   8.535  17.472  0.00  0.00    +0.000 NA
ATOM      4  C   UNL     1       8.167   8.093  18.510  0.00  0.00    +0.000 A 
ATOM      5  N   UNL     1       8.898   8.827  19.388  0.00  0.00    +0.000 N 
ATOM      6  S   UNL     1       8.030   6.378  18.707  0.00  0.00    +0.000 S 
ATOM      7  H   UNL     1       9.252   8.360  20.213  0.00  0.00    +0.000 HD
ENDROOT
BRANCH   5   8
ATOM      8  C   UNL     1       9.407  10.126  19.187  0.00  0.00    +0.000 A 
ATOM      9  C   UNL     1       9.699  10.653  17.922  0.00  0.00    +0.000 A 
ATOM     10  C   UNL     1      10.138  11.970  17.758  0.00  0.00    +0.000 A 
ATOM     11  C   UNL     1      10.296  12.812  18.862  0.00  0.00    +0.000 A 
ATOM     12  C   UNL     1      10.017  12.298  20.135  0.00  0.00    +0.000 A 
ATOM     13  C   UNL     1       9.574  10.976  20.292  0.00  0.00    +0.000 A 
BRANCH  11  14
ATOM     14  C   UNL     1      10.736  14.243  18.684  0.00  0.00    +0.000 C 
ATOM     15  F   UNL     1       9.807  15.029  18.071  0.00  0.00    +0.000 F 
ATOM     16  F   UNL     1      11.013  14.854  19.870  0.00  0.00    +0.000 F 
ATOM     17  F   UNL     1      11.867  14.354  17.934  0.00  0.00    +0.000 F 
ENDBRANCH  11  14
ENDBRANCH   5   8
BRANCH   1  18
ATOM     18  S   UNL     1       6.475   4.899  16.530  0.00  0.00    +0.000 S 
BRANCH  18  22
ATOM     19  C   UNL     1       3.033   4.002  19.418  0.00  0.00    +0.000 A 
ATOM     20  C   UNL     1       2.826   4.923  18.389  0.00  0.00    +0.000 A 
ATOM     21  C   UNL     1       3.865   5.200  17.493  0.00  0.00    +0.000 A 
ATOM     22  C   UNL     1       5.113   4.576  17.636  0.00  0.00    +0.000 A 
ATOM     23  C   UNL     1       5.295   3.637  18.659  0.00  0.00    +0.000 A 
ATOM     24  C   UNL     1       4.260   3.350  19.553  0.00  0.00    +0.000 A 
BRANCH  19  25
ATOM     25  S   UNL     1       1.729   3.662  20.566  0.00  0.00    +0.000 S 
ATOM     26  O   UNL     1       2.313   3.385  21.855  0.00  0.00    +0.000 OA
ATOM     27  O   UNL     1       0.766   2.783  19.940  0.00  0.00    +0.000 OA
BRANCH  25  28
ATOM     28  N   UNL     1       0.956   5.145  20.696  0.00  0.00    +0.000 NA
ATOM     29  H   UNL     1       0.352   5.283  19.885  0.00  0.00    +0.000 HD
ATOM     30  H   UNL     1       1.648   5.886  20.820  0.00  0.00    +0.000 HD
ENDBRANCH  25  28
ENDBRANCH  19  25
ENDBRANCH  18  22
ENDBRANCH   1  18
TORSDOF 6
ENDMDL
