MODEL 1
REMARK VINA RESULT:      -6.9      0.000      0.000
REMARK  Name = 
REMARK  4 active torsions:
REMARK  status: ('A' for Active; 'I' for Inactive)
REMARK    1  A    between atoms: C_1  and  C_2
REMARK    2  A    between atoms: C_8  and  O_9
REMARK    3  A    between atoms: C_12  and  C_13
REMARK    4  A    between atoms: N_16  and  C_17
REMARK                            x       y       z     vdW  Elec       q    Type
REMARK                         _______ _______ _______ _____ _____    ______ ____
ROOT
ATOM      1  C   UNL     1       1.168   4.463  16.938  0.00  0.00    +0.000 C 
ATOM      2  C   UNL     1       1.850   4.362  18.320  0.00  0.00    +0.000 C 
ATOM      3  C   UNL     1       2.681   3.089  18.580  0.00  0.00    +0.000 C 
ATOM      4  C   UNL     1       3.445   2.741  17.312  0.00  0.00    +0.000 C 
ATOM      5  C   UNL     1       4.316   4.016  17.034  0.00  0.00    +0.000 A 
ATOM      6  C   UNL     1       5.400   3.926  16.148  0.00  0.00    +0.000 A 
ATOM      7  C   UNL     1       6.264   5.014  15.970  0.00  0.00    +0.000 A 
ATOM      8  C   UNL     1       6.049   6.192  16.680  0.00  0.00    +0.000 A 
ATOM      9  C   UNL     1       4.967   6.327  17.532  0.00  0.00    +0.000 A 
ATOM     10  C   UNL     1       4.064   5.270  17.703  0.00  0.00    +0.000 A 
ATOM     11  C   UNL     1       2.861   5.460  18.664  0.00  0.00    +0.000 C 
ATOM     12  C   UNL     1       2.176   6.835  18.543  0.00  0.00    +0.000 C 
ATOM     13  C   UNL     1       3.338   5.271  20.161  0.00  0.00    +0.000 C 
ATOM     14  C   UNL     1       2.348   4.491  21.081  0.00  0.00    +0.000 C 
ATOM     15  N   UNL     1       2.303   2.999  21.007  0.00  0.00    +0.000 NA
ATOM     16  C   UNL     1       1.461   2.490  22.088  0.00  0.00    +0.000 C 
ATOM     17  C   UNL     1       2.013   2.307  19.698  0.00  0.00    +0.000 C 
ENDROOT
BRANCH   8  18
ATOM     18  O   UNL     1       6.896   7.258  16.580  0.00  0.00    +0.000 OA
ATOM     19  H   UNL     1       7.148   7.537  17.474  0.00  0.00    +0.000 HD
ENDBRANCH   8  18
TORSDOF 1
ENDMDL
MODEL 2
REMARK VINA RESULT:      -6.0      2.089      3.459
REMARK  Name = 
REMARK  4 active torsions:
REMARK  status: ('A' for Active; 'I' for Inactive)
REMARK    1  A    between atoms: C_1  and  C_2
REMARK    2  A    between atoms: C_8  and  O_9
REMARK    3  A    between atoms: C_12  and  C_13
REMARK    4  A    between atoms: N_16  and  C_17
REMARK                            x       y       z     vdW  Elec       q    Type
REMARK                         _______ _______ _______ _____ _____    ______ ____
ROOT
ATOM      1  C   UNL     1       6.082   3.985  15.995  0.00  0.00    +0.000 C 
ATOM      2  C   UNL     1       4.986   4.652  16.854  0.00  0.00    +0.000 C 
ATOM      3  C   UNL     1       5.042   4.373  18.370  0.00  0.00    +0.000 C 
ATOM      4  C   UNL     1       6.496   4.398  18.815  0.00  0.00    +0.000 C 
ATOM      5  C   UNL     1       6.986   5.835  18.420  0.00  0.00    +0.000 A 
ATOM      6  C   UNL     1       8.169   6.335  18.985  0.00  0.00    +0.000 A 
ATOM      7  C   UNL     1       8.568   7.655  18.743  0.00  0.00    +0.000 A 
ATOM      8  C   UNL     1       7.786   8.479  17.938  0.00  0.00    +0.000 A 
ATOM      9  C   UNL     1       6.635   8.004  17.333  0.00  0.00    +0.000 A 
ATOM     10  C   UNL     1       6.229   6.678  17.526  0.00  0.00    +0.000 A 
ATOM     11  C   UNL     1       4.935   6.182  16.829  0.00  0.00    +0.000 C 
ATOM     12  C   UNL     1       4.789   6.659  15.371  0.00  0.00    +0.000 C 
ATOM     13  C   UNL     1       3.668   6.671  17.643  0.00  0.00    +0.000 C 
ATOM     14  C   UNL     1       2.514   5.627  17.764  0.00  0.00    +0.000 C 
ATOM     15  N   UNL     1       2.622   4.532  18.774  0.00  0.00    +0.000 NA
ATOM     16  C   UNL     1       1.351   3.813  18.840  0.00  0.00    +0.000 C 
ATOM     17  C   UNL     1       3.799   3.587  18.754  0.00  0.00    +0.000 C 
ENDROOT
BRANCH   8  18
ATOM     18  O   UNL     1       8.108   9.788  17.719  0.00  0.00    +0.000 OA
ATOM     19  H   UNL     1       7.827  10.307  18.487  0.00  0.00    +0.000 HD
ENDBRANCH   8  18
TORSDOF 1
ENDMDL
MODEL 3
REMARK VINA RESULT:      -5.8      2.798      5.233
REMARK  Name = 
REMARK  4 active torsions:
REMARK  status: ('A' for Active; 'I' for Inactive)
REMARK    1  A    between atoms: C_1  and  C_2
REMARK    2  A    between atoms: C_8  and  O_9
REMARK    3  A    between atoms: C_12  and  C_13
REMARK    4  A    between atoms: N_16  and  C_17
REMARK                            x       y       z     vdW  Elec       q    Type
REMARK                         _______ _______ _______ _____ _____    ______ ____
ROOT
ATOM      1  C   UNL     1       6.930   4.761  18.543  0.00  0.00    +0.000 C 
ATOM      2  C   UNL     1       6.263   5.010  17.172  0.00  0.00    +0.000 C 
ATOM      3  C   UNL     1       5.225   3.963  16.718  0.00  0.00    +0.000 C 
ATOM      4  C   UNL     1       4.392   3.552  17.921  0.00  0.00    +0.000 C 
ATOM      5  C   UNL     1       3.754   4.897  18.416  0.00  0.00    +0.000 A 
ATOM      6  C   UNL     1       2.658   4.855  19.289  0.00  0.00    +0.000 A 
ATOM      7  C   UNL     1       1.995   6.035  19.654  0.00  0.00    +0.000 A 
ATOM      8  C   UNL     1       2.426   7.256  19.145  0.00  0.00    +0.000 A 
ATOM      9  C   UNL     1       3.529   7.336  18.312  0.00  0.00    +0.000 A 
ATOM     10  C   UNL     1       4.234   6.179  17.958  0.00  0.00    +0.000 A 
ATOM     11  C   UNL     1       5.467   6.310  17.026  0.00  0.00    +0.000 C 
ATOM     12  C   UNL     1       6.381   7.504  17.363  0.00  0.00    +0.000 C 
ATOM     13  C   UNL     1       4.988   6.456  15.525  0.00  0.00    +0.000 C 
ATOM     14  C   UNL     1       5.841   5.675  14.476  0.00  0.00    +0.000 C 
ATOM     15  N   UNL     1       5.621   4.207  14.304  0.00  0.00    +0.000 NA
ATOM     16  C   UNL     1       6.378   3.742  13.143  0.00  0.00    +0.000 C 
ATOM     17  C   UNL     1       5.764   3.269  15.478  0.00  0.00    +0.000 C 
ENDROOT
BRANCH   8  18
ATOM     18  O   UNL     1       1.778   8.424  19.429  0.00  0.00    +0.000 OA
ATOM     19  H   UNL     1       0.903   8.212  19.790  0.00  0.00    +0.000 HD
ENDBRANCH   8  18
TORSDOF 1
ENDMDL
MODEL 4
REMARK VINA RESULT:      -5.7      6.996      9.333
REMARK  Name = 
REMARK  4 active torsions:
REMARK  status: ('A' for Active; 'I' for Inactive)
REMARK    1  A    between atoms: C_1  and  C_2
REMARK    2  A    between atoms: C_8  and  O_9
REMARK    3  A    between atoms: C_12  and  C_13
REMARK    4  A    between atoms: N_16  and  C_17
REMARK                            x       y       z     vdW  Elec       q    Type
REMARK                         _______ _______ _______ _____ _____    ______ ____
ROOT
ATOM      1  C   UNL     1       0.047  13.023  18.432  0.00  0.00    +0.000 C 
ATOM      2  C   UNL     1      -1.364  12.491  18.763  0.00  0.00    +0.000 C 
ATOM      3  C   UNL     1      -1.734  11.118  18.164  0.00  0.00    +0.000 C 
ATOM      4  C   UNL     1      -0.520  10.206  18.256  0.00  0.00    +0.000 C 
ATOM      5  C   UNL     1      -0.200  10.158  19.791  0.00  0.00    +0.000 A 
ATOM      6  C   UNL     1       0.636   9.146  20.285  0.00  0.00    +0.000 A 
ATOM      7  C   UNL     1       0.845   9.007  21.663  0.00  0.00    +0.000 A 
ATOM      8  C   UNL     1       0.217   9.878  22.550  0.00  0.00    +0.000 A 
ATOM      9  C   UNL     1      -0.582  10.912  22.093  0.00  0.00    +0.000 A 
ATOM     10  C   UNL     1      -0.781  11.099  20.719  0.00  0.00    +0.000 A 
ATOM     11  C   UNL     1      -1.681  12.271  20.245  0.00  0.00    +0.000 C 
ATOM     12  C   UNL     1      -1.448  13.586  21.013  0.00  0.00    +0.000 C 
ATOM     13  C   UNL     1      -3.204  11.868  20.394  0.00  0.00    +0.000 C 
ATOM     14  C   UNL     1      -4.130  12.329  19.225  0.00  0.00    +0.000 C 
ATOM     15  N   UNL     1      -4.145  11.546  17.953  0.00  0.00    +0.000 NA
ATOM     16  C   UNL     1      -5.221  12.042  17.097  0.00  0.00    +0.000 C 
ATOM     17  C   UNL     1      -2.870  11.323  17.177  0.00  0.00    +0.000 C 
ENDROOT
BRANCH   8  18
ATOM     18  O   UNL     1       0.349   9.747  23.903  0.00  0.00    +0.000 OA
ATOM     19  H   UNL     1      -0.006  10.544  24.325  0.00  0.00    +0.000 HD
ENDBRANCH   8  18
TORSDOF 1
ENDMDL
MODEL 5
REMARK VINA RESULT:      -5.7      2.870      5.052
REMARK  Name = 
REMARK  4 active torsions:
REMARK  status: ('A' for Active; 'I' for Inactive)
REMARK    1  A    between atoms: C_1  and  C_2
REMARK    2  A    between atoms: C_8  and  O_9
REMARK    3  A    between atoms: C_12  and  C_13
REMARK    4  A    between atoms: N_16  and  C_17
REMARK                            x       y       z     vdW  Elec       q    Type
REMARK                         _______ _______ _______ _____ _____    ______ ____
ROOT
ATOM      1  C   UNL     1       1.562   4.852  17.337  0.00  0.00    +0.000 C 
ATOM      2  C   UNL     1       2.961   5.104  17.940  0.00  0.00    +0.000 C 
ATOM      3  C   UNL     1       3.761   6.278  17.340  0.00  0.00    +0.000 C 
ATOM      4  C   UNL     1       2.808   7.435  17.084  0.00  0.00    +0.000 C 
ATOM      5  C   UNL     1       2.202   7.744  18.497  0.00  0.00    +0.000 A 
ATOM      6  C   UNL     1       1.548   8.967  18.710  0.00  0.00    +0.000 A 
ATOM      7  C   UNL     1       1.101   9.319  19.990  0.00  0.00    +0.000 A 
ATOM      8  C   UNL     1       1.308   8.452  21.059  0.00  0.00    +0.000 A 
ATOM      9  C   UNL     1       1.914   7.221  20.875  0.00  0.00    +0.000 A 
ATOM     10  C   UNL     1       2.339   6.824  19.601  0.00  0.00    +0.000 A 
ATOM     11  C   UNL     1       3.011   5.436  19.434  0.00  0.00    +0.000 C 
ATOM     12  C   UNL     1       2.320   4.309  20.226  0.00  0.00    +0.000 C 
ATOM     13  C   UNL     1       4.523   5.515  19.895  0.00  0.00    +0.000 C 
ATOM     14  C   UNL     1       5.531   4.722  19.006  0.00  0.00    +0.000 C 
ATOM     15  N   UNL     1       5.993   5.317  17.716  0.00  0.00    +0.000 NA
ATOM     16  C   UNL     1       7.071   4.496  17.168  0.00  0.00    +0.000 C 
ATOM     17  C   UNL     1       4.994   5.711  16.655  0.00  0.00    +0.000 C 
ENDROOT
BRANCH   8  18
ATOM     18  O   UNL     1       0.938   8.777  22.333  0.00  0.00    +0.000 OA
ATOM     19  H   UNL     1       0.358   9.552  22.297  0.00  0.00    +0.000 HD
ENDBRANCH   8  18
TORSDOF 1
ENDMDL
MODEL 6
REMARK VINA RESULT:      -5.7      2.956      5.393
REMARK  Name = 
REMARK  4 active torsions:
REMARK  status: ('A' for Active; 'I' for Inactive)
REMARK    1  A    between atoms: C_1  and  C_2
REMARK    2  A    between atoms: C_8  and  O_9
REMARK    3  A    between atoms: C_12  and  C_13
REMARK    4  A    between atoms: N_16  and  C_17
REMARK                            x       y       z     vdW  Elec       q    Type
REMARK                         _______ _______ _______ _____ _____    ______ ____
ROOT
ATOM      1  C   UNL     1       4.828   6.206  14.884  0.00  0.00    +0.000 C 
ATOM      2  C   UNL     1       5.629   6.021  16.191  0.00  0.00    +0.000 C 
ATOM      3  C   UNL     1       5.175   6.869  17.396  0.00  0.00    +0.000 C 
ATOM      4  C   UNL     1       3.655   6.906  17.418  0.00  0.00    +0.000 C 
ATOM      5  C   UNL     1       3.242   5.396  17.519  0.00  0.00    +0.000 A 
ATOM      6  C   UNL     1       1.935   5.068  17.908  0.00  0.00    +0.000 A 
ATOM      7  C   UNL     1       1.572   3.732  18.121  0.00  0.00    +0.000 A 
ATOM      8  C   UNL     1       2.515   2.723  17.947  0.00  0.00    +0.000 A 
ATOM      9  C   UNL     1       3.801   3.009  17.525  0.00  0.00    +0.000 A 
ATOM     10  C   UNL     1       4.184   4.332  17.269  0.00  0.00    +0.000 A 
ATOM     11  C   UNL     1       5.634   4.613  16.795  0.00  0.00    +0.000 C 
ATOM     12  C   UNL     1       6.152   3.613  15.744  0.00  0.00    +0.000 C 
ATOM     13  C   UNL     1       6.617   4.587  18.036  0.00  0.00    +0.000 C 
ATOM     14  C   UNL     1       7.730   5.681  18.025  0.00  0.00    +0.000 C 
ATOM     15  N   UNL     1       7.389   7.074  18.445  0.00  0.00    +0.000 NA
ATOM     16  C   UNL     1       8.618   7.859  18.546  0.00  0.00    +0.000 C 
ATOM     17  C   UNL     1       6.293   7.838  17.743  0.00  0.00    +0.000 C 
ENDROOT
BRANCH   8  18
ATOM     18  O   UNL     1       2.221   1.412  18.195  0.00  0.00    +0.000 OA
ATOM     19  H   UNL     1       2.859   1.070  18.840  0.00  0.00    +0.000 HD
ENDBRANCH   8  18
TORSDOF 1
ENDMDL
MODEL 7
REMARK VINA RESULT:      -5.6      2.085      3.272
REMARK  Name = 
REMARK  4 active torsions:
REMARK  status: ('A' for Active; 'I' for Inactive)
REMARK    1  A    between atoms: C_1  and  C_2
REMARK    2  A    between atoms: C_8  and  O_9
REMARK    3  A    between atoms: C_12  and  C_13
REMARK    4  A    between atoms: N_16  and  C_17
REMARK                            x       y       z     vdW  Elec       q    Type
REMARK                         _______ _______ _______ _____ _____    ______ ____
ROOT
ATOM      1  C   UNL     1       4.821   2.440  19.853  0.00  0.00    +0.000 C 
ATOM      2  C   UNL     1       3.855   3.521  19.320  0.00  0.00    +0.000 C 
ATOM      3  C   UNL     1       4.300   4.986  19.505  0.00  0.00    +0.000 C 
ATOM      4  C   UNL     1       5.792   5.078  19.229  0.00  0.00    +0.000 C 
ATOM      5  C   UNL     1       5.937   4.557  17.756  0.00  0.00    +0.000 A 
ATOM      6  C   UNL     1       7.118   4.822  17.048  0.00  0.00    +0.000 A 
ATOM      7  C   UNL     1       7.229   4.472  15.696  0.00  0.00    +0.000 A 
ATOM      8  C   UNL     1       6.160   3.859  15.050  0.00  0.00    +0.000 A 
ATOM      9  C   UNL     1       4.995   3.547  15.730  0.00  0.00    +0.000 A 
ATOM     10  C   UNL     1       4.867   3.851  17.091  0.00  0.00    +0.000 A 
ATOM     11  C   UNL     1       3.548   3.483  17.820  0.00  0.00    +0.000 C 
ATOM     12  C   UNL     1       2.998   2.092  17.451  0.00  0.00    +0.000 C 
ATOM     13  C   UNL     1       2.438   4.562  17.492  0.00  0.00    +0.000 C 
ATOM     14  C   UNL     1       1.529   4.966  18.695  0.00  0.00    +0.000 C 
ATOM     15  N   UNL     1       2.043   5.941  19.705  0.00  0.00    +0.000 NA
ATOM     16  C   UNL     1       0.956   6.313  20.609  0.00  0.00    +0.000 C 
ATOM     17  C   UNL     1       3.324   5.662  20.453  0.00  0.00    +0.000 C 
ENDROOT
BRANCH   8  18
ATOM     18  O   UNL     1       6.203   3.550  13.721  0.00  0.00    +0.000 OA
ATOM     19  H   UNL     1       5.432   3.945  13.286  0.00  0.00    +0.000 HD
ENDBRANCH   8  18
TORSDOF 1
ENDMDL
MODEL 8
REMARK VINA RESULT:      -5.6      7.555      9.533
REMARK  Name = 
REMARK  4 active torsions:
REMARK  status: ('A' for Active; 'I' for Inactive)
REMARK    1  A    between atoms: C_1  and  C_2
REMARK    2  A    between atoms: C_8  and  O_9
REMARK    3  A    between atoms: C_12  and  C_13
REMARK    4  A    between atoms: N_16  and  C_17
REMARK                            x       y       z     vdW  Elec       q    Type
REMARK                         _______ _______ _______ _____ _____    ______ ____
ROOT
ATOM      1  C   UNL     1      -0.423   9.905  20.766  0.00  0.00    +0.000 C 
ATOM      2  C   UNL     1      -0.137  11.263  20.089  0.00  0.00    +0.000 C 
ATOM      3  C   UNL     1       0.633  11.211  18.753  0.00  0.00    +0.000 C 
ATOM      4  C   UNL     1       0.118  10.033  17.941  0.00  0.00    +0.000 C 
ATOM      5  C   UNL     1      -1.413  10.332  17.773  0.00  0.00    +0.000 A 
ATOM      6  C   UNL     1      -2.142   9.644  16.792  0.00  0.00    +0.000 A 
ATOM      7  C   UNL     1      -3.480   9.973  16.541  0.00  0.00    +0.000 A 
ATOM      8  C   UNL     1      -4.091  10.991  17.268  0.00  0.00    +0.000 A 
ATOM      9  C   UNL     1      -3.412  11.662  18.270  0.00  0.00    +0.000 A 
ATOM     10  C   UNL     1      -2.084  11.331  18.570  0.00  0.00    +0.000 A 
ATOM     11  C   UNL     1      -1.358  12.104  19.702  0.00  0.00    +0.000 C 
ATOM     12  C   UNL     1      -2.226  12.341  20.953  0.00  0.00    +0.000 C 
ATOM     13  C   UNL     1      -0.868  13.508  19.161  0.00  0.00    +0.000 C 
ATOM     14  C   UNL     1       0.545  13.953  19.653  0.00  0.00    +0.000 C 
ATOM     15  N   UNL     1       1.760  13.382  18.996  0.00  0.00    +0.000 NA
ATOM     16  C   UNL     1       2.944  14.090  19.481  0.00  0.00    +0.000 C 
ATOM     17  C   UNL     1       1.978  11.890  18.955  0.00  0.00    +0.000 C 
ENDROOT
BRANCH   8  18
ATOM     18  O   UNL     1      -5.376  11.382  17.020  0.00  0.00    +0.000 OA
ATOM     19  H   UNL     1      -5.707  11.861  17.794  0.00  0.00    +0.000 HD
ENDBRANCH   8  18
TORSDOF 1
ENDMDL
MODEL 9
REMARK VINA RESULT:      -5.4      9.881     11.630
REMARK  Name = 
REMARK  4 active torsions:
REMARK  status: ('A' for Active; 'I' for Inactive)
REMARK    1  A    between atoms: C_1  and  C_2
REMARK    2  A    between atoms: C_8  and  O_9
REMARK    3  A    between atoms: C_12  and  C_13
REMARK    4  A    between atoms: N_16  and  C_17
REMARK                            x       y       z     vdW  Elec       q    Type
REMARK                         _______ _______ _______ _____ _____    ______ ____
ROOT
ATOM      1  C   UNL     1       9.089  11.958  17.782  0.00  0.00    +0.000 C 
ATOM      2  C   UNL     1       8.953  12.732  19.111  0.00  0.00    +0.000 C 
ATOM      3  C   UNL     1      10.195  12.740  20.027  0.00  0.00    +0.000 C 
ATOM      4  C   UNL     1      11.435  12.899  19.161  0.00  0.00    +0.000 C 
ATOM      5  C   UNL     1      11.199  14.255  18.408  0.00  0.00    +0.000 A 
ATOM      6  C   UNL     1      12.284  14.893  17.788  0.00  0.00    +0.000 A 
ATOM      7  C   UNL     1      12.127  16.159  17.211  0.00  0.00    +0.000 A 
ATOM      8  C   UNL     1      10.888  16.791  17.254  0.00  0.00    +0.000 A 
ATOM      9  C   UNL     1       9.788  16.173  17.823  0.00  0.00    +0.000 A 
ATOM     10  C   UNL     1       9.904  14.891  18.376  0.00  0.00    +0.000 A 
ATOM     11  C   UNL     1       8.648  14.229  19.001  0.00  0.00    +0.000 C 
ATOM     12  C   UNL     1       7.362  14.423  18.174  0.00  0.00    +0.000 C 
ATOM     13  C   UNL     1       8.402  14.814  20.451  0.00  0.00    +0.000 C 
ATOM     14  C   UNL     1       7.950  13.770  21.520  0.00  0.00    +0.000 C 
ATOM     15  N   UNL     1       8.972  12.884  22.155  0.00  0.00    +0.000 NA
ATOM     16  C   UNL     1       8.352  12.145  23.252  0.00  0.00    +0.000 C 
ATOM     17  C   UNL     1       9.847  11.995  21.304  0.00  0.00    +0.000 C 
ENDROOT
BRANCH   8  18
ATOM     18  O   UNL     1      10.702  18.048  16.753  0.00  0.00    +0.000 OA
ATOM     19  H   UNL     1       9.763  18.159  16.540  0.00  0.00    +0.000 HD
ENDBRANCH   8  18
TORSDOF 1
ENDMDL
