MODEL 1
REMARK VINA RESULT:      -6.7      0.000      0.000
REMARK  Name = 
REMARK  15 active torsions:
REMARK  status: ('A' for Active; 'I' for Inactive)
REMARK    1  A    between atoms: C_1  and  C_2
REMARK    2  A    between atoms: C_2  and  N_3
REMARK    3  A    between atoms: C_2  and  C_16
REMARK    4  A    between atoms: N_3  and  CA_4
REMARK    5  A    between atoms: CA_4  and  C_5
REMARK    6  A    between atoms: CA_4  and  C_13
REMARK    7  A    between atoms: C_5  and  C_6
REMARK    8  A    between atoms: C_6  and  C_7
REMARK    9  A    between atoms: C_13  and  OXT_15
REMARK   10  A    between atoms: C_20  and  C_21
REMARK   11  A    between atoms: C_21  and  C_22
REMARK   12  A    between atoms: C_21  and  C_23
REMARK   13  A    between atoms: C_21  and  C_24
REMARK   14  A    between atoms: C_26  and  C_27
REMARK   15  A    between atoms: C_27  and  O_29
REMARK                            x       y       z     vdW  Elec       q    Type
REMARK                         _______ _______ _______ _____ _____    ______ ____
ROOT
ATOM      1  C   UNL     1       1.172   8.253  17.709  0.00  0.00    +0.000 C 
ATOM      2  C   UNL     1       2.053   8.424  18.950  0.00  0.00    +0.000 C 
ENDROOT
BRANCH   2   3
ATOM      3  C   UNL     1       1.235   9.100  20.106  0.00  0.00    +0.000 C 
ATOM      4  O   UNL     1       1.203   8.494  21.188  0.00  0.00    +0.000 OA
ATOM      5  N   UNL     1       0.594  10.334  19.975  0.00  0.00    +0.000 N 
ATOM      6  N   UNL     1      -0.114  10.798  21.090  0.00  0.00    +0.000 NA
ATOM      7  C   UNL     1      -0.914  11.781  20.807  0.00  0.00    +0.000 C 
ATOM      8  S   UNL     1      -0.859  12.354  19.157  0.00  0.00    +0.000 S 
ATOM      9  C   UNL     1       0.519  11.212  18.808  0.00  0.00    +0.000 C 
BRANCH   7  10
ATOM     10  C   UNL     1      -1.794  12.483  21.847  0.00  0.00    +0.000 C 
ATOM     11  C   UNL     1      -1.114  13.804  22.240  0.00  0.00    +0.000 C 
ATOM     12  C   UNL     1      -3.218  12.772  21.340  0.00  0.00    +0.000 C 
ATOM     13  C   UNL     1      -1.918  11.596  23.101  0.00  0.00    +0.000 C 
ENDBRANCH   7  10
BRANCH   9  14
ATOM     14  C   UNL     1       1.807  12.024  18.717  0.00  0.00    +0.000 C 
ATOM     15  O   UNL     1       2.225  12.737  19.623  0.00  0.00    +0.000 OA
BRANCH  14  16
ATOM     16  O   UNL     1       2.511  11.840  17.567  0.00  0.00    +0.000 OA
ATOM     17  H   UNL     1       2.044  12.206  16.781  0.00  0.00    +0.000 HD
ENDBRANCH  14  16
ENDBRANCH   9  14
ENDBRANCH   2   3
BRANCH   2  18
ATOM     18  N   UNL     1       2.774   7.212  19.365  0.00  0.00    +0.000 NA
ATOM     19  H   UNL     1       3.731   7.287  18.992  0.00  0.00    +0.000 HD
BRANCH  18  20
ATOM     20  CA  UNL     1       2.250   5.910  18.886  0.00  0.00    +0.000 C 
BRANCH  20  21
ATOM     21  C   UNL     1       1.758   5.170  20.160  0.00  0.00    +0.000 C 
ATOM     22  O   UNL     1       0.955   4.248  20.174  0.00  0.00    +0.000 OA
BRANCH  21  23
ATOM     23  OXT UNL     1       2.391   5.574  21.282  0.00  0.00    +0.000 OA
ATOM     24  HXT UNL     1       3.222   6.094  21.113  0.00  0.00    +0.000 HD
ENDBRANCH  21  23
ENDBRANCH  20  21
BRANCH  20  25
ATOM     25  C   UNL     1       3.263   5.024  18.115  0.00  0.00    +0.000 C 
BRANCH  25  26
ATOM     26  C   UNL     1       4.150   5.847  17.161  0.00  0.00    +0.000 C 
BRANCH  26  27
ATOM     27  C   UNL     1       5.533   6.097  17.714  0.00  0.00    +0.000 A 
ATOM     28  C   UNL     1       6.001   5.366  18.815  0.00  0.00    +0.000 A 
ATOM     29  C   UNL     1       7.277   5.607  19.334  0.00  0.00    +0.000 A 
ATOM     30  C   UNL     1       8.090   6.582  18.760  0.00  0.00    +0.000 A 
ATOM     31  C   UNL     1       7.637   7.305  17.658  0.00  0.00    +0.000 A 
ATOM     32  C   UNL     1       6.364   7.065  17.137  0.00  0.00    +0.000 A 
ENDBRANCH  26  27
ENDBRANCH  25  26
ENDBRANCH  20  25
ENDBRANCH  18  20
ENDBRANCH   2  18
TORSDOF 11
ENDMDL
MODEL 2
REMARK VINA RESULT:      -6.7      4.127      8.820
REMARK  Name = 
REMARK  15 active torsions:
REMARK  status: ('A' for Active; 'I' for Inactive)
REMARK    1  A    between atoms: C_1  and  C_2
REMARK    2  A    between atoms: C_2  and  N_3
REMARK    3  A    between atoms: C_2  and  C_16
REMARK    4  A    between atoms: N_3  and  CA_4
REMARK    5  A    between atoms: CA_4  and  C_5
REMARK    6  A    between atoms: CA_4  and  C_13
REMARK    7  A    between atoms: C_5  and  C_6
REMARK    8  A    between atoms: C_6  and  C_7
REMARK    9  A    between atoms: C_13  and  OXT_15
REMARK   10  A    between atoms: C_20  and  C_21
REMARK   11  A    between atoms: C_21  and  C_22
REMARK   12  A    between atoms: C_21  and  C_23
REMARK   13  A    between atoms: C_21  and  C_24
REMARK   14  A    between atoms: C_26  and  C_27
REMARK   15  A    between atoms: C_27  and  O_29
REMARK                            x       y       z     vdW  Elec       q    Type
REMARK                         _______ _______ _______ _____ _____    ______ ____
ROOT
ATOM      1  C   UNL     1       4.842   3.275  19.216  0.00  0.00    +0.000 C 
ATOM      2  C   UNL     1       3.936   4.235  18.441  0.00  0.00    +0.000 C 
ENDROOT
BRANCH   2   3
ATOM      3  C   UNL     1       3.915   3.853  16.920  0.00  0.00    +0.000 C 
ATOM      4  O   UNL     1       2.938   3.198  16.527  0.00  0.00    +0.000 OA
ATOM      5  N   UNL     1       4.908   4.240  16.015  0.00  0.00    +0.000 N 
ATOM      6  N   UNL     1       4.761   3.804  14.693  0.00  0.00    +0.000 NA
ATOM      7  C   UNL     1       5.845   3.944  13.993  0.00  0.00    +0.000 C 
ATOM      8  S   UNL     1       7.184   4.713  14.809  0.00  0.00    +0.000 S 
ATOM      9  C   UNL     1       6.122   5.017  16.261  0.00  0.00    +0.000 C 
BRANCH   7  10
ATOM     10  C   UNL     1       5.952   3.558  12.513  0.00  0.00    +0.000 C 
ATOM     11  C   UNL     1       7.003   4.465  11.855  0.00  0.00    +0.000 C 
ATOM     12  C   UNL     1       6.341   2.084  12.297  0.00  0.00    +0.000 C 
ATOM     13  C   UNL     1       4.595   3.787  11.820  0.00  0.00    +0.000 C 
ENDBRANCH   7  10
BRANCH   9  14
ATOM     14  C   UNL     1       5.763   6.499  16.294  0.00  0.00    +0.000 C 
ATOM     15  O   UNL     1       5.004   7.031  15.490  0.00  0.00    +0.000 OA
BRANCH  14  16
ATOM     16  O   UNL     1       6.294   7.186  17.341  0.00  0.00    +0.000 OA
ATOM     17  H   UNL     1       5.602   7.621  17.891  0.00  0.00    +0.000 HD
ENDBRANCH  14  16
ENDBRANCH   9  14
ENDBRANCH   2   3
BRANCH   2  18
ATOM     18  N   UNL     1       2.598   4.423  19.022  0.00  0.00    +0.000 NA
ATOM     19  H   UNL     1       2.133   5.162  18.477  0.00  0.00    +0.000 HD
BRANCH  18  20
ATOM     20  CA  UNL     1       2.526   4.856  20.439  0.00  0.00    +0.000 C 
BRANCH  20  21
ATOM     21  C   UNL     1       1.811   3.697  21.187  0.00  0.00    +0.000 C 
ATOM     22  O   UNL     1       2.205   3.176  22.221  0.00  0.00    +0.000 OA
BRANCH  21  23
ATOM     23  OXT UNL     1       0.622   3.369  20.638  0.00  0.00    +0.000 OA
ATOM     24  HXT UNL     1      -0.066   3.089  21.299  0.00  0.00    +0.000 HD
ENDBRANCH  21  23
ENDBRANCH  20  21
BRANCH  20  25
ATOM     25  C   UNL     1       1.780   6.191  20.693  0.00  0.00    +0.000 C 
BRANCH  25  26
ATOM     26  C   UNL     1       2.231   7.305  19.729  0.00  0.00    +0.000 C 
BRANCH  26  27
ATOM     27  C   UNL     1       1.383   8.550  19.834  0.00  0.00    +0.000 A 
ATOM     28  C   UNL     1       0.689   8.841  21.017  0.00  0.00    +0.000 A 
ATOM     29  C   UNL     1      -0.105   9.988  21.108  0.00  0.00    +0.000 A 
ATOM     30  C   UNL     1      -0.214  10.849  20.018  0.00  0.00    +0.000 A 
ATOM     31  C   UNL     1       0.481  10.574  18.842  0.00  0.00    +0.000 A 
ATOM     32  C   UNL     1       1.276   9.429  18.749  0.00  0.00    +0.000 A 
ENDBRANCH  26  27
ENDBRANCH  25  26
ENDBRANCH  20  25
ENDBRANCH  18  20
ENDBRANCH   2  18
TORSDOF 11
ENDMDL
MODEL 3
REMARK VINA RESULT:      -6.5      3.320      5.234
REMARK  Name = 
REMARK  15 active torsions:
REMARK  status: ('A' for Active; 'I' for Inactive)
REMARK    1  A    between atoms: C_1  and  C_2
REMARK    2  A    between atoms: C_2  and  N_3
REMARK    3  A    between atoms: C_2  and  C_16
REMARK    4  A    between atoms: N_3  and  CA_4
REMARK    5  A    between atoms: CA_4  and  C_5
REMARK    6  A    between atoms: CA_4  and  C_13
REMARK    7  A    between atoms: C_5  and  C_6
REMARK    8  A    between atoms: C_6  and  C_7
REMARK    9  A    between atoms: C_13  and  OXT_15
REMARK   10  A    between atoms: C_20  and  C_21
REMARK   11  A    between atoms: C_21  and  C_22
REMARK   12  A    between atoms: C_21  and  C_23
REMARK   13  A    between atoms: C_21  and  C_24
REMARK   14  A    between atoms: C_26  and  C_27
REMARK   15  A    between atoms: C_27  and  O_29
REMARK                            x       y       z     vdW  Elec       q    Type
REMARK                         _______ _______ _______ _____ _____    ______ ____
ROOT
ATOM      1  C   UNL     1      -0.534   9.709  20.372  0.00  0.00    +0.000 C 
ATOM      2  C   UNL     1      -0.997  10.266  19.024  0.00  0.00    +0.000 C 
ENDROOT
BRANCH   2   3
ATOM      3  C   UNL     1      -1.997  11.455  19.243  0.00  0.00    +0.000 C 
ATOM      4  O   UNL     1      -1.573  12.422  19.894  0.00  0.00    +0.000 OA
ATOM      5  N   UNL     1      -3.292  11.478  18.718  0.00  0.00    +0.000 N 
ATOM      6  N   UNL     1      -4.074  12.600  19.017  0.00  0.00    +0.000 NA
ATOM      7  C   UNL     1      -5.333  12.421  18.756  0.00  0.00    +0.000 C 
ATOM      8  S   UNL     1      -5.748  10.892  18.021  0.00  0.00    +0.000 S 
ATOM      9  C   UNL     1      -3.979  10.462  17.920  0.00  0.00    +0.000 C 
BRANCH   7  10
ATOM     10  C   UNL     1      -6.404  13.496  18.977  0.00  0.00    +0.000 C 
ATOM     11  C   UNL     1      -6.784  14.084  17.609  0.00  0.00    +0.000 C 
ATOM     12  C   UNL     1      -7.667  12.960  19.673  0.00  0.00    +0.000 C 
ATOM     13  C   UNL     1      -5.830  14.623  19.859  0.00  0.00    +0.000 C 
ENDBRANCH   7  10
BRANCH   9  14
ATOM     14  C   UNL     1      -3.533  10.592  16.467  0.00  0.00    +0.000 C 
ATOM     15  O   UNL     1      -3.133   9.648  15.793  0.00  0.00    +0.000 OA
BRANCH  14  16
ATOM     16  O   UNL     1      -3.685  11.836  15.938  0.00  0.00    +0.000 OA
ATOM     17  H   UNL     1      -3.213  11.937  15.079  0.00  0.00    +0.000 HD
ENDBRANCH  14  16
ENDBRANCH   9  14
ENDBRANCH   2   3
BRANCH   2  18
ATOM     18  N   UNL     1       0.087  10.570  18.078  0.00  0.00    +0.000 NA
ATOM     19  H   UNL     1      -0.007   9.915  17.290  0.00  0.00    +0.000 HD
BRANCH  18  20
ATOM     20  CA  UNL     1       1.479  10.424  18.567  0.00  0.00    +0.000 C 
BRANCH  20  21
ATOM     21  C   UNL     1       2.151  11.802  18.316  0.00  0.00    +0.000 C 
ATOM     22  O   UNL     1       2.288  12.683  19.153  0.00  0.00    +0.000 OA
BRANCH  21  23
ATOM     23  OXT UNL     1       2.683  11.911  17.081  0.00  0.00    +0.000 OA
ATOM     24  HXT UNL     1       2.315  12.664  16.546  0.00  0.00    +0.000 HD
ENDBRANCH  21  23
ENDBRANCH  20  21
BRANCH  20  25
ATOM     25  C   UNL     1       2.308   9.299  17.897  0.00  0.00    +0.000 C 
BRANCH  25  26
ATOM     26  C   UNL     1       2.094   7.932  18.574  0.00  0.00    +0.000 C 
BRANCH  26  27
ATOM     27  C   UNL     1       2.956   6.842  17.982  0.00  0.00    +0.000 A 
ATOM     28  C   UNL     1       4.130   7.163  17.286  0.00  0.00    +0.000 A 
ATOM     29  C   UNL     1       4.920   6.154  16.728  0.00  0.00    +0.000 A 
ATOM     30  C   UNL     1       4.541   4.819  16.857  0.00  0.00    +0.000 A 
ATOM     31  C   UNL     1       3.382   4.490  17.558  0.00  0.00    +0.000 A 
ATOM     32  C   UNL     1       2.592   5.497  18.117  0.00  0.00    +0.000 A 
ENDBRANCH  26  27
ENDBRANCH  25  26
ENDBRANCH  20  25
ENDBRANCH  18  20
ENDBRANCH   2  18
TORSDOF 11
ENDMDL
MODEL 4
REMARK VINA RESULT:      -6.5      4.260      8.822
REMARK  Name = 
REMARK  15 active torsions:
REMARK  status: ('A' for Active; 'I' for Inactive)
REMARK    1  A    between atoms: C_1  and  C_2
REMARK    2  A    between atoms: C_2  and  N_3
REMARK    3  A    between atoms: C_2  and  C_16
REMARK    4  A    between atoms: N_3  and  CA_4
REMARK    5  A    between atoms: CA_4  and  C_5
REMARK    6  A    between atoms: CA_4  and  C_13
REMARK    7  A    between atoms: C_5  and  C_6
REMARK    8  A    between atoms: C_6  and  C_7
REMARK    9  A    between atoms: C_13  and  OXT_15
REMARK   10  A    between atoms: C_20  and  C_21
REMARK   11  A    between atoms: C_21  and  C_22
REMARK   12  A    between atoms: C_21  and  C_23
REMARK   13  A    between atoms: C_21  and  C_24
REMARK   14  A    between atoms: C_26  and  C_27
REMARK   15  A    between atoms: C_27  and  O_29
REMARK                            x       y       z     vdW  Elec       q    Type
REMARK                         _______ _______ _______ _____ _____    ______ ____
ROOT
ATOM      1  C   UNL     1       4.406   2.693  19.222  0.00  0.00    +0.000 C 
ATOM      2  C   UNL     1       4.359   3.978  18.392  0.00  0.00    +0.000 C 
ENDROOT
BRANCH   2   3
ATOM      3  C   UNL     1       4.285   3.634  16.863  0.00  0.00    +0.000 C 
ATOM      4  O   UNL     1       3.334   2.925  16.501  0.00  0.00    +0.000 OA
ATOM      5  N   UNL     1       5.202   4.110  15.922  0.00  0.00    +0.000 N 
ATOM      6  N   UNL     1       5.016   3.698  14.597  0.00  0.00    +0.000 NA
ATOM      7  C   UNL     1       6.051   3.928  13.848  0.00  0.00    +0.000 C 
ATOM      8  S   UNL     1       7.377   4.765  14.618  0.00  0.00    +0.000 S 
ATOM      9  C   UNL     1       6.374   4.960  16.129  0.00  0.00    +0.000 C 
BRANCH   7  10
ATOM     10  C   UNL     1       6.107   3.588  12.354  0.00  0.00    +0.000 C 
ATOM     11  C   UNL     1       7.104   4.544  11.680  0.00  0.00    +0.000 C 
ATOM     12  C   UNL     1       6.529   2.133  12.079  0.00  0.00    +0.000 C 
ATOM     13  C   UNL     1       4.716   3.796  11.724  0.00  0.00    +0.000 C 
ENDBRANCH   7  10
BRANCH   9  14
ATOM     14  C   UNL     1       5.920   6.413  16.222  0.00  0.00    +0.000 C 
ATOM     15  O   UNL     1       6.352   7.208  17.050  0.00  0.00    +0.000 OA
BRANCH  14  16
ATOM     16  O   UNL     1       5.040   6.793  15.255  0.00  0.00    +0.000 OA
ATOM     17  H   UNL     1       4.109   6.792  15.577  0.00  0.00    +0.000 HD
ENDBRANCH  14  16
ENDBRANCH   9  14
ENDBRANCH   2   3
BRANCH   2  18
ATOM     18  N   UNL     1       3.350   4.956  18.827  0.00  0.00    +0.000 NA
ATOM     19  H   UNL     1       3.844   5.678  19.371  0.00  0.00    +0.000 HD
BRANCH  18  20
ATOM     20  CA  UNL     1       2.258   4.464  19.701  0.00  0.00    +0.000 C 
BRANCH  20  21
ATOM     21  C   UNL     1       1.288   3.701  18.758  0.00  0.00    +0.000 C 
ATOM     22  O   UNL     1       0.702   2.664  19.037  0.00  0.00    +0.000 OA
BRANCH  21  23
ATOM     23  OXT UNL     1       1.055   4.355  17.601  0.00  0.00    +0.000 OA
ATOM     24  HXT UNL     1       0.331   5.035  17.657  0.00  0.00    +0.000 HD
ENDBRANCH  21  23
ENDBRANCH  20  21
BRANCH  20  25
ATOM     25  C   UNL     1       1.486   5.557  20.486  0.00  0.00    +0.000 C 
BRANCH  25  26
ATOM     26  C   UNL     1       2.308   6.850  20.647  0.00  0.00    +0.000 C 
BRANCH  26  27
ATOM     27  C   UNL     1       1.696   8.028  19.927  0.00  0.00    +0.000 A 
ATOM     28  C   UNL     1       0.830   8.901  20.600  0.00  0.00    +0.000 A 
ATOM     29  C   UNL     1       0.254   9.984  19.928  0.00  0.00    +0.000 A 
ATOM     30  C   UNL     1       0.536  10.198  18.581  0.00  0.00    +0.000 A 
ATOM     31  C   UNL     1       1.405   9.342  17.907  0.00  0.00    +0.000 A 
ATOM     32  C   UNL     1       1.982   8.261  18.576  0.00  0.00    +0.000 A 
ENDBRANCH  26  27
ENDBRANCH  25  26
ENDBRANCH  20  25
ENDBRANCH  18  20
ENDBRANCH   2  18
TORSDOF 11
ENDMDL
MODEL 5
REMARK VINA RESULT:      -6.5      1.996      2.803
REMARK  Name = 
REMARK  15 active torsions:
REMARK  status: ('A' for Active; 'I' for Inactive)
REMARK    1  A    between atoms: C_1  and  C_2
REMARK    2  A    between atoms: C_2  and  N_3
REMARK    3  A    between atoms: C_2  and  C_16
REMARK    4  A    between atoms: N_3  and  CA_4
REMARK    5  A    between atoms: CA_4  and  C_5
REMARK    6  A    between atoms: CA_4  and  C_13
REMARK    7  A    between atoms: C_5  and  C_6
REMARK    8  A    between atoms: C_6  and  C_7
REMARK    9  A    between atoms: C_13  and  OXT_15
REMARK   10  A    between atoms: C_20  and  C_21
REMARK   11  A    between atoms: C_21  and  C_22
REMARK   12  A    between atoms: C_21  and  C_23
REMARK   13  A    between atoms: C_21  and  C_24
REMARK   14  A    between atoms: C_26  and  C_27
REMARK   15  A    between atoms: C_27  and  O_29
REMARK                            x       y       z     vdW  Elec       q    Type
REMARK                         _______ _______ _______ _____ _____    ______ ____
ROOT
ATOM      1  C   UNL     1      -0.563   7.937  21.585  0.00  0.00    +0.000 C 
ATOM      2  C   UNL     1       0.739   8.339  20.887  0.00  0.00    +0.000 C 
ENDROOT
BRANCH   2   3
ATOM      3  C   UNL     1       1.160   9.789  21.317  0.00  0.00    +0.000 C 
ATOM      4  O   UNL     1       1.618   9.915  22.463  0.00  0.00    +0.000 OA
ATOM      5  N   UNL     1       1.072  10.898  20.472  0.00  0.00    +0.000 N 
ATOM      6  N   UNL     1       1.466  12.130  21.006  0.00  0.00    +0.000 NA
ATOM      7  C   UNL     1       1.085  13.139  20.283  0.00  0.00    +0.000 C 
ATOM      8  S   UNL     1       0.266  12.739  18.792  0.00  0.00    +0.000 S 
ATOM      9  C   UNL     1       0.581  10.969  19.096  0.00  0.00    +0.000 C 
BRANCH   7  10
ATOM     10  C   UNL     1       1.397  14.598  20.634  0.00  0.00    +0.000 C 
ATOM     11  C   UNL     1       0.739  15.498  19.577  0.00  0.00    +0.000 C 
ATOM     12  C   UNL     1       0.901  15.005  22.033  0.00  0.00    +0.000 C 
ATOM     13  C   UNL     1       2.921  14.823  20.598  0.00  0.00    +0.000 C 
ENDBRANCH   7  10
BRANCH   9  14
ATOM     14  C   UNL     1       1.688  10.507  18.153  0.00  0.00    +0.000 C 
ATOM     15  O   UNL     1       1.828   9.344  17.789  0.00  0.00    +0.000 OA
BRANCH  14  16
ATOM     16  O   UNL     1       2.477  11.508  17.674  0.00  0.00    +0.000 OA
ATOM     17  H   UNL     1       3.348  11.547  18.133  0.00  0.00    +0.000 HD
ENDBRANCH  14  16
ENDBRANCH   9  14
ENDBRANCH   2   3
BRANCH   2  18
ATOM     18  N   UNL     1       1.824   7.353  20.992  0.00  0.00    +0.000 NA
ATOM     19  H   UNL     1       2.711   7.873  20.939  0.00  0.00    +0.000 HD
BRANCH  18  20
ATOM     20  CA  UNL     1       1.900   6.309  19.941  0.00  0.00    +0.000 C 
BRANCH  20  21
ATOM     21  C   UNL     1       1.726   4.958  20.689  0.00  0.00    +0.000 C 
ATOM     22  O   UNL     1       2.487   4.520  21.540  0.00  0.00    +0.000 OA
BRANCH  21  23
ATOM     23  OXT UNL     1       0.569   4.334  20.385  0.00  0.00    +0.000 OA
ATOM     24  HXT UNL     1       0.202   4.572  19.492  0.00  0.00    +0.000 HD
ENDBRANCH  21  23
ENDBRANCH  20  21
BRANCH  20  25
ATOM     25  C   UNL     1       3.209   6.291  19.110  0.00  0.00    +0.000 C 
BRANCH  25  26
ATOM     26  C   UNL     1       3.146   5.286  17.944  0.00  0.00    +0.000 C 
BRANCH  26  27
ATOM     27  C   UNL     1       4.466   5.141  17.224  0.00  0.00    +0.000 A 
ATOM     28  C   UNL     1       5.472   6.105  17.380  0.00  0.00    +0.000 A 
ATOM     29  C   UNL     1       6.688   5.975  16.704  0.00  0.00    +0.000 A 
ATOM     30  C   UNL     1       6.906   4.885  15.863  0.00  0.00    +0.000 A 
ATOM     31  C   UNL     1       5.916   3.916  15.711  0.00  0.00    +0.000 A 
ATOM     32  C   UNL     1       4.701   4.043  16.387  0.00  0.00    +0.000 A 
ENDBRANCH  26  27
ENDBRANCH  25  26
ENDBRANCH  20  25
ENDBRANCH  18  20
ENDBRANCH   2  18
TORSDOF 11
ENDMDL
MODEL 6
REMARK VINA RESULT:      -6.4      4.264      8.799
REMARK  Name = 
REMARK  15 active torsions:
REMARK  status: ('A' for Active; 'I' for Inactive)
REMARK    1  A    between atoms: C_1  and  C_2
REMARK    2  A    between atoms: C_2  and  N_3
REMARK    3  A    between atoms: C_2  and  C_16
REMARK    4  A    between atoms: N_3  and  CA_4
REMARK    5  A    between atoms: CA_4  and  C_5
REMARK    6  A    between atoms: CA_4  and  C_13
REMARK    7  A    between atoms: C_5  and  C_6
REMARK    8  A    between atoms: C_6  and  C_7
REMARK    9  A    between atoms: C_13  and  OXT_15
REMARK   10  A    between atoms: C_20  and  C_21
REMARK   11  A    between atoms: C_21  and  C_22
REMARK   12  A    between atoms: C_21  and  C_23
REMARK   13  A    between atoms: C_21  and  C_24
REMARK   14  A    between atoms: C_26  and  C_27
REMARK   15  A    between atoms: C_27  and  O_29
REMARK                            x       y       z     vdW  Elec       q    Type
REMARK                         _______ _______ _______ _____ _____    ______ ____
ROOT
ATOM      1  C   UNL     1       5.764   4.085  18.944  0.00  0.00    +0.000 C 
ATOM      2  C   UNL     1       4.317   4.183  18.455  0.00  0.00    +0.000 C 
ENDROOT
BRANCH   2   3
ATOM      3  C   UNL     1       4.226   3.769  16.944  0.00  0.00    +0.000 C 
ATOM      4  O   UNL     1       3.276   3.037  16.627  0.00  0.00    +0.000 OA
ATOM      5  N   UNL     1       5.126   4.209  15.970  0.00  0.00    +0.000 N 
ATOM      6  N   UNL     1       4.927   3.737  14.667  0.00  0.00    +0.000 NA
ATOM      7  C   UNL     1       5.950   3.940  13.895  0.00  0.00    +0.000 C 
ATOM      8  S   UNL     1       7.279   4.821  14.609  0.00  0.00    +0.000 S 
ATOM      9  C   UNL     1       6.294   5.077  16.122  0.00  0.00    +0.000 C 
BRANCH   7  10
ATOM     10  C   UNL     1       5.989   3.533  12.417  0.00  0.00    +0.000 C 
ATOM     11  C   UNL     1       7.000   4.438  11.696  0.00  0.00    +0.000 C 
ATOM     12  C   UNL     1       6.378   2.059  12.204  0.00  0.00    +0.000 C 
ATOM     13  C   UNL     1       4.598   3.742  11.787  0.00  0.00    +0.000 C 
ENDBRANCH   7  10
BRANCH   9  14
ATOM     14  C   UNL     1       5.829   6.529  16.156  0.00  0.00    +0.000 C 
ATOM     15  O   UNL     1       5.047   7.010  15.342  0.00  0.00    +0.000 OA
BRANCH  14  16
ATOM     16  O   UNL     1       6.292   7.247  17.215  0.00  0.00    +0.000 OA
ATOM     17  H   UNL     1       6.661   6.670  17.923  0.00  0.00    +0.000 HD
ENDBRANCH  14  16
ENDBRANCH   9  14
ENDBRANCH   2   3
BRANCH   2  18
ATOM     18  N   UNL     1       3.330   3.511  19.313  0.00  0.00    +0.000 NA
ATOM     19  H   UNL     1       2.531   3.261  18.715  0.00  0.00    +0.000 HD
BRANCH  18  20
ATOM     20  CA  UNL     1       2.767   4.290  20.442  0.00  0.00    +0.000 C 
BRANCH  20  21
ATOM     21  C   UNL     1       1.989   3.259  21.306  0.00  0.00    +0.000 C 
ATOM     22  O   UNL     1       2.429   2.694  22.297  0.00  0.00    +0.000 OA
BRANCH  21  23
ATOM     23  OXT UNL     1       0.705   3.109  20.918  0.00  0.00    +0.000 OA
ATOM     24  HXT UNL     1       0.434   3.709  20.173  0.00  0.00    +0.000 HD
ENDBRANCH  21  23
ENDBRANCH  20  21
BRANCH  20  25
ATOM     25  C   UNL     1       1.833   5.462  20.045  0.00  0.00    +0.000 C 
BRANCH  25  26
ATOM     26  C   UNL     1       2.611   6.661  19.472  0.00  0.00    +0.000 C 
BRANCH  26  27
ATOM     27  C   UNL     1       1.863   7.966  19.608  0.00  0.00    +0.000 A 
ATOM     28  C   UNL     1       1.781   8.856  18.527  0.00  0.00    +0.000 A 
ATOM     29  C   UNL     1       1.098  10.068  18.658  0.00  0.00    +0.000 A 
ATOM     30  C   UNL     1       0.496  10.402  19.870  0.00  0.00    +0.000 A 
ATOM     31  C   UNL     1       0.562   9.518  20.946  0.00  0.00    +0.000 A 
ATOM     32  C   UNL     1       1.243   8.306  20.816  0.00  0.00    +0.000 A 
ENDBRANCH  26  27
ENDBRANCH  25  26
ENDBRANCH  20  25
ENDBRANCH  18  20
ENDBRANCH   2  18
TORSDOF 11
ENDMDL
MODEL 7
REMARK VINA RESULT:      -6.4      2.673      4.385
REMARK  Name = 
REMARK  15 active torsions:
REMARK  status: ('A' for Active; 'I' for Inactive)
REMARK    1  A    between atoms: C_1  and  C_2
REMARK    2  A    between atoms: C_2  and  N_3
REMARK    3  A    between atoms: C_2  and  C_16
REMARK    4  A    between atoms: N_3  and  CA_4
REMARK    5  A    between atoms: CA_4  and  C_5
REMARK    6  A    between atoms: CA_4  and  C_13
REMARK    7  A    between atoms: C_5  and  C_6
REMARK    8  A    between atoms: C_6  and  C_7
REMARK    9  A    between atoms: C_13  and  OXT_15
REMARK   10  A    between atoms: C_20  and  C_21
REMARK   11  A    between atoms: C_21  and  C_22
REMARK   12  A    between atoms: C_21  and  C_23
REMARK   13  A    between atoms: C_21  and  C_24
REMARK   14  A    between atoms: C_26  and  C_27
REMARK   15  A    between atoms: C_27  and  O_29
REMARK                            x       y       z     vdW  Elec       q    Type
REMARK                         _______ _______ _______ _____ _____    ______ ____
ROOT
ATOM      1  C   UNL     1       0.572   9.322  17.803  0.00  0.00    +0.000 C 
ATOM      2  C   UNL     1       1.018  10.017  19.092  0.00  0.00    +0.000 C 
ENDROOT
BRANCH   2   3
ATOM      3  C   UNL     1       1.369  11.519  18.805  0.00  0.00    +0.000 C 
ATOM      4  O   UNL     1       2.478  11.740  18.297  0.00  0.00    +0.000 OA
ATOM      5  N   UNL     1       0.492  12.576  19.061  0.00  0.00    +0.000 N 
ATOM      6  N   UNL     1       0.956  13.865  18.771  0.00  0.00    +0.000 NA
ATOM      7  C   UNL     1       0.223  14.796  19.300  0.00  0.00    +0.000 C 
ATOM      8  S   UNL     1      -1.199  14.250  20.156  0.00  0.00    +0.000 S 
ATOM      9  C   UNL     1      -0.852  12.537  19.636  0.00  0.00    +0.000 C 
BRANCH   7  10
ATOM     10  C   UNL     1       0.502  16.294  19.126  0.00  0.00    +0.000 C 
ATOM     11  C   UNL     1      -0.532  16.863  18.141  0.00  0.00    +0.000 C 
ATOM     12  C   UNL     1       0.436  17.080  20.448  0.00  0.00    +0.000 C 
ATOM     13  C   UNL     1       1.911  16.492  18.537  0.00  0.00    +0.000 C 
ENDBRANCH   7  10
BRANCH   9  14
ATOM     14  C   UNL     1      -1.846  12.155  18.543  0.00  0.00    +0.000 C 
ATOM     15  O   UNL     1      -2.942  11.652  18.768  0.00  0.00    +0.000 OA
BRANCH  14  16
ATOM     16  O   UNL     1      -1.455  12.486  17.282  0.00  0.00    +0.000 OA
ATOM     17  H   UNL     1      -1.048  13.383  17.242  0.00  0.00    +0.000 HD
ENDBRANCH  14  16
ENDBRANCH   9  14
ENDBRANCH   2   3
BRANCH   2  18
ATOM     18  N   UNL     1       0.115   9.828  20.237  0.00  0.00    +0.000 NA
ATOM     19  H   UNL     1       0.199  10.666  20.829  0.00  0.00    +0.000 HD
BRANCH  18  20
ATOM     20  CA  UNL     1       0.375   8.671  21.127  0.00  0.00    +0.000 C 
BRANCH  20  21
ATOM     21  C   UNL     1       0.382   9.253  22.567  0.00  0.00    +0.000 C 
ATOM     22  O   UNL     1       1.372   9.656  23.161  0.00  0.00    +0.000 OA
BRANCH  21  23
ATOM     23  OXT UNL     1      -0.856   9.378  23.091  0.00  0.00    +0.000 OA
ATOM     24  HXT UNL     1      -0.886   9.305  24.082  0.00  0.00    +0.000 HD
ENDBRANCH  21  23
ENDBRANCH  20  21
BRANCH  20  25
ATOM     25  C   UNL     1       1.695   7.904  20.858  0.00  0.00    +0.000 C 
BRANCH  25  26
ATOM     26  C   UNL     1       1.473   6.385  20.731  0.00  0.00    +0.000 C 
BRANCH  26  27
ATOM     27  C   UNL     1       2.175   5.787  19.536  0.00  0.00    +0.000 A 
ATOM     28  C   UNL     1       1.882   4.481  19.118  0.00  0.00    +0.000 A 
ATOM     29  C   UNL     1       2.542   3.924  18.019  0.00  0.00    +0.000 A 
ATOM     30  C   UNL     1       3.501   4.666  17.332  0.00  0.00    +0.000 A 
ATOM     31  C   UNL     1       3.791   5.969  17.733  0.00  0.00    +0.000 A 
ATOM     32  C   UNL     1       3.132   6.527  18.830  0.00  0.00    +0.000 A 
ENDBRANCH  26  27
ENDBRANCH  25  26
ENDBRANCH  20  25
ENDBRANCH  18  20
ENDBRANCH   2  18
TORSDOF 11
ENDMDL
MODEL 8
REMARK VINA RESULT:      -6.3      1.952      2.626
REMARK  Name = 
REMARK  15 active torsions:
REMARK  status: ('A' for Active; 'I' for Inactive)
REMARK    1  A    between atoms: C_1  and  C_2
REMARK    2  A    between atoms: C_2  and  N_3
REMARK    3  A    between atoms: C_2  and  C_16
REMARK    4  A    between atoms: N_3  and  CA_4
REMARK    5  A    between atoms: CA_4  and  C_5
REMARK    6  A    between atoms: CA_4  and  C_13
REMARK    7  A    between atoms: C_5  and  C_6
REMARK    8  A    between atoms: C_6  and  C_7
REMARK    9  A    between atoms: C_13  and  OXT_15
REMARK   10  A    between atoms: C_20  and  C_21
REMARK   11  A    between atoms: C_21  and  C_22
REMARK   12  A    between atoms: C_21  and  C_23
REMARK   13  A    between atoms: C_21  and  C_24
REMARK   14  A    between atoms: C_26  and  C_27
REMARK   15  A    between atoms: C_27  and  O_29
REMARK                            x       y       z     vdW  Elec       q    Type
REMARK                         _______ _______ _______ _____ _____    ______ ____
ROOT
ATOM      1  C   UNL     1      -0.482   7.851  21.274  0.00  0.00    +0.000 C 
ATOM      2  C   UNL     1       0.894   8.278  20.757  0.00  0.00    +0.000 C 
ENDROOT
BRANCH   2   3
ATOM      3  C   UNL     1       1.251   9.711  21.287  0.00  0.00    +0.000 C 
ATOM      4  O   UNL     1       1.720   9.777  22.433  0.00  0.00    +0.000 OA
ATOM      5  N   UNL     1       1.097  10.873  20.526  0.00  0.00    +0.000 N 
ATOM      6  N   UNL     1       1.440  12.082  21.144  0.00  0.00    +0.000 NA
ATOM      7  C   UNL     1       0.999  13.120  20.501  0.00  0.00    +0.000 C 
ATOM      8  S   UNL     1       0.178  12.789  18.995  0.00  0.00    +0.000 S 
ATOM      9  C   UNL     1       0.582  11.019  19.165  0.00  0.00    +0.000 C 
BRANCH   7  10
ATOM     10  C   UNL     1       1.246  14.563  20.954  0.00  0.00    +0.000 C 
ATOM     11  C   UNL     1       2.718  14.689  21.377  0.00  0.00    +0.000 C 
ATOM     12  C   UNL     1       0.938  15.603  19.861  0.00  0.00    +0.000 C 
ATOM     13  C   UNL     1       0.351  14.885  22.166  0.00  0.00    +0.000 C 
ENDBRANCH   7  10
BRANCH   9  14
ATOM     14  C   UNL     1       1.695  10.682  18.177  0.00  0.00    +0.000 C 
ATOM     15  O   UNL     1       1.794   9.598  17.610  0.00  0.00    +0.000 OA
BRANCH  14  16
ATOM     16  O   UNL     1       2.543  11.712  17.907  0.00  0.00    +0.000 OA
ATOM     17  H   UNL     1       3.385  11.404  17.498  0.00  0.00    +0.000 HD
ENDBRANCH  14  16
ENDBRANCH   9  14
ENDBRANCH   2   3
BRANCH   2  18
ATOM     18  N   UNL     1       1.963   7.289  20.961  0.00  0.00    +0.000 NA
ATOM     19  H   UNL     1       2.857   7.799  20.931  0.00  0.00    +0.000 HD
BRANCH  18  20
ATOM     20  CA  UNL     1       2.082   6.199  19.962  0.00  0.00    +0.000 C 
BRANCH  20  21
ATOM     21  C   UNL     1       1.757   4.893  20.738  0.00  0.00    +0.000 C 
ATOM     22  O   UNL     1       2.433   4.421  21.641  0.00  0.00    +0.000 OA
BRANCH  21  23
ATOM     23  OXT UNL     1       0.568   4.356  20.389  0.00  0.00    +0.000 OA
ATOM     24  HXT UNL     1      -0.211   4.754  20.861  0.00  0.00    +0.000 HD
ENDBRANCH  21  23
ENDBRANCH  20  21
BRANCH  20  25
ATOM     25  C   UNL     1       3.464   6.076  19.270  0.00  0.00    +0.000 C 
BRANCH  25  26
ATOM     26  C   UNL     1       3.398   5.232  17.982  0.00  0.00    +0.000 C 
BRANCH  26  27
ATOM     27  C   UNL     1       4.761   4.942  17.401  0.00  0.00    +0.000 A 
ATOM     28  C   UNL     1       4.895   4.560  16.058  0.00  0.00    +0.000 A 
ATOM     29  C   UNL     1       6.157   4.280  15.525  0.00  0.00    +0.000 A 
ATOM     30  C   UNL     1       7.291   4.376  16.328  0.00  0.00    +0.000 A 
ATOM     31  C   UNL     1       7.168   4.767  17.661  0.00  0.00    +0.000 A 
ATOM     32  C   UNL     1       5.909   5.048  18.195  0.00  0.00    +0.000 A 
ENDBRANCH  26  27
ENDBRANCH  25  26
ENDBRANCH  20  25
ENDBRANCH  18  20
ENDBRANCH   2  18
TORSDOF 11
ENDMDL
MODEL 9
REMARK VINA RESULT:      -6.3      3.188      5.360
REMARK  Name = 
REMARK  15 active torsions:
REMARK  status: ('A' for Active; 'I' for Inactive)
REMARK    1  A    between atoms: C_1  and  C_2
REMARK    2  A    between atoms: C_2  and  N_3
REMARK    3  A    between atoms: C_2  and  C_16
REMARK    4  A    between atoms: N_3  and  CA_4
REMARK    5  A    between atoms: CA_4  and  C_5
REMARK    6  A    between atoms: CA_4  and  C_13
REMARK    7  A    between atoms: C_5  and  C_6
REMARK    8  A    between atoms: C_6  and  C_7
REMARK    9  A    between atoms: C_13  and  OXT_15
REMARK   10  A    between atoms: C_20  and  C_21
REMARK   11  A    between atoms: C_21  and  C_22
REMARK   12  A    between atoms: C_21  and  C_23
REMARK   13  A    between atoms: C_21  and  C_24
REMARK   14  A    between atoms: C_26  and  C_27
REMARK   15  A    between atoms: C_27  and  O_29
REMARK                            x       y       z     vdW  Elec       q    Type
REMARK                         _______ _______ _______ _____ _____    ______ ____
ROOT
ATOM      1  C   UNL     1       6.814   5.453  19.199  0.00  0.00    +0.000 C 
ATOM      2  C   UNL     1       5.318   5.177  19.369  0.00  0.00    +0.000 C 
ENDROOT
BRANCH   2   3
ATOM      3  C   UNL     1       4.477   6.326  18.710  0.00  0.00    +0.000 C 
ATOM      4  O   UNL     1       4.925   6.808  17.659  0.00  0.00    +0.000 OA
ATOM      5  N   UNL     1       3.264   6.786  19.230  0.00  0.00    +0.000 N 
ATOM      6  N   UNL     1       2.639   7.832  18.541  0.00  0.00    +0.000 NA
ATOM      7  C   UNL     1       1.694   8.397  19.229  0.00  0.00    +0.000 C 
ATOM      8  S   UNL     1       1.357   7.681  20.787  0.00  0.00    +0.000 S 
ATOM      9  C   UNL     1       2.556   6.352  20.434  0.00  0.00    +0.000 C 
BRANCH   7  10
ATOM     10  C   UNL     1       0.842   9.558  18.704  0.00  0.00    +0.000 C 
ATOM     11  C   UNL     1       1.784  10.715  18.334  0.00  0.00    +0.000 C 
ATOM     12  C   UNL     1      -0.010   9.179  17.480  0.00  0.00    +0.000 C 
ATOM     13  C   UNL     1      -0.119  10.034  19.810  0.00  0.00    +0.000 C 
ENDBRANCH   7  10
BRANCH   9  14
ATOM     14  C   UNL     1       1.782   5.075  20.120  0.00  0.00    +0.000 C 
ATOM     15  O   UNL     1       1.462   4.250  20.969  0.00  0.00    +0.000 OA
BRANCH  14  16
ATOM     16  O   UNL     1       1.401   4.951  18.819  0.00  0.00    +0.000 OA
ATOM     17  H   UNL     1       2.054   5.353  18.200  0.00  0.00    +0.000 HD
ENDBRANCH  14  16
ENDBRANCH   9  14
ENDBRANCH   2   3
BRANCH   2  18
ATOM     18  N   UNL     1       4.892   3.828  18.969  0.00  0.00    +0.000 NA
ATOM     19  H   UNL     1       5.738   3.242  18.932  0.00  0.00    +0.000 HD
BRANCH  18  20
ATOM     20  CA  UNL     1       4.238   3.684  17.646  0.00  0.00    +0.000 C 
BRANCH  20  21
ATOM     21  C   UNL     1       3.332   2.427  17.769  0.00  0.00    +0.000 C 
ATOM     22  O   UNL     1       2.152   2.374  17.453  0.00  0.00    +0.000 OA
BRANCH  21  23
ATOM     23  OXT UNL     1       4.006   1.329  18.173  0.00  0.00    +0.000 OA
ATOM     24  HXT UNL     1       4.767   1.522  18.783  0.00  0.00    +0.000 HD
ENDBRANCH  21  23
ENDBRANCH  20  21
BRANCH  20  25
ATOM     25  C   UNL     1       5.198   3.529  16.439  0.00  0.00    +0.000 C 
BRANCH  25  26
ATOM     26  C   UNL     1       4.659   4.219  15.171  0.00  0.00    +0.000 C 
BRANCH  26  27
ATOM     27  C   UNL     1       5.664   4.245  14.044  0.00  0.00    +0.000 A 
ATOM     28  C   UNL     1       5.447   3.495  12.880  0.00  0.00    +0.000 A 
ATOM     29  C   UNL     1       6.384   3.510  11.843  0.00  0.00    +0.000 A 
ATOM     30  C   UNL     1       7.545   4.271  11.964  0.00  0.00    +0.000 A 
ATOM     31  C   UNL     1       7.763   5.029  13.112  0.00  0.00    +0.000 A 
ATOM     32  C   UNL     1       6.828   5.016  14.149  0.00  0.00    +0.000 A 
ENDBRANCH  26  27
ENDBRANCH  25  26
ENDBRANCH  20  25
ENDBRANCH  18  20
ENDBRANCH   2  18
TORSDOF 11
ENDMDL
