MODEL 1
REMARK VINA RESULT:      -7.4      0.000      0.000
REMARK  Name = 
REMARK  8 active torsions:
REMARK  status: ('A' for Active; 'I' for Inactive)
REMARK    1  A    between atoms: C_1  and  C_2
REMARK    2  A    between atoms: C_2  and  C_3
REMARK    3  A    between atoms: C_8  and  C_9
REMARK    4  A    between atoms: C_9  and  N_10
REMARK    5  A    between atoms: C_12  and  C_13
REMARK    6  A    between atoms: C_13  and  O_14
REMARK    7  A    between atoms: C_15  and  C_16
REMARK    8  A    between atoms: C_16  and  N_17
REMARK                            x       y       z     vdW  Elec       q    Type
REMARK                         _______ _______ _______ _____ _____    ______ ____
ROOT
ATOM      1  N   UNL     1       1.287   4.759  19.579  0.00  0.00    +0.000 NA
ATOM      2  C   UNL     1       1.158   3.486  20.289  0.00  0.00    +0.000 C 
ATOM      3  C   UNL     1       2.194   2.504  19.707  0.00  0.00    +0.000 C 
ATOM      4  C   UNL     1       2.406   2.994  18.263  0.00  0.00    +0.000 C 
ATOM      5  C   UNL     1       1.814   4.423  18.242  0.00  0.00    +0.000 C 
ENDROOT
BRANCH   1   6
ATOM      6  C   UNL     1       2.055   5.799  20.278  0.00  0.00    +0.000 C 
BRANCH   6  12
ATOM      7  C   UNL     1       1.457   8.322  20.184  0.00  0.00    +0.000 A 
ATOM      8  C   UNL     1       1.269   9.480  19.389  0.00  0.00    +0.000 A 
ATOM      9  C   UNL     1       1.807   9.579  18.108  0.00  0.00    +0.000 A 
ATOM     10  C   UNL     1       2.543   8.516  17.616  0.00  0.00    +0.000 A 
ATOM     11  C   UNL     1       2.662   7.326  18.346  0.00  0.00    +0.000 A 
ATOM     12  C   UNL     1       2.086   7.183  19.629  0.00  0.00    +0.000 A 
BRANCH   7  14
ATOM     13  C   UNL     1      -0.456   8.713  21.824  0.00  0.00    +0.000 C 
ATOM     14  C   UNL     1       1.013   8.421  21.626  0.00  0.00    +0.000 C 
ENDBRANCH   7  14
ENDBRANCH   6  12
ENDBRANCH   1   6
BRANCH   3  15
ATOM     15  C   UNL     1       3.426   2.347  20.593  0.00  0.00    +0.000 C 
BRANCH  15  16
ATOM     16  O   UNL     1       3.055   2.409  21.973  0.00  0.00    +0.000 OA
ATOM     17  H   UNL     1       2.094   2.274  22.046  0.00  0.00    +0.000 HD
ENDBRANCH  15  16
ENDBRANCH   3  15
BRANCH   4  18
ATOM     18  C   UNL     1       3.797   2.883  17.568  0.00  0.00    +0.000 C 
BRANCH  18  19
ATOM     19  N   UNL     1       4.518   4.156  17.266  0.00  0.00    +0.000 NA
ATOM     20  C   UNL     1       5.520   4.482  18.296  0.00  0.00    +0.000 C 
ATOM     21  C   UNL     1       6.231   5.812  18.008  0.00  0.00    +0.000 C 
ATOM     22  C   UNL     1       6.930   5.791  16.657  0.00  0.00    +0.000 C 
ATOM     23  C   UNL     1       5.939   5.379  15.576  0.00  0.00    +0.000 C 
ATOM     24  C   UNL     1       5.188   4.086  15.942  0.00  0.00    +0.000 C 
ENDBRANCH  18  19
ENDBRANCH   4  18
TORSDOF 7
ENDMDL
MODEL 2
REMARK VINA RESULT:      -7.3      1.268      1.464
REMARK  Name = 
REMARK  8 active torsions:
REMARK  status: ('A' for Active; 'I' for Inactive)
REMARK    1  A    between atoms: C_1  and  C_2
REMARK    2  A    between atoms: C_2  and  C_3
REMARK    3  A    between atoms: C_8  and  C_9
REMARK    4  A    between atoms: C_9  and  N_10
REMARK    5  A    between atoms: C_12  and  C_13
REMARK    6  A    between atoms: C_13  and  O_14
REMARK    7  A    between atoms: C_15  and  C_16
REMARK    8  A    between atoms: C_16  and  N_17
REMARK                            x       y       z     vdW  Elec       q    Type
REMARK                         _______ _______ _______ _____ _____    ______ ____
ROOT
ATOM      1  N   UNL     1       1.917   5.022  19.002  0.00  0.00    +0.000 NA
ATOM      2  C   UNL     1       1.945   3.655  19.522  0.00  0.00    +0.000 C 
ATOM      3  C   UNL     1       3.230   2.973  19.009  0.00  0.00    +0.000 C 
ATOM      4  C   UNL     1       3.543   3.704  17.691  0.00  0.00    +0.000 C 
ATOM      5  C   UNL     1       2.685   4.991  17.742  0.00  0.00    +0.000 C 
ENDROOT
BRANCH   1   6
ATOM      6  C   UNL     1       2.354   6.066  19.941  0.00  0.00    +0.000 C 
BRANCH   6  12
ATOM      7  C   UNL     1       1.317   8.416  20.307  0.00  0.00    +0.000 A 
ATOM      8  C   UNL     1       0.859   9.626  19.730  0.00  0.00    +0.000 A 
ATOM      9  C   UNL     1       1.253  10.020  18.453  0.00  0.00    +0.000 A 
ATOM     10  C   UNL     1       2.117   9.202  17.747  0.00  0.00    +0.000 A 
ATOM     11  C   UNL     1       2.508   7.958  18.259  0.00  0.00    +0.000 A 
ATOM     12  C   UNL     1       2.084   7.515  19.532  0.00  0.00    +0.000 A 
BRANCH   7  14
ATOM     13  C   UNL     1       0.204   9.321  22.415  0.00  0.00    +0.000 C 
ATOM     14  C   UNL     1       0.994   8.207  21.769  0.00  0.00    +0.000 C 
ENDBRANCH   7  14
ENDBRANCH   6  12
ENDBRANCH   1   6
BRANCH   3  15
ATOM     15  C   UNL     1       4.329   2.907  20.064  0.00  0.00    +0.000 C 
BRANCH  15  16
ATOM     16  O   UNL     1       5.069   1.689  19.934  0.00  0.00    +0.000 OA
ATOM     17  H   UNL     1       5.964   1.898  19.616  0.00  0.00    +0.000 HD
ENDBRANCH  15  16
ENDBRANCH   3  15
BRANCH   4  18
ATOM     18  C   UNL     1       5.012   3.949  17.231  0.00  0.00    +0.000 C 
BRANCH  18  19
ATOM     19  N   UNL     1       5.705   5.161  17.764  0.00  0.00    +0.000 NA
ATOM     20  C   UNL     1       7.046   4.846  18.287  0.00  0.00    +0.000 C 
ATOM     21  C   UNL     1       7.741   6.083  18.872  0.00  0.00    +0.000 C 
ATOM     22  C   UNL     1       7.885   7.187  17.835  0.00  0.00    +0.000 C 
ATOM     23  C   UNL     1       6.525   7.484  17.215  0.00  0.00    +0.000 C 
ATOM     24  C   UNL     1       5.825   6.207  16.716  0.00  0.00    +0.000 C 
ENDBRANCH  18  19
ENDBRANCH   4  18
TORSDOF 7
ENDMDL
MODEL 3
REMARK VINA RESULT:      -7.0      2.727      5.202
REMARK  Name = 
REMARK  8 active torsions:
REMARK  status: ('A' for Active; 'I' for Inactive)
REMARK    1  A    between atoms: C_1  and  C_2
REMARK    2  A    between atoms: C_2  and  C_3
REMARK    3  A    between atoms: C_8  and  C_9
REMARK    4  A    between atoms: C_9  and  N_10
REMARK    5  A    between atoms: C_12  and  C_13
REMARK    6  A    between atoms: C_13  and  O_14
REMARK    7  A    between atoms: C_15  and  C_16
REMARK    8  A    between atoms: C_16  and  N_17
REMARK                            x       y       z     vdW  Elec       q    Type
REMARK                         _______ _______ _______ _____ _____    ______ ____
ROOT
ATOM      1  N   UNL     1       6.040   4.339  18.796  0.00  0.00    +0.000 NA
ATOM      2  C   UNL     1       7.318   5.043  18.684  0.00  0.00    +0.000 C 
ATOM      3  C   UNL     1       7.362   5.746  17.313  0.00  0.00    +0.000 C 
ATOM      4  C   UNL     1       6.444   4.888  16.422  0.00  0.00    +0.000 C 
ATOM      5  C   UNL     1       5.633   4.020  17.413  0.00  0.00    +0.000 C 
ENDROOT
BRANCH   1   6
ATOM      6  C   UNL     1       5.004   5.030  19.577  0.00  0.00    +0.000 C 
BRANCH   6  12
ATOM      7  C   UNL     1       2.457   4.903  19.097  0.00  0.00    +0.000 A 
ATOM      8  C   UNL     1       1.193   4.380  19.465  0.00  0.00    +0.000 A 
ATOM      9  C   UNL     1       1.079   3.245  20.265  0.00  0.00    +0.000 A 
ATOM     10  C   UNL     1       2.237   2.622  20.697  0.00  0.00    +0.000 A 
ATOM     11  C   UNL     1       3.495   3.175  20.423  0.00  0.00    +0.000 A 
ATOM     12  C   UNL     1       3.635   4.352  19.653  0.00  0.00    +0.000 A 
BRANCH   7  14
ATOM     13  C   UNL     1       2.415   7.405  18.611  0.00  0.00    +0.000 C 
ATOM     14  C   UNL     1       2.450   6.001  18.057  0.00  0.00    +0.000 C 
ENDBRANCH   7  14
ENDBRANCH   6  12
ENDBRANCH   1   6
BRANCH   3  15
ATOM     15  C   UNL     1       7.071   7.240  17.402  0.00  0.00    +0.000 C 
BRANCH  15  16
ATOM     16  O   UNL     1       8.095   7.900  18.154  0.00  0.00    +0.000 OA
ATOM     17  H   UNL     1       7.752   8.755  18.468  0.00  0.00    +0.000 HD
ENDBRANCH  15  16
ENDBRANCH   3  15
BRANCH   4  18
ATOM     18  C   UNL     1       5.576   5.533  15.299  0.00  0.00    +0.000 C 
BRANCH  18  19
ATOM     19  N   UNL     1       5.831   5.091  13.895  0.00  0.00    +0.000 NA
ATOM     20  C   UNL     1       7.271   5.015  13.592  0.00  0.00    +0.000 C 
ATOM     21  C   UNL     1       7.533   4.603  12.137  0.00  0.00    +0.000 C 
ATOM     22  C   UNL     1       6.910   3.251  11.818  0.00  0.00    +0.000 C 
ATOM     23  C   UNL     1       5.434   3.269  12.194  0.00  0.00    +0.000 C 
ATOM     24  C   UNL     1       5.209   3.768  13.633  0.00  0.00    +0.000 C 
ENDBRANCH  18  19
ENDBRANCH   4  18
TORSDOF 7
ENDMDL
MODEL 4
REMARK VINA RESULT:      -6.9      0.626      2.043
REMARK  Name = 
REMARK  8 active torsions:
REMARK  status: ('A' for Active; 'I' for Inactive)
REMARK    1  A    between atoms: C_1  and  C_2
REMARK    2  A    between atoms: C_2  and  C_3
REMARK    3  A    between atoms: C_8  and  C_9
REMARK    4  A    between atoms: C_9  and  N_10
REMARK    5  A    between atoms: C_12  and  C_13
REMARK    6  A    between atoms: C_13  and  O_14
REMARK    7  A    between atoms: C_15  and  C_16
REMARK    8  A    between atoms: C_16  and  N_17
REMARK                            x       y       z     vdW  Elec       q    Type
REMARK                         _______ _______ _______ _____ _____    ______ ____
ROOT
ATOM      1  N   UNL     1       1.331   5.095  19.448  0.00  0.00    +0.000 NA
ATOM      2  C   UNL     1       1.074   3.887  20.232  0.00  0.00    +0.000 C 
ATOM      3  C   UNL     1       2.059   2.794  19.768  0.00  0.00    +0.000 C 
ATOM      4  C   UNL     1       2.372   3.168  18.307  0.00  0.00    +0.000 C 
ATOM      5  C   UNL     1       1.891   4.631  18.163  0.00  0.00    +0.000 C 
ENDROOT
BRANCH   1   6
ATOM      6  C   UNL     1       2.144   6.122  20.115  0.00  0.00    +0.000 C 
BRANCH   6  12
ATOM      7  C   UNL     1       1.662   8.498  19.190  0.00  0.00    +0.000 A 
ATOM      8  C   UNL     1       1.347   9.851  19.469  0.00  0.00    +0.000 A 
ATOM      9  C   UNL     1       0.791  10.233  20.688  0.00  0.00    +0.000 A 
ATOM     10  C   UNL     1       0.541   9.257  21.635  0.00  0.00    +0.000 A 
ATOM     11  C   UNL     1       0.930   7.928  21.418  0.00  0.00    +0.000 A 
ATOM     12  C   UNL     1       1.539   7.524  20.208  0.00  0.00    +0.000 A 
BRANCH   7  14
ATOM     13  C   UNL     1       3.510   7.827  17.568  0.00  0.00    +0.000 C 
ATOM     14  C   UNL     1       2.056   8.182  17.765  0.00  0.00    +0.000 C 
ENDBRANCH   7  14
ENDBRANCH   6  12
ENDBRANCH   1   6
BRANCH   3  15
ATOM     15  C   UNL     1       3.234   2.609  20.722  0.00  0.00    +0.000 C 
BRANCH  15  16
ATOM     16  O   UNL     1       2.766   2.504  22.070  0.00  0.00    +0.000 OA
ATOM     17  H   UNL     1       2.173   3.253  22.255  0.00  0.00    +0.000 HD
ENDBRANCH  15  16
ENDBRANCH   3  15
BRANCH   4  18
ATOM     18  C   UNL     1       3.780   2.909  17.690  0.00  0.00    +0.000 C 
BRANCH  18  19
ATOM     19  N   UNL     1       4.636   4.100  17.409  0.00  0.00    +0.000 NA
ATOM     20  C   UNL     1       5.592   4.364  18.499  0.00  0.00    +0.000 C 
ATOM     21  C   UNL     1       6.443   5.613  18.229  0.00  0.00    +0.000 C 
ATOM     22  C   UNL     1       7.228   5.486  16.932  0.00  0.00    +0.000 C 
ATOM     23  C   UNL     1       6.279   5.133  15.794  0.00  0.00    +0.000 C 
ATOM     24  C   UNL     1       5.385   3.927  16.138  0.00  0.00    +0.000 C 
ENDBRANCH  18  19
ENDBRANCH   4  18
TORSDOF 7
ENDMDL
MODEL 5
REMARK VINA RESULT:      -6.8      3.300      5.233
REMARK  Name = 
REMARK  8 active torsions:
REMARK  status: ('A' for Active; 'I' for Inactive)
REMARK    1  A    between atoms: C_1  and  C_2
REMARK    2  A    between atoms: C_2  and  C_3
REMARK    3  A    between atoms: C_8  and  C_9
REMARK    4  A    between atoms: C_9  and  N_10
REMARK    5  A    between atoms: C_12  and  C_13
REMARK    6  A    between atoms: C_13  and  O_14
REMARK    7  A    between atoms: C_15  and  C_16
REMARK    8  A    between atoms: C_16  and  N_17
REMARK                            x       y       z     vdW  Elec       q    Type
REMARK                         _______ _______ _______ _____ _____    ______ ____
ROOT
ATOM      1  N   UNL     1       6.444   4.544  18.935  0.00  0.00    +0.000 NA
ATOM      2  C   UNL     1       7.566   5.459  18.724  0.00  0.00    +0.000 C 
ATOM      3  C   UNL     1       7.403   6.106  17.334  0.00  0.00    +0.000 C 
ATOM      4  C   UNL     1       6.606   5.065  16.526  0.00  0.00    +0.000 C 
ATOM      5  C   UNL     1       6.023   4.104  17.590  0.00  0.00    +0.000 C 
ENDROOT
BRANCH   1   6
ATOM      6  C   UNL     1       5.347   5.067  19.761  0.00  0.00    +0.000 C 
BRANCH   6  12
ATOM      7  C   UNL     1       3.152   3.745  19.350  0.00  0.00    +0.000 A 
ATOM      8  C   UNL     1       1.992   3.566  18.556  0.00  0.00    +0.000 A 
ATOM      9  C   UNL     1       1.520   4.574  17.719  0.00  0.00    +0.000 A 
ATOM     10  C   UNL     1       2.207   5.775  17.677  0.00  0.00    +0.000 A 
ATOM     11  C   UNL     1       3.407   5.940  18.381  0.00  0.00    +0.000 A 
ATOM     12  C   UNL     1       3.932   4.916  19.201  0.00  0.00    +0.000 A 
BRANCH   7  14
ATOM     13  C   UNL     1       2.563   2.705  21.602  0.00  0.00    +0.000 C 
ATOM     14  C   UNL     1       3.437   2.667  20.371  0.00  0.00    +0.000 C 
ENDBRANCH   7  14
ENDBRANCH   6  12
ENDBRANCH   1   6
BRANCH   3  15
ATOM     15  C   UNL     1       6.853   7.527  17.401  0.00  0.00    +0.000 C 
BRANCH  15  16
ATOM     16  O   UNL     1       7.911   8.456  17.657  0.00  0.00    +0.000 OA
ATOM     17  H   UNL     1       8.128   8.429  18.605  0.00  0.00    +0.000 HD
ENDBRANCH  15  16
ENDBRANCH   3  15
BRANCH   4  18
ATOM     18  C   UNL     1       5.572   5.501  15.444  0.00  0.00    +0.000 C 
BRANCH  18  19
ATOM     19  N   UNL     1       5.848   5.101  14.031  0.00  0.00    +0.000 NA
ATOM     20  C   UNL     1       7.292   5.049  13.742  0.00  0.00    +0.000 C 
ATOM     21  C   UNL     1       7.574   4.680  12.279  0.00  0.00    +0.000 C 
ATOM     22  C   UNL     1       6.971   3.331  11.916  0.00  0.00    +0.000 C 
ATOM     23  C   UNL     1       5.490   3.322  12.276  0.00  0.00    +0.000 C 
ATOM     24  C   UNL     1       5.244   3.779  13.726  0.00  0.00    +0.000 C 
ENDBRANCH  18  19
ENDBRANCH   4  18
TORSDOF 7
ENDMDL
MODEL 6
REMARK VINA RESULT:      -6.8      1.106      1.320
REMARK  Name = 
REMARK  8 active torsions:
REMARK  status: ('A' for Active; 'I' for Inactive)
REMARK    1  A    between atoms: C_1  and  C_2
REMARK    2  A    between atoms: C_2  and  C_3
REMARK    3  A    between atoms: C_8  and  C_9
REMARK    4  A    between atoms: C_9  and  N_10
REMARK    5  A    between atoms: C_12  and  C_13
REMARK    6  A    between atoms: C_13  and  O_14
REMARK    7  A    between atoms: C_15  and  C_16
REMARK    8  A    between atoms: C_16  and  N_17
REMARK                            x       y       z     vdW  Elec       q    Type
REMARK                         _______ _______ _______ _____ _____    ______ ____
ROOT
ATOM      1  N   UNL     1       1.702   5.244  19.742  0.00  0.00    +0.000 NA
ATOM      2  C   UNL     1       2.012   4.017  20.476  0.00  0.00    +0.000 C 
ATOM      3  C   UNL     1       2.873   3.117  19.567  0.00  0.00    +0.000 C 
ATOM      4  C   UNL     1       2.465   3.526  18.139  0.00  0.00    +0.000 C 
ATOM      5  C   UNL     1       1.730   4.876  18.312  0.00  0.00    +0.000 C 
ENDROOT
BRANCH   1   6
ATOM      6  C   UNL     1       2.536   6.408  20.074  0.00  0.00    +0.000 C 
BRANCH   6  12
ATOM      7  C   UNL     1       1.210   8.616  20.394  0.00  0.00    +0.000 A 
ATOM      8  C   UNL     1       0.537   9.707  19.792  0.00  0.00    +0.000 A 
ATOM      9  C   UNL     1       0.759  10.055  18.461  0.00  0.00    +0.000 A 
ATOM     10  C   UNL     1       1.666   9.313  17.726  0.00  0.00    +0.000 A 
ATOM     11  C   UNL     1       2.273   8.175  18.273  0.00  0.00    +0.000 A 
ATOM     12  C   UNL     1       2.028   7.773  19.606  0.00  0.00    +0.000 A 
BRANCH   7  14
ATOM     13  C   UNL     1      -0.114   9.235  22.483  0.00  0.00    +0.000 C 
ATOM     14  C   UNL     1       1.048   8.473  21.890  0.00  0.00    +0.000 C 
ENDBRANCH   7  14
ENDBRANCH   6  12
ENDBRANCH   1   6
BRANCH   3  15
ATOM     15  C   UNL     1       4.356   3.159  19.922  0.00  0.00    +0.000 C 
BRANCH  15  16
ATOM     16  O   UNL     1       4.985   1.923  19.569  0.00  0.00    +0.000 OA
ATOM     17  H   UNL     1       5.887   1.915  19.935  0.00  0.00    +0.000 HD
ENDBRANCH  15  16
ENDBRANCH   3  15
BRANCH   4  18
ATOM     18  C   UNL     1       3.498   3.522  16.971  0.00  0.00    +0.000 C 
BRANCH  18  19
ATOM     19  N   UNL     1       4.786   4.244  17.190  0.00  0.00    +0.000 NA
ATOM     20  C   UNL     1       5.840   3.790  16.266  0.00  0.00    +0.000 C 
ATOM     21  C   UNL     1       7.176   4.502  16.520  0.00  0.00    +0.000 C 
ATOM     22  C   UNL     1       7.041   6.011  16.377  0.00  0.00    +0.000 C 
ATOM     23  C   UNL     1       5.904   6.507  17.262  0.00  0.00    +0.000 C 
ATOM     24  C   UNL     1       4.606   5.711  17.037  0.00  0.00    +0.000 C 
ENDBRANCH  18  19
ENDBRANCH   4  18
TORSDOF 7
ENDMDL
MODEL 7
REMARK VINA RESULT:      -6.8      0.768      1.262
REMARK  Name = 
REMARK  8 active torsions:
REMARK  status: ('A' for Active; 'I' for Inactive)
REMARK    1  A    between atoms: C_1  and  C_2
REMARK    2  A    between atoms: C_2  and  C_3
REMARK    3  A    between atoms: C_8  and  C_9
REMARK    4  A    between atoms: C_9  and  N_10
REMARK    5  A    between atoms: C_12  and  C_13
REMARK    6  A    between atoms: C_13  and  O_14
REMARK    7  A    between atoms: C_15  and  C_16
REMARK    8  A    between atoms: C_16  and  N_17
REMARK                            x       y       z     vdW  Elec       q    Type
REMARK                         _______ _______ _______ _____ _____    ______ ____
ROOT
ATOM      1  N   UNL     1       1.351   5.018  19.403  0.00  0.00    +0.000 NA
ATOM      2  C   UNL     1       0.880   3.966  20.306  0.00  0.00    +0.000 C 
ATOM      3  C   UNL     1       1.749   2.713  20.078  0.00  0.00    +0.000 C 
ATOM      4  C   UNL     1       2.220   2.844  18.617  0.00  0.00    +0.000 C 
ATOM      5  C   UNL     1       1.944   4.320  18.246  0.00  0.00    +0.000 C 
ENDROOT
BRANCH   1   6
ATOM      6  C   UNL     1       2.234   6.024  20.010  0.00  0.00    +0.000 C 
BRANCH   6  12
ATOM      7  C   UNL     1       1.357   8.453  20.266  0.00  0.00    +0.000 A 
ATOM      8  C   UNL     1       0.979   9.663  19.633  0.00  0.00    +0.000 A 
ATOM      9  C   UNL     1       1.397   9.970  18.340  0.00  0.00    +0.000 A 
ATOM     10  C   UNL     1       2.203   9.065  17.673  0.00  0.00    +0.000 A 
ATOM     11  C   UNL     1       2.511   7.822  18.243  0.00  0.00    +0.000 A 
ATOM     12  C   UNL     1       2.061   7.467  19.534  0.00  0.00    +0.000 A 
BRANCH   7  14
ATOM     13  C   UNL     1      -0.230   9.056  22.167  0.00  0.00    +0.000 C 
ATOM     14  C   UNL     1       1.024   8.333  21.736  0.00  0.00    +0.000 C 
ENDBRANCH   7  14
ENDBRANCH   6  12
ENDBRANCH   1   6
BRANCH   3  15
ATOM     15  C   UNL     1       2.813   2.524  21.154  0.00  0.00    +0.000 C 
BRANCH  15  16
ATOM     16  O   UNL     1       2.398   3.143  22.375  0.00  0.00    +0.000 OA
ATOM     17  H   UNL     1       2.804   2.668  23.121  0.00  0.00    +0.000 HD
ENDBRANCH  15  16
ENDBRANCH   3  15
BRANCH   4  18
ATOM     18  C   UNL     1       3.627   2.340  18.173  0.00  0.00    +0.000 C 
BRANCH  18  19
ATOM     19  N   UNL     1       4.654   3.373  17.843  0.00  0.00    +0.000 NA
ATOM     20  C   UNL     1       4.176   4.322  16.823  0.00  0.00    +0.000 C 
ATOM     21  C   UNL     1       5.246   5.358  16.452  0.00  0.00    +0.000 C 
ATOM     22  C   UNL     1       5.695   6.157  17.667  0.00  0.00    +0.000 C 
ATOM     23  C   UNL     1       6.123   5.203  18.775  0.00  0.00    +0.000 C 
ATOM     24  C   UNL     1       5.057   4.128  19.057  0.00  0.00    +0.000 C 
ENDBRANCH  18  19
ENDBRANCH   4  18
TORSDOF 7
ENDMDL
MODEL 8
REMARK VINA RESULT:      -6.8      3.302      5.005
REMARK  Name = 
REMARK  8 active torsions:
REMARK  status: ('A' for Active; 'I' for Inactive)
REMARK    1  A    between atoms: C_1  and  C_2
REMARK    2  A    between atoms: C_2  and  C_3
REMARK    3  A    between atoms: C_8  and  C_9
REMARK    4  A    between atoms: C_9  and  N_10
REMARK    5  A    between atoms: C_12  and  C_13
REMARK    6  A    between atoms: C_13  and  O_14
REMARK    7  A    between atoms: C_15  and  C_16
REMARK    8  A    between atoms: C_16  and  N_17
REMARK                            x       y       z     vdW  Elec       q    Type
REMARK                         _______ _______ _______ _____ _____    ______ ____
ROOT
ATOM      1  N   UNL     1       5.560   4.660  19.429  0.00  0.00    +0.000 NA
ATOM      2  C   UNL     1       6.760   5.473  19.228  0.00  0.00    +0.000 C 
ATOM      3  C   UNL     1       6.977   5.644  17.711  0.00  0.00    +0.000 C 
ATOM      4  C   UNL     1       6.324   4.393  17.095  0.00  0.00    +0.000 C 
ATOM      5  C   UNL     1       5.441   3.813  18.226  0.00  0.00    +0.000 C 
ENDROOT
BRANCH   1   6
ATOM      6  C   UNL     1       4.337   5.407  19.755  0.00  0.00    +0.000 C 
BRANCH   6  12
ATOM      7  C   UNL     1       2.310   3.804  19.991  0.00  0.00    +0.000 A 
ATOM      8  C   UNL     1       1.272   3.084  19.352  0.00  0.00    +0.000 A 
ATOM      9  C   UNL     1       0.832   3.421  18.073  0.00  0.00    +0.000 A 
ATOM     10  C   UNL     1       1.429   4.490  17.429  0.00  0.00    +0.000 A 
ATOM     11  C   UNL     1       2.520   5.156  18.004  0.00  0.00    +0.000 A 
ATOM     12  C   UNL     1       3.015   4.802  19.279  0.00  0.00    +0.000 A 
BRANCH   7  14
ATOM     13  C   UNL     1       1.594   2.474  22.045  0.00  0.00    +0.000 C 
ATOM     14  C   UNL     1       2.548   3.483  21.450  0.00  0.00    +0.000 C 
ENDBRANCH   7  14
ENDBRANCH   6  12
ENDBRANCH   1   6
BRANCH   3  15
ATOM     15  C   UNL     1       6.525   7.007  17.197  0.00  0.00    +0.000 C 
BRANCH  15  16
ATOM     16  O   UNL     1       7.464   8.017  17.580  0.00  0.00    +0.000 OA
ATOM     17  H   UNL     1       8.132   7.618  18.165  0.00  0.00    +0.000 HD
ENDBRANCH  15  16
ENDBRANCH   3  15
BRANCH   4  18
ATOM     18  C   UNL     1       5.609   4.452  15.711  0.00  0.00    +0.000 C 
BRANCH  18  19
ATOM     19  N   UNL     1       6.432   4.158  14.500  0.00  0.00    +0.000 NA
ATOM     20  C   UNL     1       5.611   3.671  13.378  0.00  0.00    +0.000 C 
ATOM     21  C   UNL     1       6.461   3.328  12.147  0.00  0.00    +0.000 C 
ATOM     22  C   UNL     1       7.255   4.533  11.663  0.00  0.00    +0.000 C 
ATOM     23  C   UNL     1       8.057   5.114  12.821  0.00  0.00    +0.000 C 
ATOM     24  C   UNL     1       7.183   5.363  14.063  0.00  0.00    +0.000 C 
ENDBRANCH  18  19
ENDBRANCH   4  18
TORSDOF 7
ENDMDL
MODEL 9
REMARK VINA RESULT:      -6.7      1.627      5.314
REMARK  Name = 
REMARK  8 active torsions:
REMARK  status: ('A' for Active; 'I' for Inactive)
REMARK    1  A    between atoms: C_1  and  C_2
REMARK    2  A    between atoms: C_2  and  C_3
REMARK    3  A    between atoms: C_8  and  C_9
REMARK    4  A    between atoms: C_9  and  N_10
REMARK    5  A    between atoms: C_12  and  C_13
REMARK    6  A    between atoms: C_13  and  O_14
REMARK    7  A    between atoms: C_15  and  C_16
REMARK    8  A    between atoms: C_16  and  N_17
REMARK                            x       y       z     vdW  Elec       q    Type
REMARK                         _______ _______ _______ _____ _____    ______ ____
ROOT
ATOM      1  N   UNL     1       4.739   3.162  19.329  0.00  0.00    +0.000 NA
ATOM      2  C   UNL     1       3.891   1.978  19.186  0.00  0.00    +0.000 C 
ATOM      3  C   UNL     1       2.443   2.380  19.527  0.00  0.00    +0.000 C 
ATOM      4  C   UNL     1       2.601   3.566  20.497  0.00  0.00    +0.000 C 
ATOM      5  C   UNL     1       4.071   4.018  20.328  0.00  0.00    +0.000 C 
ENDROOT
BRANCH   1   6
ATOM      6  C   UNL     1       5.072   3.857  18.077  0.00  0.00    +0.000 C 
BRANCH   6  12
ATOM      7  C   UNL     1       6.165   6.024  17.157  0.00  0.00    +0.000 A 
ATOM      8  C   UNL     1       7.247   6.936  17.213  0.00  0.00    +0.000 A 
ATOM      9  C   UNL     1       8.080   7.012  18.327  0.00  0.00    +0.000 A 
ATOM     10  C   UNL     1       7.828   6.174  19.399  0.00  0.00    +0.000 A 
ATOM     11  C   UNL     1       6.822   5.200  19.328  0.00  0.00    +0.000 A 
ATOM     12  C   UNL     1       5.994   5.072  18.190  0.00  0.00    +0.000 A 
BRANCH   7  14
ATOM     13  C   UNL     1       5.525   5.335  14.788  0.00  0.00    +0.000 C 
ATOM     14  C   UNL     1       5.211   6.186  15.996  0.00  0.00    +0.000 C 
ENDBRANCH   7  14
ENDBRANCH   6  12
ENDBRANCH   1   6
BRANCH   3  15
ATOM     15  C   UNL     1       1.575   2.585  18.290  0.00  0.00    +0.000 C 
BRANCH  15  16
ATOM     16  O   UNL     1       0.242   2.130  18.539  0.00  0.00    +0.000 OA
ATOM     17  H   UNL     1      -0.202   1.979  17.686  0.00  0.00    +0.000 HD
ENDBRANCH  15  16
ENDBRANCH   3  15
BRANCH   4  18
ATOM     18  C   UNL     1       1.580   4.744  20.506  0.00  0.00    +0.000 C 
BRANCH  18  19
ATOM     19  N   UNL     1       2.078   6.087  20.082  0.00  0.00    +0.000 NA
ATOM     20  C   UNL     1       2.133   6.219  18.615  0.00  0.00    +0.000 C 
ATOM     21  C   UNL     1       2.685   7.583  18.179  0.00  0.00    +0.000 C 
ATOM     22  C   UNL     1       1.843   8.727  18.725  0.00  0.00    +0.000 C 
ATOM     23  C   UNL     1       1.698   8.578  20.235  0.00  0.00    +0.000 C 
ATOM     24  C   UNL     1       1.224   7.169  20.634  0.00  0.00    +0.000 C 
ENDBRANCH  18  19
ENDBRANCH   4  18
TORSDOF 7
ENDMDL
