MODEL 1
REMARK VINA RESULT:      -6.8      0.000      0.000
REMARK  Name = 
REMARK  4 active torsions:
REMARK  status: ('A' for Active; 'I' for Inactive)
REMARK    1  A    between atoms: C_1  and  C_2
REMARK    2  A    between atoms: C_4  and  C_5
REMARK    3  A    between atoms: N_6  and  C_7
REMARK    4  A    between atoms: C_7  and  C_8
REMARK                            x       y       z     vdW  Elec       q    Type
REMARK                         _______ _______ _______ _____ _____    ______ ____
ROOT
ATOM      1  C   UNL     1       3.605   4.826  17.469  0.00  0.00    +0.000 C 
ENDROOT
BRANCH   1   7
ATOM      2  C   UNL     1       7.893   5.709  19.536  0.00  0.00    +0.000 C 
ATOM      3  C   UNL     1       6.933   5.220  18.518  0.00  0.00    +0.000 A 
ATOM      4  C   UNL     1       7.214   4.711  17.234  0.00  0.00    +0.000 A 
ATOM      5  C   UNL     1       5.988   4.425  16.674  0.00  0.00    +0.000 A 
ATOM      6  C   UNL     1       5.643   3.883  15.338  0.00  0.00    +0.000 C 
ATOM      7  N   UNL     1       5.058   4.771  17.625  0.00  0.00    +0.000 N 
ATOM      8  N   UNL     1       5.616   5.251  18.759  0.00  0.00    +0.000 NA
ENDBRANCH   1   7
BRANCH   1   9
ATOM      9  C   UNL     1       2.852   4.281  18.660  0.00  0.00    +0.000 A 
ATOM     10  C   UNL     1       2.164   5.176  19.502  0.00  0.00    +0.000 A 
ATOM     11  C   UNL     1       1.377   4.714  20.560  0.00  0.00    +0.000 A 
ATOM     12  C   UNL     1       1.255   3.349  20.792  0.00  0.00    +0.000 A 
ATOM     13  C   UNL     1       1.938   2.446  19.979  0.00  0.00    +0.000 A 
ATOM     14  C   UNL     1       2.735   2.906  18.925  0.00  0.00    +0.000 A 
ATOM     15 CL   UNL     1       3.544   1.708  17.977  0.00  0.00    +0.000 Cl
ENDBRANCH   1   9
TORSDOF 2
ENDMDL
MODEL 2
REMARK VINA RESULT:      -6.7      2.143      5.334
REMARK  Name = 
REMARK  4 active torsions:
REMARK  status: ('A' for Active; 'I' for Inactive)
REMARK    1  A    between atoms: C_1  and  C_2
REMARK    2  A    between atoms: C_4  and  C_5
REMARK    3  A    between atoms: N_6  and  C_7
REMARK    4  A    between atoms: C_7  and  C_8
REMARK                            x       y       z     vdW  Elec       q    Type
REMARK                         _______ _______ _______ _____ _____    ______ ____
ROOT
ATOM      1  C   UNL     1       4.490   4.431  17.973  0.00  0.00    +0.000 C 
ENDROOT
BRANCH   1   7
ATOM      2  C   UNL     1       1.823   2.931  21.724  0.00  0.00    +0.000 C 
ATOM      3  C   UNL     1       2.315   3.846  20.666  0.00  0.00    +0.000 A 
ATOM      4  C   UNL     1       1.784   5.093  20.281  0.00  0.00    +0.000 A 
ATOM      5  C   UNL     1       2.577   5.527  19.242  0.00  0.00    +0.000 A 
ATOM      6  C   UNL     1       2.499   6.758  18.420  0.00  0.00    +0.000 C 
ATOM      7  N   UNL     1       3.518   4.542  19.059  0.00  0.00    +0.000 N 
ATOM      8  N   UNL     1       3.378   3.512  19.924  0.00  0.00    +0.000 NA
ENDBRANCH   1   7
BRANCH   1   9
ATOM      9  C   UNL     1       5.679   5.349  18.135  0.00  0.00    +0.000 A 
ATOM     10  C   UNL     1       6.535   5.172  19.240  0.00  0.00    +0.000 A 
ATOM     11  C   UNL     1       7.698   5.932  19.383  0.00  0.00    +0.000 A 
ATOM     12  C   UNL     1       8.034   6.879  18.422  0.00  0.00    +0.000 A 
ATOM     13  C   UNL     1       7.194   7.080  17.328  0.00  0.00    +0.000 A 
ATOM     14  C   UNL     1       6.023   6.327  17.186  0.00  0.00    +0.000 A 
ATOM     15 CL   UNL     1       5.047   6.654  15.797  0.00  0.00    +0.000 Cl
ENDBRANCH   1   9
TORSDOF 2
ENDMDL
MODEL 3
REMARK VINA RESULT:      -6.7      1.557      1.960
REMARK  Name = 
REMARK  4 active torsions:
REMARK  status: ('A' for Active; 'I' for Inactive)
REMARK    1  A    between atoms: C_1  and  C_2
REMARK    2  A    between atoms: C_4  and  C_5
REMARK    3  A    between atoms: N_6  and  C_7
REMARK    4  A    between atoms: C_7  and  C_8
REMARK                            x       y       z     vdW  Elec       q    Type
REMARK                         _______ _______ _______ _____ _____    ______ ____
ROOT
ATOM      1  C   UNL     1       3.561   5.511  17.457  0.00  0.00    +0.000 C 
ENDROOT
BRANCH   1   7
ATOM      2  C   UNL     1       7.893   5.638  19.613  0.00  0.00    +0.000 C 
ATOM      3  C   UNL     1       6.877   5.295  18.589  0.00  0.00    +0.000 A 
ATOM      4  C   UNL     1       7.079   4.674  17.341  0.00  0.00    +0.000 A 
ATOM      5  C   UNL     1       5.833   4.607  16.756  0.00  0.00    +0.000 A 
ATOM      6  C   UNL     1       5.416   4.076  15.437  0.00  0.00    +0.000 C 
ATOM      7  N   UNL     1       4.970   5.179  17.660  0.00  0.00    +0.000 N 
ATOM      8  N   UNL     1       5.588   5.598  18.788  0.00  0.00    +0.000 NA
ENDBRANCH   1   7
BRANCH   1   9
ATOM      9  C   UNL     1       2.615   4.602  18.207  0.00  0.00    +0.000 A 
ATOM     10  C   UNL     1       2.387   3.300  17.720  0.00  0.00    +0.000 A 
ATOM     11  C   UNL     1       1.597   2.391  18.428  0.00  0.00    +0.000 A 
ATOM     12  C   UNL     1       1.025   2.762  19.641  0.00  0.00    +0.000 A 
ATOM     13  C   UNL     1       1.228   4.049  20.134  0.00  0.00    +0.000 A 
ATOM     14  C   UNL     1       2.011   4.966  19.422  0.00  0.00    +0.000 A 
ATOM     15 CL   UNL     1       2.198   6.538  20.116  0.00  0.00    +0.000 Cl
ENDBRANCH   1   9
TORSDOF 2
ENDMDL
MODEL 4
REMARK VINA RESULT:      -6.5      1.455      1.854
REMARK  Name = 
REMARK  4 active torsions:
REMARK  status: ('A' for Active; 'I' for Inactive)
REMARK    1  A    between atoms: C_1  and  C_2
REMARK    2  A    between atoms: C_4  and  C_5
REMARK    3  A    between atoms: N_6  and  C_7
REMARK    4  A    between atoms: C_7  and  C_8
REMARK                            x       y       z     vdW  Elec       q    Type
REMARK                         _______ _______ _______ _____ _____    ______ ____
ROOT
ATOM      1  C   UNL     1       4.159   3.273  17.679  0.00  0.00    +0.000 C 
ENDROOT
BRANCH   1   7
ATOM      2  C   UNL     1       7.917   5.800  19.391  0.00  0.00    +0.000 C 
ATOM      3  C   UNL     1       7.005   5.205  18.386  0.00  0.00    +0.000 A 
ATOM      4  C   UNL     1       6.986   5.426  16.994  0.00  0.00    +0.000 A 
ATOM      5  C   UNL     1       5.939   4.669  16.515  0.00  0.00    +0.000 A 
ATOM      6  C   UNL     1       5.419   4.508  15.136  0.00  0.00    +0.000 C 
ATOM      7  N   UNL     1       5.396   4.051  17.616  0.00  0.00    +0.000 N 
ATOM      8  N   UNL     1       6.038   4.361  18.765  0.00  0.00    +0.000 NA
ENDBRANCH   1   7
BRANCH   1   9
ATOM      9  C   UNL     1       3.359   3.519  18.936  0.00  0.00    +0.000 A 
ATOM     10  C   UNL     1       3.357   2.540  19.949  0.00  0.00    +0.000 A 
ATOM     11  C   UNL     1       2.711   2.760  21.167  0.00  0.00    +0.000 A 
ATOM     12  C   UNL     1       2.060   3.966  21.403  0.00  0.00    +0.000 A 
ATOM     13  C   UNL     1       2.037   4.944  20.409  0.00  0.00    +0.000 A 
ATOM     14  C   UNL     1       2.676   4.722  19.183  0.00  0.00    +0.000 A 
ATOM     15 CL   UNL     1       2.588   5.994  18.016  0.00  0.00    +0.000 Cl
ENDBRANCH   1   9
TORSDOF 2
ENDMDL
MODEL 5
REMARK VINA RESULT:      -6.5      1.750      3.064
REMARK  Name = 
REMARK  4 active torsions:
REMARK  status: ('A' for Active; 'I' for Inactive)
REMARK    1  A    between atoms: C_1  and  C_2
REMARK    2  A    between atoms: C_4  and  C_5
REMARK    3  A    between atoms: N_6  and  C_7
REMARK    4  A    between atoms: C_7  and  C_8
REMARK                            x       y       z     vdW  Elec       q    Type
REMARK                         _______ _______ _______ _____ _____    ______ ____
ROOT
ATOM      1  C   UNL     1       5.232   4.069  18.744  0.00  0.00    +0.000 C 
ENDROOT
BRANCH   1   7
ATOM      2  C   UNL     1       6.141   3.897  13.992  0.00  0.00    +0.000 C 
ATOM      3  C   UNL     1       6.261   4.349  15.399  0.00  0.00    +0.000 A 
ATOM      4  C   UNL     1       7.213   5.232  15.947  0.00  0.00    +0.000 A 
ATOM      5  C   UNL     1       6.917   5.304  17.291  0.00  0.00    +0.000 A 
ATOM      6  C   UNL     1       7.578   6.057  18.384  0.00  0.00    +0.000 C 
ATOM      7  N   UNL     1       5.832   4.480  17.475  0.00  0.00    +0.000 N 
ATOM      8  N   UNL     1       5.414   3.895  16.330  0.00  0.00    +0.000 NA
ENDBRANCH   1   7
BRANCH   1   9
ATOM      9  C   UNL     1       3.792   3.631  18.614  0.00  0.00    +0.000 A 
ATOM     10  C   UNL     1       3.462   2.284  18.860  0.00  0.00    +0.000 A 
ATOM     11  C   UNL     1       2.135   1.850  18.845  0.00  0.00    +0.000 A 
ATOM     12  C   UNL     1       1.109   2.755  18.592  0.00  0.00    +0.000 A 
ATOM     13  C   UNL     1       1.414   4.089  18.333  0.00  0.00    +0.000 A 
ATOM     14  C   UNL     1       2.745   4.526  18.337  0.00  0.00    +0.000 A 
ATOM     15 CL   UNL     1       3.019   6.198  18.000  0.00  0.00    +0.000 Cl
ENDBRANCH   1   9
TORSDOF 2
ENDMDL
MODEL 6
REMARK VINA RESULT:      -6.5      1.479      2.465
REMARK  Name = 
REMARK  4 active torsions:
REMARK  status: ('A' for Active; 'I' for Inactive)
REMARK    1  A    between atoms: C_1  and  C_2
REMARK    2  A    between atoms: C_4  and  C_5
REMARK    3  A    between atoms: N_6  and  C_7
REMARK    4  A    between atoms: C_7  and  C_8
REMARK                            x       y       z     vdW  Elec       q    Type
REMARK                         _______ _______ _______ _____ _____    ______ ____
ROOT
ATOM      1  C   UNL     1       4.948   4.291  18.854  0.00  0.00    +0.000 C 
ENDROOT
BRANCH   1   7
ATOM      2  C   UNL     1       6.148   3.918  14.179  0.00  0.00    +0.000 C 
ATOM      3  C   UNL     1       5.593   4.528  15.411  0.00  0.00    +0.000 A 
ATOM      4  C   UNL     1       5.117   5.842  15.590  0.00  0.00    +0.000 A 
ATOM      5  C   UNL     1       4.741   5.921  16.913  0.00  0.00    +0.000 A 
ATOM      6  C   UNL     1       4.185   7.055  17.689  0.00  0.00    +0.000 C 
ATOM      7  N   UNL     1       5.006   4.683  17.447  0.00  0.00    +0.000 N 
ATOM      8  N   UNL     1       5.519   3.818  16.543  0.00  0.00    +0.000 NA
ENDBRANCH   1   7
BRANCH   1   9
ATOM      9  C   UNL     1       3.545   4.013  19.343  0.00  0.00    +0.000 A 
ATOM     10  C   UNL     1       2.877   4.996  20.100  0.00  0.00    +0.000 A 
ATOM     11  C   UNL     1       1.548   4.826  20.494  0.00  0.00    +0.000 A 
ATOM     12  C   UNL     1       0.856   3.675  20.133  0.00  0.00    +0.000 A 
ATOM     13  C   UNL     1       1.502   2.684  19.396  0.00  0.00    +0.000 A 
ATOM     14  C   UNL     1       2.837   2.847  19.008  0.00  0.00    +0.000 A 
ATOM     15 CL   UNL     1       3.549   1.559  18.101  0.00  0.00    +0.000 Cl
ENDBRANCH   1   9
TORSDOF 2
ENDMDL
MODEL 7
REMARK VINA RESULT:      -6.4      1.332      2.517
REMARK  Name = 
REMARK  4 active torsions:
REMARK  status: ('A' for Active; 'I' for Inactive)
REMARK    1  A    between atoms: C_1  and  C_2
REMARK    2  A    between atoms: C_4  and  C_5
REMARK    3  A    between atoms: N_6  and  C_7
REMARK    4  A    between atoms: C_7  and  C_8
REMARK                            x       y       z     vdW  Elec       q    Type
REMARK                         _______ _______ _______ _____ _____    ______ ____
ROOT
ATOM      1  C   UNL     1       4.754   5.035  19.190  0.00  0.00    +0.000 C 
ENDROOT
BRANCH   1   7
ATOM      2  C   UNL     1       6.173   3.821  14.723  0.00  0.00    +0.000 C 
ATOM      3  C   UNL     1       6.281   4.355  16.102  0.00  0.00    +0.000 A 
ATOM      4  C   UNL     1       7.443   4.770  16.783  0.00  0.00    +0.000 A 
ATOM      5  C   UNL     1       7.019   5.151  18.037  0.00  0.00    +0.000 A 
ATOM      6  C   UNL     1       7.786   5.659  19.199  0.00  0.00    +0.000 C 
ATOM      7  N   UNL     1       5.659   4.949  18.045  0.00  0.00    +0.000 N 
ATOM      8  N   UNL     1       5.191   4.470  16.870  0.00  0.00    +0.000 NA
ENDBRANCH   1   7
BRANCH   1   9
ATOM      9  C   UNL     1       3.498   4.212  19.026  0.00  0.00    +0.000 A 
ATOM     10  C   UNL     1       2.395   4.775  18.354  0.00  0.00    +0.000 A 
ATOM     11  C   UNL     1       1.246   4.024  18.094  0.00  0.00    +0.000 A 
ATOM     12  C   UNL     1       1.179   2.693  18.492  0.00  0.00    +0.000 A 
ATOM     13  C   UNL     1       2.254   2.121  19.170  0.00  0.00    +0.000 A 
ATOM     14  C   UNL     1       3.403   2.874  19.441  0.00  0.00    +0.000 A 
ATOM     15 CL   UNL     1       4.678   2.074  20.290  0.00  0.00    +0.000 Cl
ENDBRANCH   1   9
TORSDOF 2
ENDMDL
MODEL 8
REMARK VINA RESULT:      -6.4      1.179      1.745
REMARK  Name = 
REMARK  4 active torsions:
REMARK  status: ('A' for Active; 'I' for Inactive)
REMARK    1  A    between atoms: C_1  and  C_2
REMARK    2  A    between atoms: C_4  and  C_5
REMARK    3  A    between atoms: N_6  and  C_7
REMARK    4  A    between atoms: C_7  and  C_8
REMARK                            x       y       z     vdW  Elec       q    Type
REMARK                         _______ _______ _______ _____ _____    ______ ____
ROOT
ATOM      1  C   UNL     1       2.918   4.333  17.286  0.00  0.00    +0.000 C 
ENDROOT
BRANCH   1   7
ATOM      2  C   UNL     1       7.740   4.568  17.647  0.00  0.00    +0.000 C 
ATOM      3  C   UNL     1       6.345   5.056  17.541  0.00  0.00    +0.000 A 
ATOM      4  C   UNL     1       5.878   6.380  17.662  0.00  0.00    +0.000 A 
ATOM      5  C   UNL     1       4.510   6.304  17.516  0.00  0.00    +0.000 A 
ATOM      6  C   UNL     1       3.476   7.365  17.564  0.00  0.00    +0.000 C 
ATOM      7  N   UNL     1       4.233   4.972  17.323  0.00  0.00    +0.000 N 
ATOM      8  N   UNL     1       5.341   4.197  17.328  0.00  0.00    +0.000 NA
ENDBRANCH   1   7
BRANCH   1   9
ATOM      9  C   UNL     1       2.431   3.882  18.643  0.00  0.00    +0.000 A 
ATOM     10  C   UNL     1       1.670   4.772  19.427  0.00  0.00    +0.000 A 
ATOM     11  C   UNL     1       1.118   4.371  20.645  0.00  0.00    +0.000 A 
ATOM     12  C   UNL     1       1.307   3.071  21.102  0.00  0.00    +0.000 A 
ATOM     13  C   UNL     1       2.067   2.179  20.349  0.00  0.00    +0.000 A 
ATOM     14  C   UNL     1       2.631   2.580  19.131  0.00  0.00    +0.000 A 
ATOM     15 CL   UNL     1       3.559   1.401  18.274  0.00  0.00    +0.000 Cl
ENDBRANCH   1   9
TORSDOF 2
ENDMDL
MODEL 9
REMARK VINA RESULT:      -6.4      2.123      2.964
REMARK  Name = 
REMARK  4 active torsions:
REMARK  status: ('A' for Active; 'I' for Inactive)
REMARK    1  A    between atoms: C_1  and  C_2
REMARK    2  A    between atoms: C_4  and  C_5
REMARK    3  A    between atoms: N_6  and  C_7
REMARK    4  A    between atoms: C_7  and  C_8
REMARK                            x       y       z     vdW  Elec       q    Type
REMARK                         _______ _______ _______ _____ _____    ______ ____
ROOT
ATOM      1  C   UNL     1       4.351   5.292  19.424  0.00  0.00    +0.000 C 
ENDROOT
BRANCH   1   7
ATOM      2  C   UNL     1       7.004   4.819  15.402  0.00  0.00    +0.000 C 
ATOM      3  C   UNL     1       5.969   5.371  16.309  0.00  0.00    +0.000 A 
ATOM      4  C   UNL     1       5.178   6.522  16.124  0.00  0.00    +0.000 A 
ATOM      5  C   UNL     1       4.399   6.621  17.256  0.00  0.00    +0.000 A 
ATOM      6  C   UNL     1       3.387   7.633  17.643  0.00  0.00    +0.000 C 
ATOM      7  N   UNL     1       4.756   5.553  18.044  0.00  0.00    +0.000 N 
ATOM      8  N   UNL     1       5.707   4.775  17.479  0.00  0.00    +0.000 NA
ENDBRANCH   1   7
BRANCH   1   9
ATOM      9  C   UNL     1       3.135   4.401  19.535  0.00  0.00    +0.000 A 
ATOM     10  C   UNL     1       3.225   3.064  19.102  0.00  0.00    +0.000 A 
ATOM     11  C   UNL     1       2.160   2.176  19.271  0.00  0.00    +0.000 A 
ATOM     12  C   UNL     1       0.986   2.604  19.882  0.00  0.00    +0.000 A 
ATOM     13  C   UNL     1       0.871   3.927  20.306  0.00  0.00    +0.000 A 
ATOM     14  C   UNL     1       1.933   4.822  20.129  0.00  0.00    +0.000 A 
ATOM     15 CL   UNL     1       1.690   6.440  20.684  0.00  0.00    +0.000 Cl
ENDBRANCH   1   9
TORSDOF 2
ENDMDL
