MODEL 1
REMARK VINA RESULT:      -7.9      0.000      0.000
REMARK  Name = 
REMARK  8 active torsions:
REMARK  status: ('A' for Active; 'I' for Inactive)
REMARK    1  A    between atoms: C_1  and  C_2
REMARK    2  A    between atoms: C_2  and  C_3
REMARK    3  A    between atoms: C_3  and  C_4
REMARK    4  A    between atoms: C_4  and  O_5
REMARK    5  A    between atoms: O_5  and  C_6
REMARK    6  A    between atoms: C_9  and  C_10
REMARK    7  A    between atoms: C_10  and  N_11
REMARK    8  A    between atoms: C_18  and  C_19
REMARK                            x       y       z     vdW  Elec       q    Type
REMARK                         _______ _______ _______ _____ _____    ______ ____
ROOT
ATOM      1  C   UNL     1       4.667   4.874  17.052  0.00  0.00    +0.000 C 
ENDROOT
BRANCH   1   2
ATOM      2  N   UNL     1       5.525   4.931  15.866  0.00  0.00    +0.000 N 
ATOM      3  C   UNL     1       6.849   5.266  16.262  0.00  0.00    +0.000 A 
ATOM      4  O   UNL     1       7.289   5.234  17.408  0.00  0.00    +0.000 OA
ATOM      5  O   UNL     1       7.628   5.627  15.190  0.00  0.00    +0.000 OA
ATOM      6  C   UNL     1       6.951   5.019  14.178  0.00  0.00    +0.000 A 
ATOM      7  C   UNL     1       7.614   4.878  12.978  0.00  0.00    +0.000 A 
ATOM      8  C   UNL     1       7.097   4.021  12.045  0.00  0.00    +0.000 A 
ATOM      9  C   UNL     1       5.923   3.311  12.346  0.00  0.00    +0.000 A 
ATOM     10  C   UNL     1       5.606   2.228  11.320  0.00  0.00    +0.000 C 
ATOM     11  C   UNL     1       5.180   3.571  13.587  0.00  0.00    +0.000 A 
ATOM     12  C   UNL     1       5.719   4.460  14.534  0.00  0.00    +0.000 A 
ENDBRANCH   1   2
BRANCH   1  16
ATOM     13  C   UNL     1       2.115   7.713  19.318  0.00  0.00    +0.000 A 
ATOM     14  C   UNL     1       2.321   6.381  19.721  0.00  0.00    +0.000 A 
ATOM     15  C   UNL     1       3.056   5.463  18.922  0.00  0.00    +0.000 A 
ATOM     16  C   UNL     1       3.605   5.810  17.673  0.00  0.00    +0.000 A 
ATOM     17  C   UNL     1       3.446   7.178  17.314  0.00  0.00    +0.000 A 
ATOM     18  C   UNL     1       2.692   8.106  18.112  0.00  0.00    +0.000 A 
BRANCH  13  19
ATOM     19  O   UNL     1       1.412   8.666  20.027  0.00  0.00    +0.000 OA
BRANCH  19  20
ATOM     20  C   UNL     1       1.195   8.429  21.429  0.00  0.00    +0.000 C 
BRANCH  20  21
ATOM     21  C   UNL     1      -0.265   8.685  21.872  0.00  0.00    +0.000 C 
BRANCH  21  23
ATOM     22  C   UNL     1      -0.685  11.065  22.649  0.00  0.00    +0.000 C 
ATOM     23  C   UNL     1      -0.408   9.603  23.079  0.00  0.00    +0.000 C 
ENDBRANCH  21  23
ENDBRANCH  20  21
ENDBRANCH  19  20
ENDBRANCH  13  19
ENDBRANCH   1  16
TORSDOF 6
ENDMDL
MODEL 2
REMARK VINA RESULT:      -7.5      2.734      4.175
REMARK  Name = 
REMARK  8 active torsions:
REMARK  status: ('A' for Active; 'I' for Inactive)
REMARK    1  A    between atoms: C_1  and  C_2
REMARK    2  A    between atoms: C_2  and  C_3
REMARK    3  A    between atoms: C_3  and  C_4
REMARK    4  A    between atoms: C_4  and  O_5
REMARK    5  A    between atoms: O_5  and  C_6
REMARK    6  A    between atoms: C_9  and  C_10
REMARK    7  A    between atoms: C_10  and  N_11
REMARK    8  A    between atoms: C_18  and  C_19
REMARK                            x       y       z     vdW  Elec       q    Type
REMARK                         _______ _______ _______ _____ _____    ______ ____
ROOT
ATOM      1  C   UNL     1       2.617   6.901  18.273  0.00  0.00    +0.000 C 
ENDROOT
BRANCH   1   2
ATOM      2  N   UNL     1       3.938   6.282  18.141  0.00  0.00    +0.000 N 
ATOM      3  C   UNL     1       4.192   5.476  19.285  0.00  0.00    +0.000 A 
ATOM      4  O   UNL     1       3.360   5.112  20.111  0.00  0.00    +0.000 OA
ATOM      5  O   UNL     1       5.514   5.112  19.369  0.00  0.00    +0.000 OA
ATOM      6  C   UNL     1       5.891   5.248  18.068  0.00  0.00    +0.000 A 
ATOM      7  C   UNL     1       7.077   4.653  17.695  0.00  0.00    +0.000 A 
ATOM      8  C   UNL     1       7.340   4.507  16.361  0.00  0.00    +0.000 A 
ATOM      9  C   UNL     1       6.393   4.956  15.425  0.00  0.00    +0.000 A 
ATOM     10  C   UNL     1       6.713   4.513  14.001  0.00  0.00    +0.000 C 
ATOM     11  C   UNL     1       5.194   5.688  15.855  0.00  0.00    +0.000 A 
ATOM     12  C   UNL     1       4.940   5.838  17.230  0.00  0.00    +0.000 A 
ENDBRANCH   1   2
BRANCH   1  16
ATOM     13  C   UNL     1       0.490  10.535  19.682  0.00  0.00    +0.000 A 
ATOM     14  C   UNL     1       1.035  10.420  18.390  0.00  0.00    +0.000 A 
ATOM     15  C   UNL     1       1.803   9.289  18.000  0.00  0.00    +0.000 A 
ATOM     16  C   UNL     1       2.089   8.224  18.874  0.00  0.00    +0.000 A 
ATOM     17  C   UNL     1       1.473   8.324  20.153  0.00  0.00    +0.000 A 
ATOM     18  C   UNL     1       0.708   9.473  20.557  0.00  0.00    +0.000 A 
BRANCH  13  19
ATOM     19  O   UNL     1      -0.259  11.597  20.145  0.00  0.00    +0.000 OA
BRANCH  19  20
ATOM     20  C   UNL     1      -0.959  12.393  19.172  0.00  0.00    +0.000 C 
BRANCH  20  21
ATOM     21  C   UNL     1      -2.339  11.809  18.785  0.00  0.00    +0.000 C 
BRANCH  21  23
ATOM     22  C   UNL     1      -2.404   9.834  17.192  0.00  0.00    +0.000 C 
ATOM     23  C   UNL     1      -2.456  11.375  17.330  0.00  0.00    +0.000 C 
ENDBRANCH  21  23
ENDBRANCH  20  21
ENDBRANCH  19  20
ENDBRANCH  13  19
ENDBRANCH   1  16
TORSDOF 6
ENDMDL
MODEL 3
REMARK VINA RESULT:      -7.5      0.672      1.262
REMARK  Name = 
REMARK  8 active torsions:
REMARK  status: ('A' for Active; 'I' for Inactive)
REMARK    1  A    between atoms: C_1  and  C_2
REMARK    2  A    between atoms: C_2  and  C_3
REMARK    3  A    between atoms: C_3  and  C_4
REMARK    4  A    between atoms: C_4  and  O_5
REMARK    5  A    between atoms: O_5  and  C_6
REMARK    6  A    between atoms: C_9  and  C_10
REMARK    7  A    between atoms: C_10  and  N_11
REMARK    8  A    between atoms: C_18  and  C_19
REMARK                            x       y       z     vdW  Elec       q    Type
REMARK                         _______ _______ _______ _____ _____    ______ ____
ROOT
ATOM      1  C   UNL     1       4.698   4.510  17.152  0.00  0.00    +0.000 C 
ENDROOT
BRANCH   1   2
ATOM      2  N   UNL     1       5.545   4.684  15.970  0.00  0.00    +0.000 N 
ATOM      3  C   UNL     1       6.853   5.057  16.383  0.00  0.00    +0.000 A 
ATOM      4  O   UNL     1       7.302   4.973  17.523  0.00  0.00    +0.000 OA
ATOM      5  O   UNL     1       7.607   5.524  15.333  0.00  0.00    +0.000 OA
ATOM      6  C   UNL     1       6.954   4.949  14.286  0.00  0.00    +0.000 A 
ATOM      7  C   UNL     1       7.616   4.918  13.078  0.00  0.00    +0.000 A 
ATOM      8  C   UNL     1       7.135   4.098  12.093  0.00  0.00    +0.000 A 
ATOM      9  C   UNL     1       5.998   3.315  12.352  0.00  0.00    +0.000 A 
ATOM     10  C   UNL     1       5.727   2.286  11.259  0.00  0.00    +0.000 C 
ATOM     11  C   UNL     1       5.252   3.458  13.609  0.00  0.00    +0.000 A 
ATOM     12  C   UNL     1       5.753   4.310  14.610  0.00  0.00    +0.000 A 
ENDBRANCH   1   2
BRANCH   1  16
ATOM     13  C   UNL     1       2.246   7.147  19.749  0.00  0.00    +0.000 A 
ATOM     14  C   UNL     1       2.750   7.557  18.501  0.00  0.00    +0.000 A 
ATOM     15  C   UNL     1       3.620   6.732  17.739  0.00  0.00    +0.000 A 
ATOM     16  C   UNL     1       4.054   5.467  18.181  0.00  0.00    +0.000 A 
ATOM     17  C   UNL     1       3.480   5.040  19.412  0.00  0.00    +0.000 A 
ATOM     18  C   UNL     1       2.611   5.878  20.193  0.00  0.00    +0.000 A 
BRANCH  13  19
ATOM     19  O   UNL     1       1.404   7.885  20.556  0.00  0.00    +0.000 OA
BRANCH  19  20
ATOM     20  C   UNL     1       1.041   9.204  20.111  0.00  0.00    +0.000 C 
BRANCH  20  21
ATOM     21  C   UNL     1      -0.310   9.692  20.687  0.00  0.00    +0.000 C 
BRANCH  21  23
ATOM     22  C   UNL     1      -0.190   9.723  23.222  0.00  0.00    +0.000 C 
ATOM     23  C   UNL     1      -0.189  10.569  21.925  0.00  0.00    +0.000 C 
ENDBRANCH  21  23
ENDBRANCH  20  21
ENDBRANCH  19  20
ENDBRANCH  13  19
ENDBRANCH   1  16
TORSDOF 6
ENDMDL
MODEL 4
REMARK VINA RESULT:      -7.5      3.946      8.990
REMARK  Name = 
REMARK  8 active torsions:
REMARK  status: ('A' for Active; 'I' for Inactive)
REMARK    1  A    between atoms: C_1  and  C_2
REMARK    2  A    between atoms: C_2  and  C_3
REMARK    3  A    between atoms: C_3  and  C_4
REMARK    4  A    between atoms: C_4  and  O_5
REMARK    5  A    between atoms: O_5  and  C_6
REMARK    6  A    between atoms: C_9  and  C_10
REMARK    7  A    between atoms: C_10  and  N_11
REMARK    8  A    between atoms: C_18  and  C_19
REMARK                            x       y       z     vdW  Elec       q    Type
REMARK                         _______ _______ _______ _____ _____    ______ ____
ROOT
ATOM      1  C   UNL     1       1.284   9.323  19.643  0.00  0.00    +0.000 C 
ENDROOT
BRANCH   1   2
ATOM      2  N   UNL     1       0.017  10.012  19.383  0.00  0.00    +0.000 N 
ATOM      3  C   UNL     1      -0.015  11.226  20.123  0.00  0.00    +0.000 A 
ATOM      4  O   UNL     1       0.946  11.768  20.662  0.00  0.00    +0.000 OA
ATOM      5  O   UNL     1      -1.277  11.767  20.163  0.00  0.00    +0.000 OA
ATOM      6  C   UNL     1      -1.829  11.186  19.062  0.00  0.00    +0.000 A 
ATOM      7  C   UNL     1      -2.995  11.742  18.580  0.00  0.00    +0.000 A 
ATOM      8  C   UNL     1      -3.413  11.390  17.326  0.00  0.00    +0.000 A 
ATOM      9  C   UNL     1      -2.638  10.491  16.575  0.00  0.00    +0.000 A 
ATOM     10  C   UNL     1      -3.097  10.383  15.124  0.00  0.00    +0.000 C 
ATOM     11  C   UNL     1      -1.465   9.831  17.162  0.00  0.00    +0.000 A 
ATOM     12  C   UNL     1      -1.050  10.196  18.455  0.00  0.00    +0.000 A 
ENDBRANCH   1   2
BRANCH   1  16
ATOM     13  C   UNL     1       3.895   6.050  18.168  0.00  0.00    +0.000 A 
ATOM     14  C   UNL     1       3.670   7.234  17.443  0.00  0.00    +0.000 A 
ATOM     15  C   UNL     1       2.747   8.219  17.888  0.00  0.00    +0.000 A 
ATOM     16  C   UNL     1       1.983   8.074  19.061  0.00  0.00    +0.000 A 
ATOM     17  C   UNL     1       2.273   6.903  19.817  0.00  0.00    +0.000 A 
ATOM     18  C   UNL     1       3.195   5.897  19.363  0.00  0.00    +0.000 A 
BRANCH  13  19
ATOM     19  O   UNL     1       4.765   5.041  17.807  0.00  0.00    +0.000 OA
BRANCH  19  20
ATOM     20  C   UNL     1       5.848   4.742  18.706  0.00  0.00    +0.000 C 
BRANCH  20  21
ATOM     21  C   UNL     1       7.237   5.100  18.127  0.00  0.00    +0.000 C 
BRANCH  21  23
ATOM     22  C   UNL     1       7.596   7.550  17.569  0.00  0.00    +0.000 C 
ATOM     23  C   UNL     1       7.804   6.426  18.614  0.00  0.00    +0.000 C 
ENDBRANCH  21  23
ENDBRANCH  20  21
ENDBRANCH  19  20
ENDBRANCH  13  19
ENDBRANCH   1  16
TORSDOF 6
ENDMDL
MODEL 5
REMARK VINA RESULT:      -7.5      1.187      1.384
REMARK  Name = 
REMARK  8 active torsions:
REMARK  status: ('A' for Active; 'I' for Inactive)
REMARK    1  A    between atoms: C_1  and  C_2
REMARK    2  A    between atoms: C_2  and  C_3
REMARK    3  A    between atoms: C_3  and  C_4
REMARK    4  A    between atoms: C_4  and  O_5
REMARK    5  A    between atoms: O_5  and  C_6
REMARK    6  A    between atoms: C_9  and  C_10
REMARK    7  A    between atoms: C_10  and  N_11
REMARK    8  A    between atoms: C_18  and  C_19
REMARK                            x       y       z     vdW  Elec       q    Type
REMARK                         _______ _______ _______ _____ _____    ______ ____
ROOT
ATOM      1  C   UNL     1       5.165   4.206  17.447  0.00  0.00    +0.000 C 
ENDROOT
BRANCH   1   2
ATOM      2  N   UNL     1       5.827   4.479  16.169  0.00  0.00    +0.000 N 
ATOM      3  C   UNL     1       7.170   4.878  16.414  0.00  0.00    +0.000 A 
ATOM      4  O   UNL     1       7.780   4.747  17.472  0.00  0.00    +0.000 OA
ATOM      5  O   UNL     1       7.751   5.431  15.299  0.00  0.00    +0.000 OA
ATOM      6  C   UNL     1       6.971   4.892  14.322  0.00  0.00    +0.000 A 
ATOM      7  C   UNL     1       7.453   4.954  13.032  0.00  0.00    +0.000 A 
ATOM      8  C   UNL     1       6.860   4.173  12.078  0.00  0.00    +0.000 A 
ATOM      9  C   UNL     1       5.796   3.334  12.447  0.00  0.00    +0.000 A 
ATOM     10  C   UNL     1       5.401   2.358  11.342  0.00  0.00    +0.000 C 
ATOM     11  C   UNL     1       5.234   3.377  13.804  0.00  0.00    +0.000 A 
ATOM     12  C   UNL     1       5.849   4.190  14.773  0.00  0.00    +0.000 A 
ENDBRANCH   1   2
BRANCH   1  16
ATOM     13  C   UNL     1       2.153   6.163  20.056  0.00  0.00    +0.000 A 
ATOM     14  C   UNL     1       2.709   4.902  20.342  0.00  0.00    +0.000 A 
ATOM     15  C   UNL     1       3.590   4.251  19.437  0.00  0.00    +0.000 A 
ATOM     16  C   UNL     1       3.951   4.804  18.193  0.00  0.00    +0.000 A 
ATOM     17  C   UNL     1       3.434   6.108  17.952  0.00  0.00    +0.000 A 
ATOM     18  C   UNL     1       2.531   6.764  18.858  0.00  0.00    +0.000 A 
BRANCH  13  19
ATOM     19  O   UNL     1       1.287   6.861  20.873  0.00  0.00    +0.000 OA
BRANCH  19  20
ATOM     20  C   UNL     1       1.436   8.290  20.936  0.00  0.00    +0.000 C 
BRANCH  20  21
ATOM     21  C   UNL     1       0.085   9.045  20.947  0.00  0.00    +0.000 C 
BRANCH  21  23
ATOM     22  C   UNL     1      -0.846  10.352  18.980  0.00  0.00    +0.000 C 
ATOM     23  C   UNL     1       0.099  10.376  20.207  0.00  0.00    +0.000 C 
ENDBRANCH  21  23
ENDBRANCH  20  21
ENDBRANCH  19  20
ENDBRANCH  13  19
ENDBRANCH   1  16
TORSDOF 6
ENDMDL
MODEL 6
REMARK VINA RESULT:      -7.5      1.557      1.977
REMARK  Name = 
REMARK  8 active torsions:
REMARK  status: ('A' for Active; 'I' for Inactive)
REMARK    1  A    between atoms: C_1  and  C_2
REMARK    2  A    between atoms: C_2  and  C_3
REMARK    3  A    between atoms: C_3  and  C_4
REMARK    4  A    between atoms: C_4  and  O_5
REMARK    5  A    between atoms: O_5  and  C_6
REMARK    6  A    between atoms: C_9  and  C_10
REMARK    7  A    between atoms: C_10  and  N_11
REMARK    8  A    between atoms: C_18  and  C_19
REMARK                            x       y       z     vdW  Elec       q    Type
REMARK                         _______ _______ _______ _____ _____    ______ ____
ROOT
ATOM      1  C   UNL     1       4.903   5.040  17.144  0.00  0.00    +0.000 C 
ENDROOT
BRANCH   1   2
ATOM      2  N   UNL     1       5.700   5.067  15.915  0.00  0.00    +0.000 N 
ATOM      3  C   UNL     1       7.041   5.417  16.236  0.00  0.00    +0.000 A 
ATOM      4  O   UNL     1       7.537   5.417  17.359  0.00  0.00    +0.000 OA
ATOM      5  O   UNL     1       7.764   5.751  15.117  0.00  0.00    +0.000 OA
ATOM      6  C   UNL     1       7.039   5.113  14.157  0.00  0.00    +0.000 A 
ATOM      7  C   UNL     1       7.643   4.942  12.929  0.00  0.00    +0.000 A 
ATOM      8  C   UNL     1       7.084   4.058  12.047  0.00  0.00    +0.000 A 
ATOM      9  C   UNL     1       5.929   3.354  12.426  0.00  0.00    +0.000 A 
ATOM     10  C   UNL     1       5.566   2.242  11.445  0.00  0.00    +0.000 C 
ATOM     11  C   UNL     1       5.248   3.644  13.694  0.00  0.00    +0.000 A 
ATOM     12  C   UNL     1       5.830   4.561  14.589  0.00  0.00    +0.000 A 
ENDBRANCH   1   2
BRANCH   1  16
ATOM     13  C   UNL     1       2.168   7.940  19.098  0.00  0.00    +0.000 A 
ATOM     14  C   UNL     1       2.844   8.217  17.896  0.00  0.00    +0.000 A 
ATOM     15  C   UNL     1       3.796   7.314  17.348  0.00  0.00    +0.000 A 
ATOM     16  C   UNL     1       4.142   6.100  17.971  0.00  0.00    +0.000 A 
ATOM     17  C   UNL     1       3.397   5.805  19.148  0.00  0.00    +0.000 A 
ATOM     18  C   UNL     1       2.445   6.721  19.714  0.00  0.00    +0.000 A 
BRANCH  13  19
ATOM     19  O   UNL     1       1.237   8.760  19.702  0.00  0.00    +0.000 OA
BRANCH  19  20
ATOM     20  C   UNL     1       0.496   9.662  18.860  0.00  0.00    +0.000 C 
BRANCH  20  21
ATOM     21  C   UNL     1      -0.474  10.573  19.648  0.00  0.00    +0.000 C 
BRANCH  21  23
ATOM     22  C   UNL     1      -2.288  10.442  17.876  0.00  0.00    +0.000 C 
ATOM     23  C   UNL     1      -1.439  11.370  18.780  0.00  0.00    +0.000 C 
ENDBRANCH  21  23
ENDBRANCH  20  21
ENDBRANCH  19  20
ENDBRANCH  13  19
ENDBRANCH   1  16
TORSDOF 6
ENDMDL
MODEL 7
REMARK VINA RESULT:      -7.4      1.228      1.754
REMARK  Name = 
REMARK  8 active torsions:
REMARK  status: ('A' for Active; 'I' for Inactive)
REMARK    1  A    between atoms: C_1  and  C_2
REMARK    2  A    between atoms: C_2  and  C_3
REMARK    3  A    between atoms: C_3  and  C_4
REMARK    4  A    between atoms: C_4  and  O_5
REMARK    5  A    between atoms: O_5  and  C_6
REMARK    6  A    between atoms: C_9  and  C_10
REMARK    7  A    between atoms: C_10  and  N_11
REMARK    8  A    between atoms: C_18  and  C_19
REMARK                            x       y       z     vdW  Elec       q    Type
REMARK                         _______ _______ _______ _____ _____    ______ ____
ROOT
ATOM      1  C   UNL     1       5.051   4.276  17.380  0.00  0.00    +0.000 C 
ENDROOT
BRANCH   1   2
ATOM      2  N   UNL     1       5.761   4.531  16.125  0.00  0.00    +0.000 N 
ATOM      3  C   UNL     1       7.087   4.955  16.416  0.00  0.00    +0.000 A 
ATOM      4  O   UNL     1       7.655   4.856  17.500  0.00  0.00    +0.000 OA
ATOM      5  O   UNL     1       7.705   5.493  15.313  0.00  0.00    +0.000 OA
ATOM      6  C   UNL     1       6.973   4.921  14.317  0.00  0.00    +0.000 A 
ATOM      7  C   UNL     1       7.507   4.963  13.047  0.00  0.00    +0.000 A 
ATOM      8  C   UNL     1       6.965   4.154  12.086  0.00  0.00    +0.000 A 
ATOM      9  C   UNL     1       5.899   3.306  12.431  0.00  0.00    +0.000 A 
ATOM     10  C   UNL     1       5.563   2.301  11.332  0.00  0.00    +0.000 C 
ATOM     11  C   UNL     1       5.281   3.370  13.762  0.00  0.00    +0.000 A 
ATOM     12  C   UNL     1       5.844   4.212  14.738  0.00  0.00    +0.000 A 
ENDBRANCH   1   2
BRANCH   1  16
ATOM     13  C   UNL     1       2.153   6.521  19.885  0.00  0.00    +0.000 A 
ATOM     14  C   UNL     1       2.549   6.948  18.604  0.00  0.00    +0.000 A 
ATOM     15  C   UNL     1       3.558   6.269  17.868  0.00  0.00    +0.000 A 
ATOM     16  C   UNL     1       4.241   5.145  18.369  0.00  0.00    +0.000 A 
ATOM     17  C   UNL     1       3.779   4.686  19.635  0.00  0.00    +0.000 A 
ATOM     18  C   UNL     1       2.770   5.378  20.389  0.00  0.00    +0.000 A 
BRANCH  13  19
ATOM     19  O   UNL     1       1.190   7.123  20.669  0.00  0.00    +0.000 OA
BRANCH  19  20
ATOM     20  C   UNL     1       1.438   8.469  21.113  0.00  0.00    +0.000 C 
BRANCH  20  21
ATOM     21  C   UNL     1       0.351   9.471  20.656  0.00  0.00    +0.000 C 
BRANCH  21  23
ATOM     22  C   UNL     1      -0.882  10.380  18.632  0.00  0.00    +0.000 C 
ATOM     23  C   UNL     1       0.483   9.932  19.211  0.00  0.00    +0.000 C 
ENDBRANCH  21  23
ENDBRANCH  20  21
ENDBRANCH  19  20
ENDBRANCH  13  19
ENDBRANCH   1  16
TORSDOF 6
ENDMDL
MODEL 8
REMARK VINA RESULT:      -7.3      1.577      2.136
REMARK  Name = 
REMARK  8 active torsions:
REMARK  status: ('A' for Active; 'I' for Inactive)
REMARK    1  A    between atoms: C_1  and  C_2
REMARK    2  A    between atoms: C_2  and  C_3
REMARK    3  A    between atoms: C_3  and  C_4
REMARK    4  A    between atoms: C_4  and  O_5
REMARK    5  A    between atoms: O_5  and  C_6
REMARK    6  A    between atoms: C_9  and  C_10
REMARK    7  A    between atoms: C_10  and  N_11
REMARK    8  A    between atoms: C_18  and  C_19
REMARK                            x       y       z     vdW  Elec       q    Type
REMARK                         _______ _______ _______ _____ _____    ______ ____
ROOT
ATOM      1  C   UNL     1       4.582   5.024  17.063  0.00  0.00    +0.000 C 
ENDROOT
BRANCH   1   2
ATOM      2  N   UNL     1       5.473   5.045  15.900  0.00  0.00    +0.000 N 
ATOM      3  C   UNL     1       6.793   5.355  16.328  0.00  0.00    +0.000 A 
ATOM      4  O   UNL     1       7.201   5.329  17.486  0.00  0.00    +0.000 OA
ATOM      5  O   UNL     1       7.609   5.683  15.273  0.00  0.00    +0.000 OA
ATOM      6  C   UNL     1       6.946   5.076  14.251  0.00  0.00    +0.000 A 
ATOM      7  C   UNL     1       7.638   4.904  13.072  0.00  0.00    +0.000 A 
ATOM      8  C   UNL     1       7.127   4.046  12.137  0.00  0.00    +0.000 A 
ATOM      9  C   UNL     1       5.929   3.367  12.415  0.00  0.00    +0.000 A 
ATOM     10  C   UNL     1       5.615   2.278  11.395  0.00  0.00    +0.000 C 
ATOM     11  C   UNL     1       5.159   3.661  13.631  0.00  0.00    +0.000 A 
ATOM     12  C   UNL     1       5.692   4.551  14.581  0.00  0.00    +0.000 A 
ENDBRANCH   1   2
BRANCH   1  16
ATOM     13  C   UNL     1       2.104   8.015  19.214  0.00  0.00    +0.000 A 
ATOM     14  C   UNL     1       2.717   8.278  17.975  0.00  0.00    +0.000 A 
ATOM     15  C   UNL     1       3.591   7.342  17.359  0.00  0.00    +0.000 A 
ATOM     16  C   UNL     1       3.922   6.106  17.947  0.00  0.00    +0.000 A 
ATOM     17  C   UNL     1       3.239   5.827  19.165  0.00  0.00    +0.000 A 
ATOM     18  C   UNL     1       2.365   6.777  19.799  0.00  0.00    +0.000 A 
BRANCH  13  19
ATOM     19  O   UNL     1       1.250   8.867  19.884  0.00  0.00    +0.000 OA
BRANCH  19  20
ATOM     20  C   UNL     1       0.646   9.933  19.130  0.00  0.00    +0.000 C 
BRANCH  20  21
ATOM     21  C   UNL     1       0.845  11.325  19.777  0.00  0.00    +0.000 C 
BRANCH  21  23
ATOM     22  C   UNL     1       2.469  12.387  18.141  0.00  0.00    +0.000 C 
ATOM     23  C   UNL     1       1.062  12.459  18.784  0.00  0.00    +0.000 C 
ENDBRANCH  21  23
ENDBRANCH  20  21
ENDBRANCH  19  20
ENDBRANCH  13  19
ENDBRANCH   1  16
TORSDOF 6
ENDMDL
MODEL 9
REMARK VINA RESULT:      -7.3      4.115      8.950
REMARK  Name = 
REMARK  8 active torsions:
REMARK  status: ('A' for Active; 'I' for Inactive)
REMARK    1  A    between atoms: C_1  and  C_2
REMARK    2  A    between atoms: C_2  and  C_3
REMARK    3  A    between atoms: C_3  and  C_4
REMARK    4  A    between atoms: C_4  and  O_5
REMARK    5  A    between atoms: O_5  and  C_6
REMARK    6  A    between atoms: C_9  and  C_10
REMARK    7  A    between atoms: C_10  and  N_11
REMARK    8  A    between atoms: C_18  and  C_19
REMARK                            x       y       z     vdW  Elec       q    Type
REMARK                         _______ _______ _______ _____ _____    ______ ____
ROOT
ATOM      1  C   UNL     1       1.105   9.536  19.522  0.00  0.00    +0.000 C 
ENDROOT
BRANCH   1   2
ATOM      2  N   UNL     1      -0.199  10.147  19.252  0.00  0.00    +0.000 N 
ATOM      3  C   UNL     1      -0.318  11.347  20.006  0.00  0.00    +0.000 A 
ATOM      4  O   UNL     1       0.599  11.942  20.565  0.00  0.00    +0.000 OA
ATOM      5  O   UNL     1      -1.612  11.807  20.034  0.00  0.00    +0.000 OA
ATOM      6  C   UNL     1      -2.110  11.207  18.918  0.00  0.00    +0.000 A 
ATOM      7  C   UNL     1      -3.302  11.694  18.426  0.00  0.00    +0.000 A 
ATOM      8  C   UNL     1      -3.681  11.333  17.162  0.00  0.00    +0.000 A 
ATOM      9  C   UNL     1      -2.840  10.493  16.411  0.00  0.00    +0.000 A 
ATOM     10  C   UNL     1      -3.271  10.375  14.953  0.00  0.00    +0.000 C 
ATOM     11  C   UNL     1      -1.635   9.901  17.008  0.00  0.00    +0.000 A 
ATOM     12  C   UNL     1      -1.262  10.275  18.311  0.00  0.00    +0.000 A 
ENDBRANCH   1   2
BRANCH   1  16
ATOM     13  C   UNL     1       3.777   6.197  18.330  0.00  0.00    +0.000 A 
ATOM     14  C   UNL     1       3.551   7.323  17.517  0.00  0.00    +0.000 A 
ATOM     15  C   UNL     1       2.610   8.326  17.875  0.00  0.00    +0.000 A 
ATOM     16  C   UNL     1       1.828   8.256  19.043  0.00  0.00    +0.000 A 
ATOM     17  C   UNL     1       2.119   7.147  19.886  0.00  0.00    +0.000 A 
ATOM     18  C   UNL     1       3.059   6.122  19.522  0.00  0.00    +0.000 A 
BRANCH  13  19
ATOM     19  O   UNL     1       4.664   5.176  18.057  0.00  0.00    +0.000 OA
BRANCH  19  20
ATOM     20  C   UNL     1       4.405   3.891  18.649  0.00  0.00    +0.000 C 
BRANCH  20  21
ATOM     21  C   UNL     1       3.666   2.919  17.697  0.00  0.00    +0.000 C 
BRANCH  21  23
ATOM     22  C   UNL     1       1.243   3.167  18.413  0.00  0.00    +0.000 C 
ATOM     23  C   UNL     1       2.464   2.219  18.317  0.00  0.00    +0.000 C 
ENDBRANCH  21  23
ENDBRANCH  20  21
ENDBRANCH  19  20
ENDBRANCH  13  19
ENDBRANCH   1  16
TORSDOF 6
ENDMDL
