MODEL 1
REMARK VINA RESULT:      -8.2      0.000      0.000
REMARK  Name = 
REMARK  6 active torsions:
REMARK  status: ('A' for Active; 'I' for Inactive)
REMARK    1  A    between atoms: C_1  and  C_2
REMARK    2  A    between atoms: C_2  and  C_3
REMARK    3  A    between atoms: C_4  and  C_5
REMARK    4  A    between atoms: N_7  and  C_8
REMARK    5  A    between atoms: C_19  and  C_20
REMARK    6  A    between atoms: N_21  and  C_22
REMARK                            x       y       z     vdW  Elec       q    Type
REMARK                         _______ _______ _______ _____ _____    ______ ____
ROOT
ATOM      1  C   UNL     1       0.998   9.821  19.689  0.00  0.00    +0.000 A 
ATOM      2  C   UNL     1       1.484   8.585  20.159  0.00  0.00    +0.000 A 
ATOM      3  N   UNL     1       1.240   8.475  21.516  0.00  0.00    +0.000 NA
ATOM      4  C   UNL     1       0.532   9.525  21.865  0.00  0.00    +0.000 A 
ATOM      5  C   UNL     1      -0.124   9.644  23.200  0.00  0.00    +0.000 C 
ATOM      6  N   UNL     1       0.370  10.425  20.809  0.00  0.00    +0.000 N 
ENDROOT
BRANCH   6   7
ATOM      7  C   UNL     1      -0.322  11.695  20.893  0.00  0.00    +0.000 A 
ATOM      8  C   UNL     1      -1.649  11.816  20.444  0.00  0.00    +0.000 A 
ATOM      9  C   UNL     1      -2.311  13.049  20.424  0.00  0.00    +0.000 A 
ATOM     10  C   UNL     1      -1.681  14.181  20.920  0.00  0.00    +0.000 A 
ATOM     11  C   UNL     1      -0.378  14.080  21.399  0.00  0.00    +0.000 A 
ATOM     12  C   UNL     1       0.305  12.854  21.361  0.00  0.00    +0.000 A 
ENDBRANCH   6   7
BRANCH   2  13
ATOM     13  C   UNL     1       2.159   7.470  19.431  0.00  0.00    +0.000 C 
ATOM     14  O   UNL     1       2.829   7.668  18.430  0.00  0.00    +0.000 OA
ATOM     15  N   UNL     1       1.929   6.198  19.955  0.00  0.00    +0.000 N 
ATOM     16  H   UNL     1       1.374   6.169  20.803  0.00  0.00    +0.000 HD
BRANCH  15  17
ATOM     17  C   UNL     1       2.502   4.950  19.395  0.00  0.00    +0.000 C 
ATOM     18  C   UNL     1       4.052   4.994  19.430  0.00  0.00    +0.000 C 
ATOM     19  C   UNL     1       4.662   3.712  18.836  0.00  0.00    +0.000 C 
ATOM     20  C   UNL     1       4.204   2.498  19.660  0.00  0.00    +0.000 C 
ATOM     21  C   UNL     1       2.671   2.399  19.630  0.00  0.00    +0.000 C 
ATOM     22  C   UNL     1       2.208   2.225  18.174  0.00  0.00    +0.000 C 
ATOM     23  C   UNL     1       2.650   3.438  17.343  0.00  0.00    +0.000 C 
ATOM     24  C   UNL     1       4.185   3.544  17.384  0.00  0.00    +0.000 C 
ATOM     25  C   UNL     1       2.034   4.719  17.933  0.00  0.00    +0.000 C 
ATOM     26  C   UNL     1       2.058   3.695  20.214  0.00  0.00    +0.000 C 
ENDBRANCH  15  17
ENDBRANCH   2  13
BRANCH   1  28
ATOM     27  C   UNL     1       2.192  11.666  18.289  0.00  0.00    +0.000 C 
ATOM     28  C   UNL     1       1.162  10.555  18.375  0.00  0.00    +0.000 C 
ENDBRANCH   1  28
TORSDOF 4
ENDMDL
MODEL 2
REMARK VINA RESULT:      -8.1      0.032      1.455
REMARK  Name = 
REMARK  6 active torsions:
REMARK  status: ('A' for Active; 'I' for Inactive)
REMARK    1  A    between atoms: C_1  and  C_2
REMARK    2  A    between atoms: C_2  and  C_3
REMARK    3  A    between atoms: C_4  and  C_5
REMARK    4  A    between atoms: N_7  and  C_8
REMARK    5  A    between atoms: C_19  and  C_20
REMARK    6  A    between atoms: N_21  and  C_22
REMARK                            x       y       z     vdW  Elec       q    Type
REMARK                         _______ _______ _______ _____ _____    ______ ____
ROOT
ATOM      1  C   UNL     1       1.010   9.814  19.695  0.00  0.00    +0.000 A 
ATOM      2  C   UNL     1       1.498   8.580  20.166  0.00  0.00    +0.000 A 
ATOM      3  N   UNL     1       1.249   8.468  21.521  0.00  0.00    +0.000 NA
ATOM      4  C   UNL     1       0.534   9.515  21.868  0.00  0.00    +0.000 A 
ATOM      5  C   UNL     1      -0.129   9.631  23.200  0.00  0.00    +0.000 C 
ATOM      6  N   UNL     1       0.374  10.414  20.812  0.00  0.00    +0.000 N 
ENDROOT
BRANCH   6   7
ATOM      7  C   UNL     1      -0.324  11.682  20.893  0.00  0.00    +0.000 A 
ATOM      8  C   UNL     1      -1.642  11.803  20.417  0.00  0.00    +0.000 A 
ATOM      9  C   UNL     1      -2.307  13.034  20.394  0.00  0.00    +0.000 A 
ATOM     10  C   UNL     1      -1.691  14.163  20.914  0.00  0.00    +0.000 A 
ATOM     11  C   UNL     1      -0.399  14.062  21.420  0.00  0.00    +0.000 A 
ATOM     12  C   UNL     1       0.289  12.838  21.385  0.00  0.00    +0.000 A 
ENDBRANCH   6   7
BRANCH   2  13
ATOM     13  C   UNL     1       2.182   7.468  19.441  0.00  0.00    +0.000 C 
ATOM     14  O   UNL     1       2.875   7.673  18.456  0.00  0.00    +0.000 OA
ATOM     15  N   UNL     1       1.934   6.192  19.947  0.00  0.00    +0.000 N 
ATOM     16  H   UNL     1       1.360   6.158  20.783  0.00  0.00    +0.000 HD
BRANCH  15  17
ATOM     17  C   UNL     1       2.510   4.946  19.386  0.00  0.00    +0.000 C 
ATOM     18  C   UNL     1       2.030   3.709  20.191  0.00  0.00    +0.000 C 
ATOM     19  C   UNL     1       2.634   2.410  19.631  0.00  0.00    +0.000 C 
ATOM     20  C   UNL     1       2.191   2.226  18.172  0.00  0.00    +0.000 C 
ATOM     21  C   UNL     1       2.670   3.418  17.330  0.00  0.00    +0.000 C 
ATOM     22  C   UNL     1       4.205   3.488  17.386  0.00  0.00    +0.000 C 
ATOM     23  C   UNL     1       4.660   3.682  18.840  0.00  0.00    +0.000 C 
ATOM     24  C   UNL     1       4.169   2.494  19.685  0.00  0.00    +0.000 C 
ATOM     25  C   UNL     1       4.063   4.986  19.397  0.00  0.00    +0.000 C 
ATOM     26  C   UNL     1       2.074   4.728  17.902  0.00  0.00    +0.000 C 
ENDBRANCH  15  17
ENDBRANCH   2  13
BRANCH   1  28
ATOM     27  C   UNL     1       2.167  11.697  18.315  0.00  0.00    +0.000 C 
ATOM     28  C   UNL     1       1.177  10.550  18.382  0.00  0.00    +0.000 C 
ENDBRANCH   1  28
TORSDOF 4
ENDMDL
MODEL 3
REMARK VINA RESULT:      -8.1      0.049      1.456
REMARK  Name = 
REMARK  6 active torsions:
REMARK  status: ('A' for Active; 'I' for Inactive)
REMARK    1  A    between atoms: C_1  and  C_2
REMARK    2  A    between atoms: C_2  and  C_3
REMARK    3  A    between atoms: C_4  and  C_5
REMARK    4  A    between atoms: N_7  and  C_8
REMARK    5  A    between atoms: C_19  and  C_20
REMARK    6  A    between atoms: N_21  and  C_22
REMARK                            x       y       z     vdW  Elec       q    Type
REMARK                         _______ _______ _______ _____ _____    ______ ____
ROOT
ATOM      1  C   UNL     1       0.977   9.840  19.720  0.00  0.00    +0.000 A 
ATOM      2  C   UNL     1       1.465   8.605  20.189  0.00  0.00    +0.000 A 
ATOM      3  N   UNL     1       1.224   8.495  21.546  0.00  0.00    +0.000 NA
ATOM      4  C   UNL     1       0.513   9.543  21.896  0.00  0.00    +0.000 A 
ATOM      5  C   UNL     1      -0.142   9.661  23.232  0.00  0.00    +0.000 C 
ATOM      6  N   UNL     1       0.348  10.442  20.840  0.00  0.00    +0.000 N 
ENDROOT
BRANCH   6   7
ATOM      7  C   UNL     1      -0.347  11.711  20.924  0.00  0.00    +0.000 A 
ATOM      8  C   UNL     1      -1.677  11.827  20.482  0.00  0.00    +0.000 A 
ATOM      9  C   UNL     1      -2.341  13.059  20.462  0.00  0.00    +0.000 A 
ATOM     10  C   UNL     1      -1.712  14.193  20.952  0.00  0.00    +0.000 A 
ATOM     11  C   UNL     1      -0.407  14.097  21.426  0.00  0.00    +0.000 A 
ATOM     12  C   UNL     1       0.279  12.872  21.388  0.00  0.00    +0.000 A 
ENDBRANCH   6   7
BRANCH   2  13
ATOM     13  C   UNL     1       2.143   7.492  19.461  0.00  0.00    +0.000 C 
ATOM     14  O   UNL     1       2.797   7.689  18.449  0.00  0.00    +0.000 OA
ATOM     15  N   UNL     1       1.934   6.221  19.998  0.00  0.00    +0.000 N 
ATOM     16  H   UNL     1       1.390   6.193  20.854  0.00  0.00    +0.000 HD
BRANCH  15  17
ATOM     17  C   UNL     1       2.512   4.975  19.440  0.00  0.00    +0.000 C 
ATOM     18  C   UNL     1       2.052   4.765  17.973  0.00  0.00    +0.000 C 
ATOM     19  C   UNL     1       2.630   3.467  17.386  0.00  0.00    +0.000 C 
ATOM     20  C   UNL     1       4.165   3.539  17.395  0.00  0.00    +0.000 C 
ATOM     21  C   UNL     1       4.667   3.719  18.836  0.00  0.00    +0.000 C 
ATOM     22  C   UNL     1       4.214   2.516  19.679  0.00  0.00    +0.000 C 
ATOM     23  C   UNL     1       2.681   2.439  19.686  0.00  0.00    +0.000 C 
ATOM     24  C   UNL     1       2.177   2.272  18.241  0.00  0.00    +0.000 C 
ATOM     25  C   UNL     1       2.102   3.735  20.281  0.00  0.00    +0.000 C 
ATOM     26  C   UNL     1       4.074   5.018  19.432  0.00  0.00    +0.000 C 
ENDBRANCH  15  17
ENDBRANCH   2  13
BRANCH   1  28
ATOM     27  C   UNL     1       2.161  11.690  18.320  0.00  0.00    +0.000 C 
ATOM     28  C   UNL     1       1.138  10.574  18.406  0.00  0.00    +0.000 C 
ENDBRANCH   1  28
TORSDOF 4
ENDMDL
MODEL 4
REMARK VINA RESULT:      -7.6      1.350      2.712
REMARK  Name = 
REMARK  6 active torsions:
REMARK  status: ('A' for Active; 'I' for Inactive)
REMARK    1  A    between atoms: C_1  and  C_2
REMARK    2  A    between atoms: C_2  and  C_3
REMARK    3  A    between atoms: C_4  and  C_5
REMARK    4  A    between atoms: N_7  and  C_8
REMARK    5  A    between atoms: C_19  and  C_20
REMARK    6  A    between atoms: N_21  and  C_22
REMARK                            x       y       z     vdW  Elec       q    Type
REMARK                         _______ _______ _______ _____ _____    ______ ____
ROOT
ATOM      1  C   UNL     1       0.462   9.507  20.493  0.00  0.00    +0.000 A 
ATOM      2  C   UNL     1       1.397   8.972  19.586  0.00  0.00    +0.000 A 
ATOM      3  N   UNL     1       1.719   9.923  18.635  0.00  0.00    +0.000 NA
ATOM      4  C   UNL     1       1.119  11.038  18.988  0.00  0.00    +0.000 A 
ATOM      5  C   UNL     1       1.415  12.350  18.342  0.00  0.00    +0.000 C 
ATOM      6  N   UNL     1       0.293  10.859  20.100  0.00  0.00    +0.000 N 
ENDROOT
BRANCH   6   7
ATOM      7  C   UNL     1      -0.535  11.887  20.699  0.00  0.00    +0.000 A 
ATOM      8  C   UNL     1      -0.045  12.671  21.759  0.00  0.00    +0.000 A 
ATOM      9  C   UNL     1      -0.853  13.605  22.419  0.00  0.00    +0.000 A 
ATOM     10  C   UNL     1      -2.151  13.826  21.986  0.00  0.00    +0.000 A 
ATOM     11  C   UNL     1      -2.648  13.085  20.918  0.00  0.00    +0.000 A 
ATOM     12  C   UNL     1      -1.857  12.105  20.297  0.00  0.00    +0.000 A 
ENDBRANCH   6   7
BRANCH   2  13
ATOM     13  C   UNL     1       2.037   7.624  19.536  0.00  0.00    +0.000 C 
ATOM     14  O   UNL     1       1.867   6.799  20.419  0.00  0.00    +0.000 OA
ATOM     15  N   UNL     1       2.868   7.405  18.437  0.00  0.00    +0.000 N 
ATOM     16  H   UNL     1       2.907   8.161  17.762  0.00  0.00    +0.000 HD
BRANCH  15  17
ATOM     17  C   UNL     1       3.600   6.140  18.185  0.00  0.00    +0.000 C 
ATOM     18  C   UNL     1       4.647   6.329  17.055  0.00  0.00    +0.000 C 
ATOM     19  C   UNL     1       5.404   5.020  16.770  0.00  0.00    +0.000 C 
ATOM     20  C   UNL     1       6.150   4.573  18.037  0.00  0.00    +0.000 C 
ATOM     21  C   UNL     1       5.145   4.347  19.177  0.00  0.00    +0.000 C 
ATOM     22  C   UNL     1       4.152   3.248  18.761  0.00  0.00    +0.000 C 
ATOM     23  C   UNL     1       3.394   3.689  17.502  0.00  0.00    +0.000 C 
ATOM     24  C   UNL     1       4.401   3.928  16.363  0.00  0.00    +0.000 C 
ATOM     25  C   UNL     1       2.630   4.993  17.789  0.00  0.00    +0.000 C 
ATOM     26  C   UNL     1       4.373   5.660  19.455  0.00  0.00    +0.000 C 
ENDBRANCH  15  17
ENDBRANCH   2  13
BRANCH   1  28
ATOM     27  C   UNL     1      -0.100   9.265  23.026  0.00  0.00    +0.000 C 
ATOM     28  C   UNL     1      -0.381   8.882  21.585  0.00  0.00    +0.000 C 
ENDBRANCH   1  28
TORSDOF 4
ENDMDL
MODEL 5
REMARK VINA RESULT:      -7.6      1.252      2.412
REMARK  Name = 
REMARK  6 active torsions:
REMARK  status: ('A' for Active; 'I' for Inactive)
REMARK    1  A    between atoms: C_1  and  C_2
REMARK    2  A    between atoms: C_2  and  C_3
REMARK    3  A    between atoms: C_4  and  C_5
REMARK    4  A    between atoms: N_7  and  C_8
REMARK    5  A    between atoms: C_19  and  C_20
REMARK    6  A    between atoms: N_21  and  C_22
REMARK                            x       y       z     vdW  Elec       q    Type
REMARK                         _______ _______ _______ _____ _____    ______ ____
ROOT
ATOM      1  C   UNL     1       0.927   9.388  19.809  0.00  0.00    +0.000 A 
ATOM      2  C   UNL     1       1.338   8.260  20.546  0.00  0.00    +0.000 A 
ATOM      3  N   UNL     1       1.041   8.445  21.884  0.00  0.00    +0.000 NA
ATOM      4  C   UNL     1       0.369   9.570  21.976  0.00  0.00    +0.000 A 
ATOM      5  C   UNL     1      -0.329   9.990  23.227  0.00  0.00    +0.000 C 
ATOM      6  N   UNL     1       0.287  10.235  20.750  0.00  0.00    +0.000 N 
ENDROOT
BRANCH   6   7
ATOM      7  C   UNL     1      -0.349  11.519  20.538  0.00  0.00    +0.000 A 
ATOM      8  C   UNL     1       0.332  12.712  20.837  0.00  0.00    +0.000 A 
ATOM      9  C   UNL     1      -0.290  13.962  20.733  0.00  0.00    +0.000 A 
ATOM     10  C   UNL     1      -1.589  14.051  20.258  0.00  0.00    +0.000 A 
ATOM     11  C   UNL     1      -2.274  12.887  19.925  0.00  0.00    +0.000 A 
ATOM     12  C   UNL     1      -1.669  11.630  20.089  0.00  0.00    +0.000 A 
ENDBRANCH   6   7
BRANCH   2  13
ATOM     13  C   UNL     1       1.988   6.993  20.096  0.00  0.00    +0.000 C 
ATOM     14  O   UNL     1       1.753   5.923  20.635  0.00  0.00    +0.000 OA
ATOM     15  N   UNL     1       2.904   7.137  19.054  0.00  0.00    +0.000 N 
ATOM     16  H   UNL     1       2.992   8.075  18.677  0.00  0.00    +0.000 HD
BRANCH  15  17
ATOM     17  C   UNL     1       3.662   6.015  18.449  0.00  0.00    +0.000 C 
ATOM     18  C   UNL     1       2.697   4.999  17.781  0.00  0.00    +0.000 C 
ATOM     19  C   UNL     1       3.468   3.820  17.164  0.00  0.00    +0.000 C 
ATOM     20  C   UNL     1       4.426   4.344  16.083  0.00  0.00    +0.000 C 
ATOM     21  C   UNL     1       5.420   5.336  16.707  0.00  0.00    +0.000 C 
ATOM     22  C   UNL     1       6.232   4.615  17.795  0.00  0.00    +0.000 C 
ATOM     23  C   UNL     1       5.286   4.095  18.887  0.00  0.00    +0.000 C 
ATOM     24  C   UNL     1       4.283   3.112  18.259  0.00  0.00    +0.000 C 
ATOM     25  C   UNL     1       4.521   5.276  19.510  0.00  0.00    +0.000 C 
ATOM     26  C   UNL     1       4.643   6.515  17.341  0.00  0.00    +0.000 C 
ENDBRANCH  15  17
ENDBRANCH   2  13
BRANCH   1  28
ATOM     27  C   UNL     1       2.240  10.868  18.114  0.00  0.00    +0.000 C 
ATOM     28  C   UNL     1       1.171   9.825  18.380  0.00  0.00    +0.000 C 
ENDBRANCH   1  28
TORSDOF 4
ENDMDL
MODEL 6
REMARK VINA RESULT:      -7.6      1.250      1.960
REMARK  Name = 
REMARK  6 active torsions:
REMARK  status: ('A' for Active; 'I' for Inactive)
REMARK    1  A    between atoms: C_1  and  C_2
REMARK    2  A    between atoms: C_2  and  C_3
REMARK    3  A    between atoms: C_4  and  C_5
REMARK    4  A    between atoms: N_7  and  C_8
REMARK    5  A    between atoms: C_19  and  C_20
REMARK    6  A    between atoms: N_21  and  C_22
REMARK                            x       y       z     vdW  Elec       q    Type
REMARK                         _______ _______ _______ _____ _____    ______ ____
ROOT
ATOM      1  C   UNL     1       0.918   9.388  19.811  0.00  0.00    +0.000 A 
ATOM      2  C   UNL     1       1.331   8.261  20.547  0.00  0.00    +0.000 A 
ATOM      3  N   UNL     1       1.042   8.450  21.886  0.00  0.00    +0.000 NA
ATOM      4  C   UNL     1       0.372   9.577  21.980  0.00  0.00    +0.000 A 
ATOM      5  C   UNL     1      -0.317  10.001  23.234  0.00  0.00    +0.000 C 
ATOM      6  N   UNL     1       0.284  10.238  20.753  0.00  0.00    +0.000 N 
ENDROOT
BRANCH   6   7
ATOM      7  C   UNL     1      -0.351  11.523  20.542  0.00  0.00    +0.000 A 
ATOM      8  C   UNL     1       0.340  12.716  20.819  0.00  0.00    +0.000 A 
ATOM      9  C   UNL     1      -0.279  13.967  20.716  0.00  0.00    +0.000 A 
ATOM     10  C   UNL     1      -1.587  14.057  20.263  0.00  0.00    +0.000 A 
ATOM     11  C   UNL     1      -2.281  12.893  19.950  0.00  0.00    +0.000 A 
ATOM     12  C   UNL     1      -1.678  11.635  20.114  0.00  0.00    +0.000 A 
ENDBRANCH   6   7
BRANCH   2  13
ATOM     13  C   UNL     1       1.976   6.993  20.097  0.00  0.00    +0.000 C 
ATOM     14  O   UNL     1       1.737   5.923  20.634  0.00  0.00    +0.000 OA
ATOM     15  N   UNL     1       2.895   7.134  19.056  0.00  0.00    +0.000 N 
ATOM     16  H   UNL     1       2.987   8.072  18.681  0.00  0.00    +0.000 HD
BRANCH  15  17
ATOM     17  C   UNL     1       3.649   6.010  18.451  0.00  0.00    +0.000 C 
ATOM     18  C   UNL     1       4.461   5.249  19.532  0.00  0.00    +0.000 C 
ATOM     19  C   UNL     1       5.263   4.090  18.917  0.00  0.00    +0.000 C 
ATOM     20  C   UNL     1       4.297   3.091  18.260  0.00  0.00    +0.000 C 
ATOM     21  C   UNL     1       3.489   3.797  17.160  0.00  0.00    +0.000 C 
ATOM     22  C   UNL     1       4.457   4.338  16.095  0.00  0.00    +0.000 C 
ATOM     23  C   UNL     1       5.421   5.345  16.737  0.00  0.00    +0.000 C 
ATOM     24  C   UNL     1       6.221   4.641  17.848  0.00  0.00    +0.000 C 
ATOM     25  C   UNL     1       4.619   6.509  17.346  0.00  0.00    +0.000 C 
ATOM     26  C   UNL     1       2.694   4.973  17.778  0.00  0.00    +0.000 C 
ENDBRANCH  15  17
ENDBRANCH   2  13
BRANCH   1  28
ATOM     27  C   UNL     1       2.237  10.848  18.102  0.00  0.00    +0.000 C 
ATOM     28  C   UNL     1       1.155   9.821  18.379  0.00  0.00    +0.000 C 
ENDBRANCH   1  28
TORSDOF 4
ENDMDL
MODEL 7
REMARK VINA RESULT:      -7.6      1.348      3.080
REMARK  Name = 
REMARK  6 active torsions:
REMARK  status: ('A' for Active; 'I' for Inactive)
REMARK    1  A    between atoms: C_1  and  C_2
REMARK    2  A    between atoms: C_2  and  C_3
REMARK    3  A    between atoms: C_4  and  C_5
REMARK    4  A    between atoms: N_7  and  C_8
REMARK    5  A    between atoms: C_19  and  C_20
REMARK    6  A    between atoms: N_21  and  C_22
REMARK                            x       y       z     vdW  Elec       q    Type
REMARK                         _______ _______ _______ _____ _____    ______ ____
ROOT
ATOM      1  C   UNL     1       0.494   9.514  20.483  0.00  0.00    +0.000 A 
ATOM      2  C   UNL     1       1.419   8.976  19.566  0.00  0.00    +0.000 A 
ATOM      3  N   UNL     1       1.726   9.923  18.607  0.00  0.00    +0.000 NA
ATOM      4  C   UNL     1       1.129  11.039  18.963  0.00  0.00    +0.000 A 
ATOM      5  C   UNL     1       1.414  12.348  18.306  0.00  0.00    +0.000 C 
ATOM      6  N   UNL     1       0.318  10.865  20.086  0.00  0.00    +0.000 N 
ENDROOT
BRANCH   6   7
ATOM      7  C   UNL     1      -0.503  11.894  20.691  0.00  0.00    +0.000 A 
ATOM      8  C   UNL     1       0.001  12.687  21.737  0.00  0.00    +0.000 A 
ATOM      9  C   UNL     1      -0.799  13.623  22.404  0.00  0.00    +0.000 A 
ATOM     10  C   UNL     1      -2.105  13.837  21.990  0.00  0.00    +0.000 A 
ATOM     11  C   UNL     1      -2.617  13.087  20.935  0.00  0.00    +0.000 A 
ATOM     12  C   UNL     1      -1.832  12.106  20.309  0.00  0.00    +0.000 A 
ENDBRANCH   6   7
BRANCH   2  13
ATOM     13  C   UNL     1       2.060   7.629  19.515  0.00  0.00    +0.000 C 
ATOM     14  O   UNL     1       1.894   6.804  20.399  0.00  0.00    +0.000 OA
ATOM     15  N   UNL     1       2.887   7.411  18.413  0.00  0.00    +0.000 N 
ATOM     16  H   UNL     1       2.924   8.167  17.738  0.00  0.00    +0.000 HD
BRANCH  15  17
ATOM     17  C   UNL     1       3.621   6.147  18.159  0.00  0.00    +0.000 C 
ATOM     18  C   UNL     1       2.635   5.003  17.805  0.00  0.00    +0.000 C 
ATOM     19  C   UNL     1       3.380   3.680  17.555  0.00  0.00    +0.000 C 
ATOM     20  C   UNL     1       4.349   3.853  16.375  0.00  0.00    +0.000 C 
ATOM     21  C   UNL     1       5.364   4.961  16.695  0.00  0.00    +0.000 C 
ATOM     22  C   UNL     1       6.161   4.565  17.949  0.00  0.00    +0.000 C 
ATOM     23  C   UNL     1       5.204   4.399  19.138  0.00  0.00    +0.000 C 
ATOM     24  C   UNL     1       4.179   3.298  18.812  0.00  0.00    +0.000 C 
ATOM     25  C   UNL     1       4.464   5.724  19.393  0.00  0.00    +0.000 C 
ATOM     26  C   UNL     1       4.613   6.289  16.961  0.00  0.00    +0.000 C 
ENDBRANCH  15  17
ENDBRANCH   2  13
BRANCH   1  28
ATOM     27  C   UNL     1      -0.014   9.263  23.026  0.00  0.00    +0.000 C 
ATOM     28  C   UNL     1      -0.332   8.894  21.590  0.00  0.00    +0.000 C 
ENDBRANCH   1  28
TORSDOF 4
ENDMDL
MODEL 8
REMARK VINA RESULT:      -7.5      1.244      1.892
REMARK  Name = 
REMARK  6 active torsions:
REMARK  status: ('A' for Active; 'I' for Inactive)
REMARK    1  A    between atoms: C_1  and  C_2
REMARK    2  A    between atoms: C_2  and  C_3
REMARK    3  A    between atoms: C_4  and  C_5
REMARK    4  A    between atoms: N_7  and  C_8
REMARK    5  A    between atoms: C_19  and  C_20
REMARK    6  A    between atoms: N_21  and  C_22
REMARK                            x       y       z     vdW  Elec       q    Type
REMARK                         _______ _______ _______ _____ _____    ______ ____
ROOT
ATOM      1  C   UNL     1       0.881   9.412  19.816  0.00  0.00    +0.000 A 
ATOM      2  C   UNL     1       1.302   8.291  20.559  0.00  0.00    +0.000 A 
ATOM      3  N   UNL     1       1.024   8.492  21.898  0.00  0.00    +0.000 NA
ATOM      4  C   UNL     1       0.354   9.618  21.988  0.00  0.00    +0.000 A 
ATOM      5  C   UNL     1      -0.326  10.052  23.244  0.00  0.00    +0.000 C 
ATOM      6  N   UNL     1       0.254  10.269  20.756  0.00  0.00    +0.000 N 
ENDROOT
BRANCH   6   7
ATOM      7  C   UNL     1      -0.385  11.551  20.539  0.00  0.00    +0.000 A 
ATOM      8  C   UNL     1       0.317  12.748  20.771  0.00  0.00    +0.000 A 
ATOM      9  C   UNL     1      -0.303  13.998  20.662  0.00  0.00    +0.000 A 
ATOM     10  C   UNL     1      -1.624  14.082  20.248  0.00  0.00    +0.000 A 
ATOM     11  C   UNL     1      -2.329  12.913  19.981  0.00  0.00    +0.000 A 
ATOM     12  C   UNL     1      -1.724  11.658  20.151  0.00  0.00    +0.000 A 
ENDBRANCH   6   7
BRANCH   2  13
ATOM     13  C   UNL     1       1.945   7.020  20.114  0.00  0.00    +0.000 C 
ATOM     14  O   UNL     1       1.706   5.954  20.658  0.00  0.00    +0.000 OA
ATOM     15  N   UNL     1       2.861   7.155  19.070  0.00  0.00    +0.000 N 
ATOM     16  H   UNL     1       2.953   8.091  18.689  0.00  0.00    +0.000 HD
BRANCH  15  17
ATOM     17  C   UNL     1       3.613   6.027  18.469  0.00  0.00    +0.000 C 
ATOM     18  C   UNL     1       4.596   6.540  17.384  0.00  0.00    +0.000 C 
ATOM     19  C   UNL     1       5.372   5.378  16.739  0.00  0.00    +0.000 C 
ATOM     20  C   UNL     1       6.192   4.650  17.814  0.00  0.00    +0.000 C 
ATOM     21  C   UNL     1       5.253   4.100  18.899  0.00  0.00    +0.000 C 
ATOM     22  C   UNL     1       4.270   3.108  18.256  0.00  0.00    +0.000 C 
ATOM     23  C   UNL     1       3.437   3.827  17.186  0.00  0.00    +0.000 C 
ATOM     24  C   UNL     1       4.379   4.389  16.106  0.00  0.00    +0.000 C 
ATOM     25  C   UNL     1       2.655   4.984  17.833  0.00  0.00    +0.000 C 
ATOM     26  C   UNL     1       4.462   5.267  19.538  0.00  0.00    +0.000 C 
ENDBRANCH  15  17
ENDBRANCH   2  13
BRANCH   1  28
ATOM     27  C   UNL     1       2.243  10.788  18.072  0.00  0.00    +0.000 C 
ATOM     28  C   UNL     1       1.105   9.832  18.379  0.00  0.00    +0.000 C 
ENDBRANCH   1  28
TORSDOF 4
ENDMDL
MODEL 9
REMARK VINA RESULT:      -7.5      1.344      2.703
REMARK  Name = 
REMARK  6 active torsions:
REMARK  status: ('A' for Active; 'I' for Inactive)
REMARK    1  A    between atoms: C_1  and  C_2
REMARK    2  A    between atoms: C_2  and  C_3
REMARK    3  A    between atoms: C_4  and  C_5
REMARK    4  A    between atoms: N_7  and  C_8
REMARK    5  A    between atoms: C_19  and  C_20
REMARK    6  A    between atoms: N_21  and  C_22
REMARK                            x       y       z     vdW  Elec       q    Type
REMARK                         _______ _______ _______ _____ _____    ______ ____
ROOT
ATOM      1  C   UNL     1       0.382   9.586  20.622  0.00  0.00    +0.000 A 
ATOM      2  C   UNL     1       1.294   9.040  19.698  0.00  0.00    +0.000 A 
ATOM      3  N   UNL     1       1.595   9.980  18.730  0.00  0.00    +0.000 NA
ATOM      4  C   UNL     1       1.005  11.100  19.085  0.00  0.00    +0.000 A 
ATOM      5  C   UNL     1       1.287  12.404  18.418  0.00  0.00    +0.000 C 
ATOM      6  N   UNL     1       0.205  10.935  20.219  0.00  0.00    +0.000 N 
ENDROOT
BRANCH   6   7
ATOM      7  C   UNL     1      -0.606  11.970  20.826  0.00  0.00    +0.000 A 
ATOM      8  C   UNL     1      -0.119  12.711  21.918  0.00  0.00    +0.000 A 
ATOM      9  C   UNL     1      -0.915  13.650  22.585  0.00  0.00    +0.000 A 
ATOM     10  C   UNL     1      -2.196  13.921  22.128  0.00  0.00    +0.000 A 
ATOM     11  C   UNL     1      -2.688  13.224  21.028  0.00  0.00    +0.000 A 
ATOM     12  C   UNL     1      -1.911  12.239  20.400  0.00  0.00    +0.000 A 
ENDBRANCH   6   7
BRANCH   2  13
ATOM     13  C   UNL     1       1.931   7.690  19.648  0.00  0.00    +0.000 C 
ATOM     14  O   UNL     1       1.795   6.881  20.552  0.00  0.00    +0.000 OA
ATOM     15  N   UNL     1       2.717   7.450  18.520  0.00  0.00    +0.000 N 
ATOM     16  H   UNL     1       2.730   8.194  17.831  0.00  0.00    +0.000 HD
BRANCH  15  17
ATOM     17  C   UNL     1       3.438   6.180  18.263  0.00  0.00    +0.000 C 
ATOM     18  C   UNL     1       4.175   5.698  19.541  0.00  0.00    +0.000 C 
ATOM     19  C   UNL     1       4.942   4.390  19.284  0.00  0.00    +0.000 C 
ATOM     20  C   UNL     1       3.954   3.290  18.865  0.00  0.00    +0.000 C 
ATOM     21  C   UNL     1       3.220   3.714  17.583  0.00  0.00    +0.000 C 
ATOM     22  C   UNL     1       4.249   3.923  16.460  0.00  0.00    +0.000 C 
ATOM     23  C   UNL     1       5.236   5.027  16.864  0.00  0.00    +0.000 C 
ATOM     24  C   UNL     1       5.963   4.608  18.154  0.00  0.00    +0.000 C 
ATOM     25  C   UNL     1       4.470   6.338  17.113  0.00  0.00    +0.000 C 
ATOM     26  C   UNL     1       2.459   5.039  17.837  0.00  0.00    +0.000 C 
ENDBRANCH  15  17
ENDBRANCH   2  13
BRANCH   1  28
ATOM     27  C   UNL     1      -0.070   9.314  23.173  0.00  0.00    +0.000 C 
ATOM     28  C   UNL     1      -0.435   8.975  21.740  0.00  0.00    +0.000 C 
ENDBRANCH   1  28
TORSDOF 4
ENDMDL
