MODEL 1
REMARK VINA RESULT:      -8.0      0.000      0.000
REMARK  Name = 
REMARK  8 active torsions:
REMARK  status: ('A' for Active; 'I' for Inactive)
REMARK    1  A    between atoms: C_1  and  C_2
REMARK    2  A    between atoms: C_2  and  O_3
REMARK    3  A    between atoms: O_3  and  C_4
REMARK    4  A    between atoms: C_4  and  C_6
REMARK    5  A    between atoms: C_10  and  C_12
REMARK    6  A    between atoms: C_12  and  C_13
REMARK    7  A    between atoms: N_15  and  C_16
REMARK    8  A    between atoms: C_26  and  C_27
REMARK                            x       y       z     vdW  Elec       q    Type
REMARK                         _______ _______ _______ _____ _____    ______ ____
ROOT
ATOM      1  C   UNL     1       3.784   5.130  18.959  0.00  0.00    +0.000 A 
ATOM      2  S   UNL     1       2.356   5.805  19.682  0.00  0.00    +0.000 S 
ATOM      3  C   UNL     1       2.330   7.028  18.492  0.00  0.00    +0.000 A 
ATOM      4  N   UNL     1       1.328   7.965  18.578  0.00  0.00    +0.000 N 
ATOM      5  C   UNL     1       1.438   9.172  17.910  0.00  0.00    +0.000 C 
ATOM      6  O   UNL     1       2.402   9.549  17.248  0.00  0.00    +0.000 OA
ATOM      7  N   UNL     1       3.266   6.956  17.595  0.00  0.00    +0.000 NA
ATOM      8  C   UNL     1       4.079   5.854  17.812  0.00  0.00    +0.000 A 
ATOM      9  H   UNL     1       0.535   7.754  19.169  0.00  0.00    +0.000 HD
ENDROOT
BRANCH   8  10
ATOM     10  C   UNL     1       5.113   5.555  16.824  0.00  0.00    +0.000 A 
ATOM     11  C   UNL     1       4.878   4.540  15.887  0.00  0.00    +0.000 A 
ATOM     12  C   UNL     1       5.858   4.188  14.962  0.00  0.00    +0.000 A 
ATOM     13  C   UNL     1       7.083   4.849  14.965  0.00  0.00    +0.000 A 
ATOM     14  C   UNL     1       7.338   5.848  15.902  0.00  0.00    +0.000 A 
ATOM     15  C   UNL     1       6.365   6.182  16.841  0.00  0.00    +0.000 A 
ENDBRANCH   8  10
BRANCH   1  16
ATOM     16  C   UNL     1       4.490   4.006  19.557  0.00  0.00    +0.000 C 
ATOM     17  O   UNL     1       5.703   3.886  19.645  0.00  0.00    +0.000 OA
BRANCH  16  18
ATOM     18  O   UNL     1       3.600   3.049  19.968  0.00  0.00    +0.000 OA
BRANCH  18  20
ATOM     19  C   UNL     1       2.900   2.038  17.868  0.00  0.00    +0.000 C 
ATOM     20  C   UNL     1       3.595   1.833  19.202  0.00  0.00    +0.000 C 
ENDBRANCH  18  20
ENDBRANCH  16  18
ENDBRANCH   1  16
BRANCH   5  21
ATOM     21  C   UNL     1       0.235  10.096  18.018  0.00  0.00    +0.000 C 
BRANCH  21  22
ATOM     22  C   UNL     1      -0.071  10.623  19.406  0.00  0.00    +0.000 A 
ATOM     23  N   UNL     1      -0.055   9.759  20.378  0.00  0.00    +0.000 NA
ATOM     24  N   UNL     1      -0.256  10.197  21.665  0.00  0.00    +0.000 N 
ATOM     25  C   UNL     1      -0.208   9.206  22.725  0.00  0.00    +0.000 C 
ATOM     26  C   UNL     1      -0.386  11.531  22.034  0.00  0.00    +0.000 A 
ATOM     27  O   UNL     1      -0.516  11.915  23.194  0.00  0.00    +0.000 OA
ATOM     28  C   UNL     1      -0.334  12.515  20.943  0.00  0.00    +0.000 A 
ATOM     29  C   UNL     1      -0.324  13.884  21.242  0.00  0.00    +0.000 A 
ATOM     30  C   UNL     1      -0.234  14.816  20.212  0.00  0.00    +0.000 A 
ATOM     31  C   UNL     1      -0.228  14.383  18.888  0.00  0.00    +0.000 A 
ATOM     32  C   UNL     1      -0.261  13.018  18.589  0.00  0.00    +0.000 A 
ATOM     33  C   UNL     1      -0.259  12.077  19.624  0.00  0.00    +0.000 A 
ENDBRANCH  21  22
ENDBRANCH   5  21
TORSDOF 6
ENDMDL
MODEL 2
REMARK VINA RESULT:      -7.9      1.192      2.393
REMARK  Name = 
REMARK  8 active torsions:
REMARK  status: ('A' for Active; 'I' for Inactive)
REMARK    1  A    between atoms: C_1  and  C_2
REMARK    2  A    between atoms: C_2  and  O_3
REMARK    3  A    between atoms: O_3  and  C_4
REMARK    4  A    between atoms: C_4  and  C_6
REMARK    5  A    between atoms: C_10  and  C_12
REMARK    6  A    between atoms: C_12  and  C_13
REMARK    7  A    between atoms: N_15  and  C_16
REMARK    8  A    between atoms: C_26  and  C_27
REMARK                            x       y       z     vdW  Elec       q    Type
REMARK                         _______ _______ _______ _____ _____    ______ ____
ROOT
ATOM      1  C   UNL     1       3.806   4.940  18.858  0.00  0.00    +0.000 A 
ATOM      2  S   UNL     1       2.409   5.644  19.615  0.00  0.00    +0.000 S 
ATOM      3  C   UNL     1       2.403   6.889  18.447  0.00  0.00    +0.000 A 
ATOM      4  N   UNL     1       1.431   7.855  18.566  0.00  0.00    +0.000 N 
ATOM      5  C   UNL     1       1.568   9.069  17.918  0.00  0.00    +0.000 C 
ATOM      6  O   UNL     1       2.533   9.430  17.249  0.00  0.00    +0.000 OA
ATOM      7  N   UNL     1       3.324   6.807  17.535  0.00  0.00    +0.000 NA
ATOM      8  C   UNL     1       4.106   5.676  17.720  0.00  0.00    +0.000 A 
ATOM      9  H   UNL     1       0.641   7.657  19.164  0.00  0.00    +0.000 HD
ENDROOT
BRANCH   8  10
ATOM     10  C   UNL     1       5.116   5.365  16.711  0.00  0.00    +0.000 A 
ATOM     11  C   UNL     1       4.821   4.404  15.735  0.00  0.00    +0.000 A 
ATOM     12  C   UNL     1       5.775   4.040  14.788  0.00  0.00    +0.000 A 
ATOM     13  C   UNL     1       7.033   4.635  14.807  0.00  0.00    +0.000 A 
ATOM     14  C   UNL     1       7.347   5.579  15.782  0.00  0.00    +0.000 A 
ATOM     15  C   UNL     1       6.399   5.924  16.743  0.00  0.00    +0.000 A 
ENDBRANCH   8  10
BRANCH   1  16
ATOM     16  C   UNL     1       4.486   3.785  19.425  0.00  0.00    +0.000 C 
ATOM     17  O   UNL     1       5.690   3.679  19.606  0.00  0.00    +0.000 OA
BRANCH  16  18
ATOM     18  O   UNL     1       3.588   2.784  19.684  0.00  0.00    +0.000 OA
BRANCH  18  20
ATOM     19  C   UNL     1       1.478   2.112  18.674  0.00  0.00    +0.000 C 
ATOM     20  C   UNL     1       2.988   2.170  18.531  0.00  0.00    +0.000 C 
ENDBRANCH  18  20
ENDBRANCH  16  18
ENDBRANCH   1  16
BRANCH   5  21
ATOM     21  C   UNL     1       0.395  10.028  18.060  0.00  0.00    +0.000 C 
BRANCH  21  22
ATOM     22  C   UNL     1       0.490  11.022  19.200  0.00  0.00    +0.000 A 
ATOM     23  N   UNL     1       0.768  12.253  18.884  0.00  0.00    +0.000 NA
ATOM     24  N   UNL     1       0.796  13.207  19.873  0.00  0.00    +0.000 N 
ATOM     25  C   UNL     1       1.088  14.573  19.477  0.00  0.00    +0.000 C 
ATOM     26  C   UNL     1       0.453  12.979  21.201  0.00  0.00    +0.000 A 
ATOM     27  O   UNL     1       0.435  13.851  22.066  0.00  0.00    +0.000 OA
ATOM     28  C   UNL     1       0.071  11.602  21.546  0.00  0.00    +0.000 A 
ATOM     29  C   UNL     1      -0.415  11.317  22.828  0.00  0.00    +0.000 A 
ATOM     30  C   UNL     1      -0.815  10.022  23.144  0.00  0.00    +0.000 A 
ATOM     31  C   UNL     1      -0.662   9.004  22.205  0.00  0.00    +0.000 A 
ATOM     32  C   UNL     1      -0.156   9.284  20.934  0.00  0.00    +0.000 A 
ATOM     33  C   UNL     1       0.161  10.601  20.583  0.00  0.00    +0.000 A 
ENDBRANCH  21  22
ENDBRANCH   5  21
TORSDOF 6
ENDMDL
MODEL 3
REMARK VINA RESULT:      -7.9      1.639      2.385
REMARK  Name = 
REMARK  8 active torsions:
REMARK  status: ('A' for Active; 'I' for Inactive)
REMARK    1  A    between atoms: C_1  and  C_2
REMARK    2  A    between atoms: C_2  and  O_3
REMARK    3  A    between atoms: O_3  and  C_4
REMARK    4  A    between atoms: C_4  and  C_6
REMARK    5  A    between atoms: C_10  and  C_12
REMARK    6  A    between atoms: C_12  and  C_13
REMARK    7  A    between atoms: N_15  and  C_16
REMARK    8  A    between atoms: C_26  and  C_27
REMARK                            x       y       z     vdW  Elec       q    Type
REMARK                         _______ _______ _______ _____ _____    ______ ____
ROOT
ATOM      1  C   UNL     1       3.754   5.026  18.995  0.00  0.00    +0.000 A 
ATOM      2  S   UNL     1       2.414   5.791  19.796  0.00  0.00    +0.000 S 
ATOM      3  C   UNL     1       2.463   7.066  18.662  0.00  0.00    +0.000 A 
ATOM      4  N   UNL     1       1.554   8.084  18.824  0.00  0.00    +0.000 N 
ATOM      5  C   UNL     1       1.753   9.305  18.206  0.00  0.00    +0.000 C 
ATOM      6  O   UNL     1       2.726   9.626  17.529  0.00  0.00    +0.000 OA
ATOM      7  N   UNL     1       3.362   6.953  17.732  0.00  0.00    +0.000 NA
ATOM      8  C   UNL     1       4.078   5.773  17.872  0.00  0.00    +0.000 A 
ATOM      9  H   UNL     1       0.764   7.917  19.432  0.00  0.00    +0.000 HD
ENDROOT
BRANCH   8  10
ATOM     10  C   UNL     1       5.050   5.430  16.837  0.00  0.00    +0.000 A 
ATOM     11  C   UNL     1       4.700   4.476  15.873  0.00  0.00    +0.000 A 
ATOM     12  C   UNL     1       5.617   4.081  14.901  0.00  0.00    +0.000 A 
ATOM     13  C   UNL     1       6.892   4.639  14.883  0.00  0.00    +0.000 A 
ATOM     14  C   UNL     1       7.260   5.576  15.847  0.00  0.00    +0.000 A 
ATOM     15  C   UNL     1       6.350   5.951  16.832  0.00  0.00    +0.000 A 
ENDBRANCH   8  10
BRANCH   1  16
ATOM     16  C   UNL     1       4.372   3.817  19.519  0.00  0.00    +0.000 C 
ATOM     17  O   UNL     1       5.571   3.583  19.556  0.00  0.00    +0.000 OA
BRANCH  16  18
ATOM     18  O   UNL     1       3.412   2.928  19.924  0.00  0.00    +0.000 OA
BRANCH  18  20
ATOM     19  C   UNL     1       1.391   2.191  18.785  0.00  0.00    +0.000 C 
ATOM     20  C   UNL     1       2.899   2.056  18.902  0.00  0.00    +0.000 C 
ENDBRANCH  18  20
ENDBRANCH  16  18
ENDBRANCH   1  16
BRANCH   5  21
ATOM     21  C   UNL     1       0.642  10.328  18.395  0.00  0.00    +0.000 C 
BRANCH  21  22
ATOM     22  C   UNL     1       1.023  11.583  19.156  0.00  0.00    +0.000 A 
ATOM     23  N   UNL     1       1.827  12.410  18.558  0.00  0.00    +0.000 NA
ATOM     24  N   UNL     1       2.147  13.596  19.175  0.00  0.00    +0.000 N 
ATOM     25  C   UNL     1       3.031  14.504  18.465  0.00  0.00    +0.000 C 
ATOM     26  C   UNL     1       1.597  14.036  20.373  0.00  0.00    +0.000 A 
ATOM     27  O   UNL     1       1.853  15.120  20.891  0.00  0.00    +0.000 OA
ATOM     28  C   UNL     1       0.633  13.131  21.017  0.00  0.00    +0.000 A 
ATOM     29  C   UNL     1      -0.066  13.556  22.154  0.00  0.00    +0.000 A 
ATOM     30  C   UNL     1      -1.007  12.716  22.741  0.00  0.00    +0.000 A 
ATOM     31  C   UNL     1      -1.197  11.432  22.236  0.00  0.00    +0.000 A 
ATOM     32  C   UNL     1      -0.483  11.000  21.114  0.00  0.00    +0.000 A 
ATOM     33  C   UNL     1       0.397  11.874  20.467  0.00  0.00    +0.000 A 
ENDBRANCH  21  22
ENDBRANCH   5  21
TORSDOF 6
ENDMDL
MODEL 4
REMARK VINA RESULT:      -7.8      1.290      1.346
REMARK  Name = 
REMARK  8 active torsions:
REMARK  status: ('A' for Active; 'I' for Inactive)
REMARK    1  A    between atoms: C_1  and  C_2
REMARK    2  A    between atoms: C_2  and  O_3
REMARK    3  A    between atoms: O_3  and  C_4
REMARK    4  A    between atoms: C_4  and  C_6
REMARK    5  A    between atoms: C_10  and  C_12
REMARK    6  A    between atoms: C_12  and  C_13
REMARK    7  A    between atoms: N_15  and  C_16
REMARK    8  A    between atoms: C_26  and  C_27
REMARK                            x       y       z     vdW  Elec       q    Type
REMARK                         _______ _______ _______ _____ _____    ______ ____
ROOT
ATOM      1  C   UNL     1       3.794   4.676  18.490  0.00  0.00    +0.000 A 
ATOM      2  S   UNL     1       2.432   5.389  19.302  0.00  0.00    +0.000 S 
ATOM      3  C   UNL     1       2.526   6.745  18.269  0.00  0.00    +0.000 A 
ATOM      4  N   UNL     1       1.616   7.754  18.477  0.00  0.00    +0.000 N 
ATOM      5  C   UNL     1       1.842   9.018  17.959  0.00  0.00    +0.000 C 
ATOM      6  O   UNL     1       2.839   9.381  17.341  0.00  0.00    +0.000 OA
ATOM      7  N   UNL     1       3.455   6.695  17.363  0.00  0.00    +0.000 NA
ATOM      8  C   UNL     1       4.159   5.503  17.438  0.00  0.00    +0.000 A 
ATOM      9  H   UNL     1       0.805   7.549  19.044  0.00  0.00    +0.000 HD
ENDROOT
BRANCH   8  10
ATOM     10  C   UNL     1       5.164   5.231  16.413  0.00  0.00    +0.000 A 
ATOM     11  C   UNL     1       4.793   4.487  15.285  0.00  0.00    +0.000 A 
ATOM     12  C   UNL     1       5.733   4.161  14.310  0.00  0.00    +0.000 A 
ATOM     13  C   UNL     1       7.053   4.577  14.453  0.00  0.00    +0.000 A 
ATOM     14  C   UNL     1       7.441   5.302  15.578  0.00  0.00    +0.000 A 
ATOM     15  C   UNL     1       6.504   5.606  16.564  0.00  0.00    +0.000 A 
ENDBRANCH   8  10
BRANCH   1  16
ATOM     16  C   UNL     1       4.388   3.426  18.942  0.00  0.00    +0.000 C 
ATOM     17  O   UNL     1       5.170   3.300  19.874  0.00  0.00    +0.000 OA
BRANCH  16  18
ATOM     18  O   UNL     1       3.994   2.393  18.135  0.00  0.00    +0.000 OA
BRANCH  18  20
ATOM     19  C   UNL     1       1.827   1.767  19.048  0.00  0.00    +0.000 C 
ATOM     20  C   UNL     1       2.586   2.321  17.856  0.00  0.00    +0.000 C 
ENDBRANCH  18  20
ENDBRANCH  16  18
ENDBRANCH   1  16
BRANCH   5  21
ATOM     21  C   UNL     1       0.731  10.031  18.188  0.00  0.00    +0.000 C 
BRANCH  21  22
ATOM     22  C   UNL     1       0.278  10.201  19.625  0.00  0.00    +0.000 A 
ATOM     23  N   UNL     1       1.031   9.674  20.544  0.00  0.00    +0.000 NA
ATOM     24  N   UNL     1       0.703   9.859  21.866  0.00  0.00    +0.000 N 
ATOM     25  C   UNL     1       1.581   9.273  22.863  0.00  0.00    +0.000 C 
ATOM     26  C   UNL     1      -0.340  10.661  22.315  0.00  0.00    +0.000 A 
ATOM     27  O   UNL     1      -0.594  10.859  23.501  0.00  0.00    +0.000 OA
ATOM     28  C   UNL     1      -1.151  11.314  21.277  0.00  0.00    +0.000 A 
ATOM     29  C   UNL     1      -2.135  12.241  21.646  0.00  0.00    +0.000 A 
ATOM     30  C   UNL     1      -2.875  12.891  20.663  0.00  0.00    +0.000 A 
ATOM     31  C   UNL     1      -2.683  12.562  19.323  0.00  0.00    +0.000 A 
ATOM     32  C   UNL     1      -1.717  11.621  18.957  0.00  0.00    +0.000 A 
ATOM     33  C   UNL     1      -0.908  11.034  19.936  0.00  0.00    +0.000 A 
ENDBRANCH  21  22
ENDBRANCH   5  21
TORSDOF 6
ENDMDL
MODEL 5
REMARK VINA RESULT:      -7.7      2.606      4.257
REMARK  Name = 
REMARK  8 active torsions:
REMARK  status: ('A' for Active; 'I' for Inactive)
REMARK    1  A    between atoms: C_1  and  C_2
REMARK    2  A    between atoms: C_2  and  O_3
REMARK    3  A    between atoms: O_3  and  C_4
REMARK    4  A    between atoms: C_4  and  C_6
REMARK    5  A    between atoms: C_10  and  C_12
REMARK    6  A    between atoms: C_12  and  C_13
REMARK    7  A    between atoms: N_15  and  C_16
REMARK    8  A    between atoms: C_26  and  C_27
REMARK                            x       y       z     vdW  Elec       q    Type
REMARK                         _______ _______ _______ _____ _____    ______ ____
ROOT
ATOM      1  C   UNL     1       3.594   6.008  17.780  0.00  0.00    +0.000 A 
ATOM      2  S   UNL     1       3.766   7.657  17.257  0.00  0.00    +0.000 S 
ATOM      3  C   UNL     1       2.467   8.113  18.267  0.00  0.00    +0.000 A 
ATOM      4  N   UNL     1       2.097   9.437  18.252  0.00  0.00    +0.000 N 
ATOM      5  C   UNL     1       0.857   9.822  18.729  0.00  0.00    +0.000 C 
ATOM      6  O   UNL     1      -0.025   9.075  19.145  0.00  0.00    +0.000 OA
ATOM      7  N   UNL     1       1.945   7.157  18.974  0.00  0.00    +0.000 NA
ATOM      8  C   UNL     1       2.603   5.957  18.750  0.00  0.00    +0.000 A 
ATOM      9  H   UNL     1       2.743  10.102  17.851  0.00  0.00    +0.000 HD
ENDROOT
BRANCH   8  10
ATOM     10  C   UNL     1       2.220   4.800  19.557  0.00  0.00    +0.000 A 
ATOM     11  C   UNL     1       1.338   3.859  19.010  0.00  0.00    +0.000 A 
ATOM     12  C   UNL     1       0.906   2.770  19.765  0.00  0.00    +0.000 A 
ATOM     13  C   UNL     1       1.354   2.612  21.073  0.00  0.00    +0.000 A 
ATOM     14  C   UNL     1       2.217   3.550  21.636  0.00  0.00    +0.000 A 
ATOM     15  C   UNL     1       2.628   4.651  20.887  0.00  0.00    +0.000 A 
ENDBRANCH   8  10
BRANCH   1  16
ATOM     16  C   UNL     1       4.393   4.934  17.208  0.00  0.00    +0.000 C 
ATOM     17  O   UNL     1       3.960   3.899  16.723  0.00  0.00    +0.000 OA
BRANCH  16  18
ATOM     18  O   UNL     1       5.727   5.214  17.335  0.00  0.00    +0.000 OA
BRANCH  18  20
ATOM     19  C   UNL     1       7.498   5.924  18.846  0.00  0.00    +0.000 C 
ATOM     20  C   UNL     1       6.278   5.042  18.652  0.00  0.00    +0.000 C 
ENDBRANCH  18  20
ENDBRANCH  16  18
ENDBRANCH   1  16
BRANCH   5  21
ATOM     21  C   UNL     1       0.589  11.320  18.732  0.00  0.00    +0.000 C 
BRANCH  21  22
ATOM     22  C   UNL     1      -0.853  11.732  18.950  0.00  0.00    +0.000 A 
ATOM     23  N   UNL     1      -1.685  11.493  17.980  0.00  0.00    +0.000 NA
ATOM     24  N   UNL     1      -3.018  11.783  18.154  0.00  0.00    +0.000 N 
ATOM     25  C   UNL     1      -3.918  11.481  17.056  0.00  0.00    +0.000 C 
ATOM     26  C   UNL     1      -3.578  12.236  19.343  0.00  0.00    +0.000 A 
ATOM     27  O   UNL     1      -4.778  12.445  19.502  0.00  0.00    +0.000 OA
ATOM     28  C   UNL     1      -2.648  12.441  20.463  0.00  0.00    +0.000 A 
ATOM     29  C   UNL     1      -3.148  12.767  21.730  0.00  0.00    +0.000 A 
ATOM     30  C   UNL     1      -2.273  12.922  22.801  0.00  0.00    +0.000 A 
ATOM     31  C   UNL     1      -0.899  12.822  22.589  0.00  0.00    +0.000 A 
ATOM     32  C   UNL     1      -0.399  12.519  21.320  0.00  0.00    +0.000 A 
ATOM     33  C   UNL     1      -1.281  12.273  20.262  0.00  0.00    +0.000 A 
ENDBRANCH  21  22
ENDBRANCH   5  21
TORSDOF 6
ENDMDL
MODEL 6
REMARK VINA RESULT:      -7.7      2.317      9.598
REMARK  Name = 
REMARK  8 active torsions:
REMARK  status: ('A' for Active; 'I' for Inactive)
REMARK    1  A    between atoms: C_1  and  C_2
REMARK    2  A    between atoms: C_2  and  O_3
REMARK    3  A    between atoms: O_3  and  C_4
REMARK    4  A    between atoms: C_4  and  C_6
REMARK    5  A    between atoms: C_10  and  C_12
REMARK    6  A    between atoms: C_12  and  C_13
REMARK    7  A    between atoms: N_15  and  C_16
REMARK    8  A    between atoms: C_26  and  C_27
REMARK                            x       y       z     vdW  Elec       q    Type
REMARK                         _______ _______ _______ _____ _____    ______ ____
ROOT
ATOM      1  C   UNL     1      -0.630  11.566  22.415  0.00  0.00    +0.000 A 
ATOM      2  S   UNL     1      -0.414   9.974  23.077  0.00  0.00    +0.000 S 
ATOM      3  C   UNL     1       0.620   9.574  21.780  0.00  0.00    +0.000 A 
ATOM      4  N   UNL     1       1.133   8.299  21.757  0.00  0.00    +0.000 N 
ATOM      5  C   UNL     1       1.658   7.775  20.588  0.00  0.00    +0.000 C 
ATOM      6  O   UNL     1       1.678   8.328  19.491  0.00  0.00    +0.000 OA
ATOM      7  N   UNL     1       0.839  10.526  20.924  0.00  0.00    +0.000 NA
ATOM      8  C   UNL     1       0.175  11.687  21.292  0.00  0.00    +0.000 A 
ATOM      9  H   UNL     1       1.080   7.754  22.607  0.00  0.00    +0.000 HD
ENDROOT
BRANCH   8  10
ATOM     10  C   UNL     1       0.409  12.894  20.503  0.00  0.00    +0.000 A 
ATOM     11  C   UNL     1       1.366  13.816  20.948  0.00  0.00    +0.000 A 
ATOM     12  C   UNL     1       1.582  15.005  20.253  0.00  0.00    +0.000 A 
ATOM     13  C   UNL     1       0.844  15.280  19.106  0.00  0.00    +0.000 A 
ATOM     14  C   UNL     1      -0.123  14.381  18.661  0.00  0.00    +0.000 A 
ATOM     15  C   UNL     1      -0.354  13.205  19.371  0.00  0.00    +0.000 A 
ENDBRANCH   8  10
BRANCH   1  16
ATOM     16  C   UNL     1      -1.550  12.525  23.009  0.00  0.00    +0.000 C 
ATOM     17  O   UNL     1      -1.244  13.604  23.497  0.00  0.00    +0.000 OA
BRANCH  16  18
ATOM     18  O   UNL     1      -2.826  12.029  23.002  0.00  0.00    +0.000 OA
BRANCH  18  20
ATOM     19  C   UNL     1      -3.742  12.894  20.920  0.00  0.00    +0.000 C 
ATOM     20  C   UNL     1      -3.827  12.891  22.436  0.00  0.00    +0.000 C 
ENDBRANCH  18  20
ENDBRANCH  16  18
ENDBRANCH   1  16
BRANCH   5  21
ATOM     21  C   UNL     1       2.264   6.385  20.703  0.00  0.00    +0.000 C 
BRANCH  21  22
ATOM     22  C   UNL     1       2.799   5.790  19.416  0.00  0.00    +0.000 A 
ATOM     23  N   UNL     1       3.780   6.421  18.840  0.00  0.00    +0.000 NA
ATOM     24  N   UNL     1       4.348   5.884  17.709  0.00  0.00    +0.000 N 
ATOM     25  C   UNL     1       5.454   6.608  17.109  0.00  0.00    +0.000 C 
ATOM     26  C   UNL     1       4.015   4.647  17.169  0.00  0.00    +0.000 A 
ATOM     27  O   UNL     1       4.564   4.156  16.186  0.00  0.00    +0.000 OA
ATOM     28  C   UNL     1       2.954   3.900  17.861  0.00  0.00    +0.000 A 
ATOM     29  C   UNL     1       2.653   2.592  17.462  0.00  0.00    +0.000 A 
ATOM     30  C   UNL     1       1.677   1.869  18.141  0.00  0.00    +0.000 A 
ATOM     31  C   UNL     1       0.957   2.477  19.167  0.00  0.00    +0.000 A 
ATOM     32  C   UNL     1       1.242   3.790  19.550  0.00  0.00    +0.000 A 
ATOM     33  C   UNL     1       2.284   4.487  18.931  0.00  0.00    +0.000 A 
ENDBRANCH  21  22
ENDBRANCH   5  21
TORSDOF 6
ENDMDL
MODEL 7
REMARK VINA RESULT:      -7.7      2.656      4.313
REMARK  Name = 
REMARK  8 active torsions:
REMARK  status: ('A' for Active; 'I' for Inactive)
REMARK    1  A    between atoms: C_1  and  C_2
REMARK    2  A    between atoms: C_2  and  O_3
REMARK    3  A    between atoms: O_3  and  C_4
REMARK    4  A    between atoms: C_4  and  C_6
REMARK    5  A    between atoms: C_10  and  C_12
REMARK    6  A    between atoms: C_12  and  C_13
REMARK    7  A    between atoms: N_15  and  C_16
REMARK    8  A    between atoms: C_26  and  C_27
REMARK                            x       y       z     vdW  Elec       q    Type
REMARK                         _______ _______ _______ _____ _____    ______ ____
ROOT
ATOM      1  C   UNL     1       3.783   5.901  17.840  0.00  0.00    +0.000 A 
ATOM      2  S   UNL     1       3.921   7.545  17.294  0.00  0.00    +0.000 S 
ATOM      3  C   UNL     1       2.558   7.971  18.229  0.00  0.00    +0.000 A 
ATOM      4  N   UNL     1       2.141   9.280  18.169  0.00  0.00    +0.000 N 
ATOM      5  C   UNL     1       0.866   9.628  18.577  0.00  0.00    +0.000 C 
ATOM      6  O   UNL     1      -0.008   8.856  18.963  0.00  0.00    +0.000 OA
ATOM      7  N   UNL     1       2.036   7.010  18.928  0.00  0.00    +0.000 NA
ATOM      8  C   UNL     1       2.747   5.831  18.761  0.00  0.00    +0.000 A 
ATOM      9  H   UNL     1       2.783   9.962  17.787  0.00  0.00    +0.000 HD
ENDROOT
BRANCH   8  10
ATOM     10  C   UNL     1       2.367   4.676  19.571  0.00  0.00    +0.000 A 
ATOM     11  C   UNL     1       1.699   3.610  18.953  0.00  0.00    +0.000 A 
ATOM     12  C   UNL     1       1.271   2.514  19.700  0.00  0.00    +0.000 A 
ATOM     13  C   UNL     1       1.509   2.473  21.070  0.00  0.00    +0.000 A 
ATOM     14  C   UNL     1       2.156   3.534  21.701  0.00  0.00    +0.000 A 
ATOM     15  C   UNL     1       2.561   4.640  20.956  0.00  0.00    +0.000 A 
ENDBRANCH   8  10
BRANCH   1  16
ATOM     16  C   UNL     1       4.648   4.848  17.330  0.00  0.00    +0.000 C 
ATOM     17  O   UNL     1       4.449   4.181  16.324  0.00  0.00    +0.000 OA
BRANCH  16  18
ATOM     18  O   UNL     1       5.711   4.654  18.171  0.00  0.00    +0.000 OA
BRANCH  18  20
ATOM     19  C   UNL     1       7.688   5.900  18.850  0.00  0.00    +0.000 C 
ATOM     20  C   UNL     1       6.968   5.187  17.720  0.00  0.00    +0.000 C 
ENDBRANCH  18  20
ENDBRANCH  16  18
ENDBRANCH   1  16
BRANCH   5  21
ATOM     21  C   UNL     1       0.545  11.114  18.536  0.00  0.00    +0.000 C 
BRANCH  21  22
ATOM     22  C   UNL     1      -0.829  11.507  19.043  0.00  0.00    +0.000 A 
ATOM     23  N   UNL     1      -0.878  12.135  20.181  0.00  0.00    +0.000 NA
ATOM     24  N   UNL     1      -2.092  12.575  20.650  0.00  0.00    +0.000 N 
ATOM     25  C   UNL     1      -2.102  13.291  21.913  0.00  0.00    +0.000 C 
ATOM     26  C   UNL     1      -3.290  12.484  19.950  0.00  0.00    +0.000 A 
ATOM     27  O   UNL     1      -4.361  12.926  20.359  0.00  0.00    +0.000 OA
ATOM     28  C   UNL     1      -3.224  11.836  18.632  0.00  0.00    +0.000 A 
ATOM     29  C   UNL     1      -4.356  11.824  17.807  0.00  0.00    +0.000 A 
ATOM     30  C   UNL     1      -4.284  11.246  16.543  0.00  0.00    +0.000 A 
ATOM     31  C   UNL     1      -3.108  10.622  16.135  0.00  0.00    +0.000 A 
ATOM     32  C   UNL     1      -1.985  10.615  16.967  0.00  0.00    +0.000 A 
ATOM     33  C   UNL     1      -2.026  11.273  18.200  0.00  0.00    +0.000 A 
ENDBRANCH  21  22
ENDBRANCH   5  21
TORSDOF 6
ENDMDL
MODEL 8
REMARK VINA RESULT:      -7.7      2.316      9.691
REMARK  Name = 
REMARK  8 active torsions:
REMARK  status: ('A' for Active; 'I' for Inactive)
REMARK    1  A    between atoms: C_1  and  C_2
REMARK    2  A    between atoms: C_2  and  O_3
REMARK    3  A    between atoms: O_3  and  C_4
REMARK    4  A    between atoms: C_4  and  C_6
REMARK    5  A    between atoms: C_10  and  C_12
REMARK    6  A    between atoms: C_12  and  C_13
REMARK    7  A    between atoms: N_15  and  C_16
REMARK    8  A    between atoms: C_26  and  C_27
REMARK                            x       y       z     vdW  Elec       q    Type
REMARK                         _______ _______ _______ _____ _____    ______ ____
ROOT
ATOM      1  C   UNL     1      -0.623  11.523  22.433  0.00  0.00    +0.000 A 
ATOM      2  S   UNL     1      -0.393   9.928  23.083  0.00  0.00    +0.000 S 
ATOM      3  C   UNL     1       0.643   9.546  21.782  0.00  0.00    +0.000 A 
ATOM      4  N   UNL     1       1.166   8.275  21.749  0.00  0.00    +0.000 N 
ATOM      5  C   UNL     1       1.693   7.764  20.577  0.00  0.00    +0.000 C 
ATOM      6  O   UNL     1       1.708   8.324  19.484  0.00  0.00    +0.000 OA
ATOM      7  N   UNL     1       0.853  10.505  20.933  0.00  0.00    +0.000 NA
ATOM      8  C   UNL     1       0.181  11.659  21.310  0.00  0.00    +0.000 A 
ATOM      9  H   UNL     1       1.118   7.724  22.596  0.00  0.00    +0.000 HD
ENDROOT
BRANCH   8  10
ATOM     10  C   UNL     1       0.404  12.873  20.528  0.00  0.00    +0.000 A 
ATOM     11  C   UNL     1      -0.524  13.216  19.535  0.00  0.00    +0.000 A 
ATOM     12  C   UNL     1      -0.320  14.336  18.732  0.00  0.00    +0.000 A 
ATOM     13  C   UNL     1       0.812  15.125  18.916  0.00  0.00    +0.000 A 
ATOM     14  C   UNL     1       1.752  14.786  19.887  0.00  0.00    +0.000 A 
ATOM     15  C   UNL     1       1.558  13.651  20.673  0.00  0.00    +0.000 A 
ENDBRANCH   8  10
BRANCH   1  16
ATOM     16  C   UNL     1      -1.549  12.471  23.035  0.00  0.00    +0.000 C 
ATOM     17  O   UNL     1      -2.769  12.419  22.971  0.00  0.00    +0.000 OA
BRANCH  16  18
ATOM     18  O   UNL     1      -0.863  13.485  23.648  0.00  0.00    +0.000 OA
BRANCH  18  20
ATOM     19  C   UNL     1      -0.759  15.735  22.725  0.00  0.00    +0.000 C 
ATOM     20  C   UNL     1      -1.504  14.772  23.632  0.00  0.00    +0.000 C 
ENDBRANCH  18  20
ENDBRANCH  16  18
ENDBRANCH   1  16
BRANCH   5  21
ATOM     21  C   UNL     1       2.311   6.378  20.681  0.00  0.00    +0.000 C 
BRANCH  21  22
ATOM     22  C   UNL     1       2.835   5.789  19.387  0.00  0.00    +0.000 A 
ATOM     23  N   UNL     1       3.788   6.440  18.789  0.00  0.00    +0.000 NA
ATOM     24  N   UNL     1       4.346   5.912  17.649  0.00  0.00    +0.000 N 
ATOM     25  C   UNL     1       5.423   6.659  17.023  0.00  0.00    +0.000 C 
ATOM     26  C   UNL     1       4.033   4.665  17.121  0.00  0.00    +0.000 A 
ATOM     27  O   UNL     1       4.574   4.182  16.130  0.00  0.00    +0.000 OA
ATOM     28  C   UNL     1       3.004   3.896  17.837  0.00  0.00    +0.000 A 
ATOM     29  C   UNL     1       2.726   2.579  17.449  0.00  0.00    +0.000 A 
ATOM     30  C   UNL     1       1.782   1.836  18.151  0.00  0.00    +0.000 A 
ATOM     31  C   UNL     1       1.067   2.432  19.189  0.00  0.00    +0.000 A 
ATOM     32  C   UNL     1       1.329   3.753  19.560  0.00  0.00    +0.000 A 
ATOM     33  C   UNL     1       2.341   4.472  18.917  0.00  0.00    +0.000 A 
ENDBRANCH  21  22
ENDBRANCH   5  21
TORSDOF 6
ENDMDL
MODEL 9
REMARK VINA RESULT:      -7.6      2.833      9.574
REMARK  Name = 
REMARK  8 active torsions:
REMARK  status: ('A' for Active; 'I' for Inactive)
REMARK    1  A    between atoms: C_1  and  C_2
REMARK    2  A    between atoms: C_2  and  O_3
REMARK    3  A    between atoms: O_3  and  C_4
REMARK    4  A    between atoms: C_4  and  C_6
REMARK    5  A    between atoms: C_10  and  C_12
REMARK    6  A    between atoms: C_12  and  C_13
REMARK    7  A    between atoms: N_15  and  C_16
REMARK    8  A    between atoms: C_26  and  C_27
REMARK                            x       y       z     vdW  Elec       q    Type
REMARK                         _______ _______ _______ _____ _____    ______ ____
ROOT
ATOM      1  C   UNL     1      -1.277  12.133  20.278  0.00  0.00    +0.000 A 
ATOM      2  S   UNL     1       0.413  11.809  20.518  0.00  0.00    +0.000 S 
ATOM      3  C   UNL     1       0.409  10.776  19.160  0.00  0.00    +0.000 A 
ATOM      4  N   UNL     1       1.592  10.150  18.844  0.00  0.00    +0.000 N 
ATOM      5  C   UNL     1       1.598   9.039  18.020  0.00  0.00    +0.000 C 
ATOM      6  O   UNL     1       0.612   8.481  17.547  0.00  0.00    +0.000 OA
ATOM      7  N   UNL     1      -0.725  10.679  18.534  0.00  0.00    +0.000 NA
ATOM      8  C   UNL     1      -1.689  11.482  19.124  0.00  0.00    +0.000 A 
ATOM      9  H   UNL     1       2.440  10.509  19.261  0.00  0.00    +0.000 HD
ENDROOT
BRANCH   8  10
ATOM     10  C   UNL     1      -2.993  11.584  18.473  0.00  0.00    +0.000 A 
ATOM     11  C   UNL     1      -3.096  11.261  17.114  0.00  0.00    +0.000 A 
ATOM     12  C   UNL     1      -4.309  11.396  16.442  0.00  0.00    +0.000 A 
ATOM     13  C   UNL     1      -5.432  11.854  17.125  0.00  0.00    +0.000 A 
ATOM     14  C   UNL     1      -5.341  12.196  18.473  0.00  0.00    +0.000 A 
ATOM     15  C   UNL     1      -4.121  12.084  19.136  0.00  0.00    +0.000 A 
ENDBRANCH   8  10
BRANCH   1  16
ATOM     16  C   UNL     1      -2.043  12.946  21.212  0.00  0.00    +0.000 C 
ATOM     17  O   UNL     1      -2.166  14.162  21.169  0.00  0.00    +0.000 OA
BRANCH  16  18
ATOM     18  O   UNL     1      -2.575  12.163  22.201  0.00  0.00    +0.000 OA
BRANCH  18  20
ATOM     19  C   UNL     1      -3.841  12.533  24.247  0.00  0.00    +0.000 C 
ATOM     20  C   UNL     1      -3.839  12.600  22.730  0.00  0.00    +0.000 C 
ENDBRANCH  18  20
ENDBRANCH  16  18
ENDBRANCH   1  16
BRANCH   5  21
ATOM     21  C   UNL     1       2.971   8.479  17.681  0.00  0.00    +0.000 C 
BRANCH  21  22
ATOM     22  C   UNL     1       3.243   7.065  18.153  0.00  0.00    +0.000 A 
ATOM     23  N   UNL     1       2.586   6.659  19.199  0.00  0.00    +0.000 NA
ATOM     24  N   UNL     1       2.743   5.361  19.626  0.00  0.00    +0.000 N 
ATOM     25  C   UNL     1       1.976   4.940  20.784  0.00  0.00    +0.000 C 
ATOM     26  C   UNL     1       3.493   4.397  18.962  0.00  0.00    +0.000 A 
ATOM     27  O   UNL     1       3.587   3.228  19.325  0.00  0.00    +0.000 OA
ATOM     28  C   UNL     1       4.181   4.837  17.739  0.00  0.00    +0.000 A 
ATOM     29  C   UNL     1       4.846   3.898  16.940  0.00  0.00    +0.000 A 
ATOM     30  C   UNL     1       5.463   4.306  15.761  0.00  0.00    +0.000 A 
ATOM     31  C   UNL     1       5.476   5.657  15.421  0.00  0.00    +0.000 A 
ATOM     32  C   UNL     1       4.832   6.597  16.230  0.00  0.00    +0.000 A 
ATOM     33  C   UNL     1       4.133   6.178  17.366  0.00  0.00    +0.000 A 
ENDBRANCH  21  22
ENDBRANCH   5  21
TORSDOF 6
ENDMDL
