MODEL 1
REMARK VINA RESULT:      -9.2      0.000      0.000
REMARK  Name = 
REMARK  12 active torsions:
REMARK  status: ('A' for Active; 'I' for Inactive)
REMARK    1  A    between atoms: C_1  and  C_2
REMARK    2  A    between atoms: C_2  and  C_3
REMARK    3  A    between atoms: C_2  and  C_4
REMARK    4  A    between atoms: C_4  and  N_5
REMARK    5  A    between atoms: C_6  and  C_8
REMARK    6  A    between atoms: C_9  and  C_10
REMARK    7  A    between atoms: C_13  and  C_14
REMARK    8  A    between atoms: C_14  and  O_15
REMARK    9  A    between atoms: O_15  and  C_16
REMARK   10  A    between atoms: C_16  and  C_18
REMARK   11  A    between atoms: C_20  and  O_21
REMARK   12  A    between atoms: C_23  and  O_24
REMARK                            x       y       z     vdW  Elec       q    Type
REMARK                         _______ _______ _______ _____ _____    ______ ____
ROOT
ATOM      1  C   UNL     1       2.640   7.278  18.374  0.00  0.00    +0.000 A 
ATOM      2  C   UNL     1       2.126   8.415  17.735  0.00  0.00    +0.000 A 
ATOM      3  C   UNL     1       1.423   9.384  18.447  0.00  0.00    +0.000 A 
ATOM      4  C   UNL     1       1.187   9.220  19.814  0.00  0.00    +0.000 A 
ATOM      5  C   UNL     1       1.613   8.042  20.441  0.00  0.00    +0.000 A 
ATOM      6  C   UNL     1       2.333   7.077  19.726  0.00  0.00    +0.000 A 
ENDROOT
BRANCH   1   8
ATOM      7  C   UNL     1       3.552   5.028  17.394  0.00  0.00    +0.000 A 
ATOM      8  C   UNL     1       3.556   6.392  17.662  0.00  0.00    +0.000 A 
ATOM      9  O   UNL     1       4.660   6.978  17.108  0.00  0.00    +0.000 OA
ATOM     10  C   UNL     1       5.363   5.999  16.478  0.00  0.00    +0.000 A 
ATOM     11  C   UNL     1       6.542   6.187  15.757  0.00  0.00    +0.000 A 
ATOM     12  C   UNL     1       7.096   5.053  15.151  0.00  0.00    +0.000 A 
ATOM     13  C   UNL     1       6.491   3.802  15.273  0.00  0.00    +0.000 A 
ATOM     14  C   UNL     1       5.307   3.645  16.005  0.00  0.00    +0.000 A 
ATOM     15  C   UNL     1       4.731   4.771  16.629  0.00  0.00    +0.000 A 
BRANCH   7  17
ATOM     16  N   UNL     1       2.842   3.195  18.738  0.00  0.00    +0.000 N 
ATOM     17  C   UNL     1       2.491   4.115  17.776  0.00  0.00    +0.000 C 
ATOM     18  O   UNL     1       1.361   4.171  17.303  0.00  0.00    +0.000 OA
ATOM     19  H   UNL     1       3.770   3.223  19.138  0.00  0.00    +0.000 HD
BRANCH  16  20
ATOM     20  C   UNL     1       1.880   2.241  19.248  0.00  0.00    +0.000 C 
BRANCH  20  22
ATOM     21  C   UNL     1       2.475   2.593  21.685  0.00  0.00    +0.000 C 
ATOM     22  C   UNL     1       1.357   2.618  20.642  0.00  0.00    +0.000 C 
ATOM     23  C   UNL     1       0.709   4.001  20.600  0.00  0.00    +0.000 C 
ENDBRANCH  20  22
ENDBRANCH  16  20
ENDBRANCH   7  17
ENDBRANCH   1   8
BRANCH   4  24
ATOM     24  C   UNL     1       0.492  10.310  20.583  0.00  0.00    +0.000 C 
BRANCH  24  25
ATOM     25  O   UNL     1      -0.862  10.452  20.149  0.00  0.00    +0.000 OA
BRANCH  25  26
ATOM     26  C   UNL     1      -1.151  11.641  19.570  0.00  0.00    +0.000 C 
ATOM     27  O   UNL     1      -0.672  12.727  19.855  0.00  0.00    +0.000 OA
BRANCH  26  28
ATOM     28  C   UNL     1      -2.192  11.469  18.527  0.00  0.00    +0.000 A 
ATOM     29  C   UNL     1      -3.501  11.854  18.838  0.00  0.00    +0.000 A 
ATOM     30  C   UNL     1      -4.513  11.655  17.905  0.00  0.00    +0.000 A 
ATOM     31  C   UNL     1      -4.241  11.091  16.662  0.00  0.00    +0.000 A 
ATOM     32  C   UNL     1      -2.935  10.719  16.358  0.00  0.00    +0.000 A 
ATOM     33  C   UNL     1      -1.906  10.906  17.274  0.00  0.00    +0.000 A 
BRANCH  30  34
ATOM     34  O   UNL     1      -5.805  11.993  18.178  0.00  0.00    +0.000 OA
ATOM     35  H   UNL     1      -5.966  12.898  17.858  0.00  0.00    +0.000 HD
ENDBRANCH  30  34
BRANCH  32  36
ATOM     36  O   UNL     1      -2.619  10.142  15.164  0.00  0.00    +0.000 OA
ATOM     37  H   UNL     1      -3.439  10.008  14.657  0.00  0.00    +0.000 HD
ENDBRANCH  32  36
ENDBRANCH  26  28
ENDBRANCH  25  26
ENDBRANCH  24  25
ENDBRANCH   4  24
TORSDOF 10
ENDMDL
MODEL 2
REMARK VINA RESULT:      -8.9      0.500      1.689
REMARK  Name = 
REMARK  12 active torsions:
REMARK  status: ('A' for Active; 'I' for Inactive)
REMARK    1  A    between atoms: C_1  and  C_2
REMARK    2  A    between atoms: C_2  and  C_3
REMARK    3  A    between atoms: C_2  and  C_4
REMARK    4  A    between atoms: C_4  and  N_5
REMARK    5  A    between atoms: C_6  and  C_8
REMARK    6  A    between atoms: C_9  and  C_10
REMARK    7  A    between atoms: C_13  and  C_14
REMARK    8  A    between atoms: C_14  and  O_15
REMARK    9  A    between atoms: O_15  and  C_16
REMARK   10  A    between atoms: C_16  and  C_18
REMARK   11  A    between atoms: C_20  and  O_21
REMARK   12  A    between atoms: C_23  and  O_24
REMARK                            x       y       z     vdW  Elec       q    Type
REMARK                         _______ _______ _______ _____ _____    ______ ____
ROOT
ATOM      1  C   UNL     1       2.911   7.422  18.346  0.00  0.00    +0.000 A 
ATOM      2  C   UNL     1       2.510   7.155  19.662  0.00  0.00    +0.000 A 
ATOM      3  C   UNL     1       1.559   7.950  20.298  0.00  0.00    +0.000 A 
ATOM      4  C   UNL     1       1.012   9.054  19.642  0.00  0.00    +0.000 A 
ATOM      5  C   UNL     1       1.477   9.385  18.363  0.00  0.00    +0.000 A 
ATOM      6  C   UNL     1       2.422   8.576  17.721  0.00  0.00    +0.000 A 
ENDROOT
BRANCH   1   8
ATOM      7  C   UNL     1       3.606   5.099  17.359  0.00  0.00    +0.000 A 
ATOM      8  C   UNL     1       3.736   6.457  17.625  0.00  0.00    +0.000 A 
ATOM      9  O   UNL     1       4.881   6.942  17.056  0.00  0.00    +0.000 OA
ATOM     10  C   UNL     1       5.486   5.903  16.419  0.00  0.00    +0.000 A 
ATOM     11  C   UNL     1       6.668   5.984  15.684  0.00  0.00    +0.000 A 
ATOM     12  C   UNL     1       7.111   4.805  15.073  0.00  0.00    +0.000 A 
ATOM     13  C   UNL     1       6.397   3.613  15.204  0.00  0.00    +0.000 A 
ATOM     14  C   UNL     1       5.213   3.563  15.951  0.00  0.00    +0.000 A 
ATOM     15  C   UNL     1       4.748   4.736  16.580  0.00  0.00    +0.000 A 
BRANCH   7  17
ATOM     16  N   UNL     1       2.762   3.304  18.676  0.00  0.00    +0.000 N 
ATOM     17  C   UNL     1       2.472   4.284  17.754  0.00  0.00    +0.000 C 
ATOM     18  O   UNL     1       1.338   4.468  17.327  0.00  0.00    +0.000 OA
ATOM     19  H   UNL     1       3.701   3.226  19.042  0.00  0.00    +0.000 HD
BRANCH  16  20
ATOM     20  C   UNL     1       1.727   2.435  19.196  0.00  0.00    +0.000 C 
BRANCH  20  22
ATOM     21  C   UNL     1       2.511   2.644  21.595  0.00  0.00    +0.000 C 
ATOM     22  C   UNL     1       1.329   2.787  20.636  0.00  0.00    +0.000 C 
ATOM     23  C   UNL     1       0.776   4.210  20.692  0.00  0.00    +0.000 C 
ENDBRANCH  20  22
ENDBRANCH  16  20
ENDBRANCH   7  17
ENDBRANCH   1   8
BRANCH   4  24
ATOM     24  C   UNL     1      -0.068   9.857  20.314  0.00  0.00    +0.000 C 
BRANCH  24  25
ATOM     25  O   UNL     1      -0.453  10.968  19.502  0.00  0.00    +0.000 OA
BRANCH  25  26
ATOM     26  C   UNL     1      -1.666  11.492  19.793  0.00  0.00    +0.000 C 
ATOM     27  O   UNL     1      -2.013  11.986  20.854  0.00  0.00    +0.000 OA
BRANCH  26  28
ATOM     28  C   UNL     1      -2.579  11.357  18.631  0.00  0.00    +0.000 A 
ATOM     29  C   UNL     1      -2.166  10.553  17.563  0.00  0.00    +0.000 A 
ATOM     30  C   UNL     1      -2.972  10.448  16.434  0.00  0.00    +0.000 A 
ATOM     31  C   UNL     1      -4.187  11.120  16.356  0.00  0.00    +0.000 A 
ATOM     32  C   UNL     1      -4.594  11.911  17.425  0.00  0.00    +0.000 A 
ATOM     33  C   UNL     1      -3.807  12.033  18.565  0.00  0.00    +0.000 A 
BRANCH  30  34
ATOM     34  O   UNL     1      -2.594   9.694  15.362  0.00  0.00    +0.000 OA
ATOM     35  H   UNL     1      -2.391   8.793  15.669  0.00  0.00    +0.000 HD
ENDBRANCH  30  34
BRANCH  32  36
ATOM     36  O   UNL     1      -5.765  12.608  17.391  0.00  0.00    +0.000 OA
ATOM     37  H   UNL     1      -6.349  12.202  16.725  0.00  0.00    +0.000 HD
ENDBRANCH  32  36
ENDBRANCH  26  28
ENDBRANCH  25  26
ENDBRANCH  24  25
ENDBRANCH   4  24
TORSDOF 10
ENDMDL
MODEL 3
REMARK VINA RESULT:      -8.9      2.491      3.762
REMARK  Name = 
REMARK  12 active torsions:
REMARK  status: ('A' for Active; 'I' for Inactive)
REMARK    1  A    between atoms: C_1  and  C_2
REMARK    2  A    between atoms: C_2  and  C_3
REMARK    3  A    between atoms: C_2  and  C_4
REMARK    4  A    between atoms: C_4  and  N_5
REMARK    5  A    between atoms: C_6  and  C_8
REMARK    6  A    between atoms: C_9  and  C_10
REMARK    7  A    between atoms: C_13  and  C_14
REMARK    8  A    between atoms: C_14  and  O_15
REMARK    9  A    between atoms: O_15  and  C_16
REMARK   10  A    between atoms: C_16  and  C_18
REMARK   11  A    between atoms: C_20  and  O_21
REMARK   12  A    between atoms: C_23  and  O_24
REMARK                            x       y       z     vdW  Elec       q    Type
REMARK                         _______ _______ _______ _____ _____    ______ ____
ROOT
ATOM      1  C   UNL     1       2.445   7.949  18.514  0.00  0.00    +0.000 A 
ATOM      2  C   UNL     1       2.114   7.846  19.872  0.00  0.00    +0.000 A 
ATOM      3  C   UNL     1       1.157   8.681  20.444  0.00  0.00    +0.000 A 
ATOM      4  C   UNL     1       0.532   9.666  19.675  0.00  0.00    +0.000 A 
ATOM      5  C   UNL     1       0.926   9.840  18.342  0.00  0.00    +0.000 A 
ATOM      6  C   UNL     1       1.877   8.989  17.767  0.00  0.00    +0.000 A 
ENDROOT
BRANCH   1   8
ATOM      7  C   UNL     1       3.145   5.556  17.715  0.00  0.00    +0.000 A 
ATOM      8  C   UNL     1       3.280   6.929  17.887  0.00  0.00    +0.000 A 
ATOM      9  O   UNL     1       4.445   7.363  17.318  0.00  0.00    +0.000 OA
ATOM     10  C   UNL     1       5.057   6.277  16.774  0.00  0.00    +0.000 A 
ATOM     11  C   UNL     1       6.260   6.296  16.069  0.00  0.00    +0.000 A 
ATOM     12  C   UNL     1       6.708   5.074  15.556  0.00  0.00    +0.000 A 
ATOM     13  C   UNL     1       5.980   3.899  15.751  0.00  0.00    +0.000 A 
ATOM     14  C   UNL     1       4.775   3.912  16.465  0.00  0.00    +0.000 A 
ATOM     15  C   UNL     1       4.304   5.130  16.996  0.00  0.00    +0.000 A 
BRANCH   7  17
ATOM     16  N   UNL     1       1.885   4.600  19.495  0.00  0.00    +0.000 N 
ATOM     17  C   UNL     1       1.992   4.781  18.134  0.00  0.00    +0.000 C 
ATOM     18  O   UNL     1       1.160   4.343  17.347  0.00  0.00    +0.000 OA
ATOM     19  H   UNL     1       2.566   5.027  20.109  0.00  0.00    +0.000 HD
BRANCH  16  20
ATOM     20  C   UNL     1       0.768   3.880  20.069  0.00  0.00    +0.000 C 
BRANCH  20  22
ATOM     21  C   UNL     1       2.013   1.734  19.557  0.00  0.00    +0.000 C 
ATOM     22  C   UNL     1       1.164   2.488  20.582  0.00  0.00    +0.000 C 
ATOM     23  C   UNL     1       1.925   2.615  21.902  0.00  0.00    +0.000 C 
ENDBRANCH  20  22
ENDBRANCH  16  20
ENDBRANCH   7  17
ENDBRANCH   1   8
BRANCH   4  24
ATOM     24  C   UNL     1      -0.552  10.509  20.288  0.00  0.00    +0.000 C 
BRANCH  24  25
ATOM     25  O   UNL     1      -0.011  11.394  21.271  0.00  0.00    +0.000 OA
BRANCH  25  26
ATOM     26  C   UNL     1      -0.416  11.149  22.539  0.00  0.00    +0.000 C 
ATOM     27  O   UNL     1      -0.039  10.242  23.264  0.00  0.00    +0.000 OA
BRANCH  26  28
ATOM     28  C   UNL     1      -1.445  12.135  22.953  0.00  0.00    +0.000 A 
ATOM     29  C   UNL     1      -1.112  13.493  22.896  0.00  0.00    +0.000 A 
ATOM     30  C   UNL     1      -2.032  14.442  23.328  0.00  0.00    +0.000 A 
ATOM     31  C   UNL     1      -3.283  14.062  23.804  0.00  0.00    +0.000 A 
ATOM     32  C   UNL     1      -3.609  12.711  23.850  0.00  0.00    +0.000 A 
ATOM     33  C   UNL     1      -2.707  11.742  23.424  0.00  0.00    +0.000 A 
BRANCH  30  34
ATOM     34  O   UNL     1      -1.737  15.774  23.312  0.00  0.00    +0.000 OA
ATOM     35  H   UNL     1      -2.250  16.216  24.010  0.00  0.00    +0.000 HD
ENDBRANCH  30  34
BRANCH  32  36
ATOM     36  O   UNL     1      -4.812  12.284  24.328  0.00  0.00    +0.000 OA
ATOM     37  H   UNL     1      -5.487  12.424  23.640  0.00  0.00    +0.000 HD
ENDBRANCH  32  36
ENDBRANCH  26  28
ENDBRANCH  25  26
ENDBRANCH  24  25
ENDBRANCH   4  24
TORSDOF 10
ENDMDL
MODEL 4
REMARK VINA RESULT:      -8.9      3.174      9.571
REMARK  Name = 
REMARK  12 active torsions:
REMARK  status: ('A' for Active; 'I' for Inactive)
REMARK    1  A    between atoms: C_1  and  C_2
REMARK    2  A    between atoms: C_2  and  C_3
REMARK    3  A    between atoms: C_2  and  C_4
REMARK    4  A    between atoms: C_4  and  N_5
REMARK    5  A    between atoms: C_6  and  C_8
REMARK    6  A    between atoms: C_9  and  C_10
REMARK    7  A    between atoms: C_13  and  C_14
REMARK    8  A    between atoms: C_14  and  O_15
REMARK    9  A    between atoms: O_15  and  C_16
REMARK   10  A    between atoms: C_16  and  C_18
REMARK   11  A    between atoms: C_20  and  O_21
REMARK   12  A    between atoms: C_23  and  O_24
REMARK                            x       y       z     vdW  Elec       q    Type
REMARK                         _______ _______ _______ _____ _____    ______ ____
ROOT
ATOM      1  C   UNL     1       1.391  10.566  18.960  0.00  0.00    +0.000 A 
ATOM      2  C   UNL     1       1.026   9.831  20.096  0.00  0.00    +0.000 A 
ATOM      3  C   UNL     1       1.404   8.498  20.240  0.00  0.00    +0.000 A 
ATOM      4  C   UNL     1       2.127   7.858  19.231  0.00  0.00    +0.000 A 
ATOM      5  C   UNL     1       2.412   8.557  18.051  0.00  0.00    +0.000 A 
ATOM      6  C   UNL     1       2.045   9.901  17.916  0.00  0.00    +0.000 A 
ENDROOT
BRANCH   1   8
ATOM      7  C   UNL     1       0.067  12.809  18.688  0.00  0.00    +0.000 A 
ATOM      8  C   UNL     1       1.179  12.011  18.927  0.00  0.00    +0.000 A 
ATOM      9  O   UNL     1       2.269  12.790  19.199  0.00  0.00    +0.000 OA
ATOM     10  C   UNL     1       1.862  14.087  19.143  0.00  0.00    +0.000 A 
ATOM     11  C   UNL     1       2.667  15.198  19.392  0.00  0.00    +0.000 A 
ATOM     12  C   UNL     1       2.049  16.452  19.317  0.00  0.00    +0.000 A 
ATOM     13  C   UNL     1       0.694  16.570  19.003  0.00  0.00    +0.000 A 
ATOM     14  C   UNL     1      -0.088  15.435  18.756  0.00  0.00    +0.000 A 
ATOM     15  C   UNL     1       0.512  14.161  18.821  0.00  0.00    +0.000 A 
BRANCH   7  17
ATOM     16  N   UNL     1      -1.589  12.160  17.105  0.00  0.00    +0.000 N 
ATOM     17  C   UNL     1      -1.271  12.307  18.436  0.00  0.00    +0.000 C 
ATOM     18  O   UNL     1      -2.051  12.009  19.334  0.00  0.00    +0.000 OA
ATOM     19  H   UNL     1      -0.893  12.366  16.401  0.00  0.00    +0.000 HD
BRANCH  16  20
ATOM     20  C   UNL     1      -2.874  11.634  16.696  0.00  0.00    +0.000 C 
BRANCH  20  22
ATOM     21  C   UNL     1      -3.666   9.387  17.557  0.00  0.00    +0.000 C 
ATOM     22  C   UNL     1      -2.850  10.113  16.486  0.00  0.00    +0.000 C 
ATOM     23  C   UNL     1      -3.384   9.769  15.096  0.00  0.00    +0.000 C 
ENDBRANCH  20  22
ENDBRANCH  16  20
ENDBRANCH   7  17
ENDBRANCH   1   8
BRANCH   4  24
ATOM     24  C   UNL     1       2.592   6.442  19.434  0.00  0.00    +0.000 C 
BRANCH  24  25
ATOM     25  O   UNL     1       2.691   5.757  18.183  0.00  0.00    +0.000 OA
BRANCH  25  26
ATOM     26  C   UNL     1       3.490   4.665  18.195  0.00  0.00    +0.000 C 
ATOM     27  O   UNL     1       3.133   3.499  18.249  0.00  0.00    +0.000 OA
BRANCH  26  28
ATOM     28  C   UNL     1       4.918   5.069  18.171  0.00  0.00    +0.000 A 
ATOM     29  C   UNL     1       5.502   5.338  16.928  0.00  0.00    +0.000 A 
ATOM     30  C   UNL     1       6.853   5.665  16.863  0.00  0.00    +0.000 A 
ATOM     31  C   UNL     1       7.627   5.742  18.016  0.00  0.00    +0.000 A 
ATOM     32  C   UNL     1       7.037   5.482  19.249  0.00  0.00    +0.000 A 
ATOM     33  C   UNL     1       5.689   5.152  19.341  0.00  0.00    +0.000 A 
BRANCH  30  34
ATOM     34  O   UNL     1       7.466   5.909  15.670  0.00  0.00    +0.000 OA
ATOM     35  H   UNL     1       8.383   6.185  15.840  0.00  0.00    +0.000 HD
ENDBRANCH  30  34
BRANCH  32  36
ATOM     36  O   UNL     1       7.756   5.522  20.406  0.00  0.00    +0.000 OA
ATOM     37  H   UNL     1       7.452   4.802  20.986  0.00  0.00    +0.000 HD
ENDBRANCH  32  36
ENDBRANCH  26  28
ENDBRANCH  25  26
ENDBRANCH  24  25
ENDBRANCH   4  24
TORSDOF 10
ENDMDL
MODEL 5
REMARK VINA RESULT:      -8.8      1.971      2.819
REMARK  Name = 
REMARK  12 active torsions:
REMARK  status: ('A' for Active; 'I' for Inactive)
REMARK    1  A    between atoms: C_1  and  C_2
REMARK    2  A    between atoms: C_2  and  C_3
REMARK    3  A    between atoms: C_2  and  C_4
REMARK    4  A    between atoms: C_4  and  N_5
REMARK    5  A    between atoms: C_6  and  C_8
REMARK    6  A    between atoms: C_9  and  C_10
REMARK    7  A    between atoms: C_13  and  C_14
REMARK    8  A    between atoms: C_14  and  O_15
REMARK    9  A    between atoms: O_15  and  C_16
REMARK   10  A    between atoms: C_16  and  C_18
REMARK   11  A    between atoms: C_20  and  O_21
REMARK   12  A    between atoms: C_23  and  O_24
REMARK                            x       y       z     vdW  Elec       q    Type
REMARK                         _______ _______ _______ _____ _____    ______ ____
ROOT
ATOM      1  C   UNL     1       2.922   7.300  18.483  0.00  0.00    +0.000 A 
ATOM      2  C   UNL     1       2.581   6.977  19.803  0.00  0.00    +0.000 A 
ATOM      3  C   UNL     1       1.637   7.726  20.504  0.00  0.00    +0.000 A 
ATOM      4  C   UNL     1       1.038   8.838  19.910  0.00  0.00    +0.000 A 
ATOM      5  C   UNL     1       1.445   9.225  18.626  0.00  0.00    +0.000 A 
ATOM      6  C   UNL     1       2.381   8.463  17.919  0.00  0.00    +0.000 A 
ENDROOT
BRANCH   1   8
ATOM      7  C   UNL     1       3.619   5.037  17.365  0.00  0.00    +0.000 A 
ATOM      8  C   UNL     1       3.740   6.382  17.695  0.00  0.00    +0.000 A 
ATOM      9  O   UNL     1       4.866   6.908  17.126  0.00  0.00    +0.000 OA
ATOM     10  C   UNL     1       5.467   5.909  16.424  0.00  0.00    +0.000 A 
ATOM     11  C   UNL     1       6.631   6.040  15.667  0.00  0.00    +0.000 A 
ATOM     12  C   UNL     1       7.072   4.899  14.988  0.00  0.00    +0.000 A 
ATOM     13  C   UNL     1       6.374   3.693  15.075  0.00  0.00    +0.000 A 
ATOM     14  C   UNL     1       5.208   3.592  15.845  0.00  0.00    +0.000 A 
ATOM     15  C   UNL     1       4.746   4.727  16.543  0.00  0.00    +0.000 A 
BRANCH   7  17
ATOM     16  N   UNL     1       2.803   3.229  18.682  0.00  0.00    +0.000 N 
ATOM     17  C   UNL     1       2.502   4.191  17.745  0.00  0.00    +0.000 C 
ATOM     18  O   UNL     1       1.372   4.335  17.292  0.00  0.00    +0.000 OA
ATOM     19  H   UNL     1       3.737   3.185  19.068  0.00  0.00    +0.000 HD
BRANCH  16  20
ATOM     20  C   UNL     1       1.785   2.333  19.189  0.00  0.00    +0.000 C 
BRANCH  20  22
ATOM     21  C   UNL     1       2.490   2.612  21.605  0.00  0.00    +0.000 C 
ATOM     22  C   UNL     1       1.332   2.697  20.610  0.00  0.00    +0.000 C 
ATOM     23  C   UNL     1       0.730   4.101  20.622  0.00  0.00    +0.000 C 
ENDBRANCH  20  22
ENDBRANCH  16  20
ENDBRANCH   7  17
ENDBRANCH   1   8
BRANCH   4  24
ATOM     24  C   UNL     1      -0.032   9.590  20.652  0.00  0.00    +0.000 C 
BRANCH  24  25
ATOM     25  O   UNL     1      -0.155  10.923  20.151  0.00  0.00    +0.000 OA
BRANCH  25  26
ATOM     26  C   UNL     1      -0.170  11.888  21.100  0.00  0.00    +0.000 C 
ATOM     27  O   UNL     1       0.800  12.407  21.629  0.00  0.00    +0.000 OA
BRANCH  26  28
ATOM     28  C   UNL     1      -1.566  12.232  21.465  0.00  0.00    +0.000 A 
ATOM     29  C   UNL     1      -2.346  12.901  20.516  0.00  0.00    +0.000 A 
ATOM     30  C   UNL     1      -3.641  13.289  20.844  0.00  0.00    +0.000 A 
ATOM     31  C   UNL     1      -4.177  13.009  22.097  0.00  0.00    +0.000 A 
ATOM     32  C   UNL     1      -3.398  12.335  23.032  0.00  0.00    +0.000 A 
ATOM     33  C   UNL     1      -2.100  11.938  22.729  0.00  0.00    +0.000 A 
BRANCH  30  34
ATOM     34  O   UNL     1      -4.425  13.965  19.956  0.00  0.00    +0.000 OA
ATOM     35  H   UNL     1      -3.985  13.966  19.088  0.00  0.00    +0.000 HD
ENDBRANCH  30  34
BRANCH  32  36
ATOM     36  O   UNL     1      -3.867  12.056  24.281  0.00  0.00    +0.000 OA
ATOM     37  H   UNL     1      -4.833  11.953  24.235  0.00  0.00    +0.000 HD
ENDBRANCH  32  36
ENDBRANCH  26  28
ENDBRANCH  25  26
ENDBRANCH  24  25
ENDBRANCH   4  24
TORSDOF 10
ENDMDL
MODEL 6
REMARK VINA RESULT:      -8.8      1.987      3.506
REMARK  Name = 
REMARK  12 active torsions:
REMARK  status: ('A' for Active; 'I' for Inactive)
REMARK    1  A    between atoms: C_1  and  C_2
REMARK    2  A    between atoms: C_2  and  C_3
REMARK    3  A    between atoms: C_2  and  C_4
REMARK    4  A    between atoms: C_4  and  N_5
REMARK    5  A    between atoms: C_6  and  C_8
REMARK    6  A    between atoms: C_9  and  C_10
REMARK    7  A    between atoms: C_13  and  C_14
REMARK    8  A    between atoms: C_14  and  O_15
REMARK    9  A    between atoms: O_15  and  C_16
REMARK   10  A    between atoms: C_16  and  C_18
REMARK   11  A    between atoms: C_20  and  O_21
REMARK   12  A    between atoms: C_23  and  O_24
REMARK                            x       y       z     vdW  Elec       q    Type
REMARK                         _______ _______ _______ _____ _____    ______ ____
ROOT
ATOM      1  C   UNL     1       2.889   7.271  18.478  0.00  0.00    +0.000 A 
ATOM      2  C   UNL     1       2.541   6.947  19.796  0.00  0.00    +0.000 A 
ATOM      3  C   UNL     1       1.581   7.684  20.487  0.00  0.00    +0.000 A 
ATOM      4  C   UNL     1       0.972   8.787  19.884  0.00  0.00    +0.000 A 
ATOM      5  C   UNL     1       1.384   9.175  18.603  0.00  0.00    +0.000 A 
ATOM      6  C   UNL     1       2.337   8.424  17.906  0.00  0.00    +0.000 A 
ENDROOT
BRANCH   1   8
ATOM      7  C   UNL     1       3.624   5.016  17.368  0.00  0.00    +0.000 A 
ATOM      8  C   UNL     1       3.726   6.362  17.700  0.00  0.00    +0.000 A 
ATOM      9  O   UNL     1       4.853   6.901  17.143  0.00  0.00    +0.000 OA
ATOM     10  C   UNL     1       5.473   5.909  16.449  0.00  0.00    +0.000 A 
ATOM     11  C   UNL     1       6.644   6.053  15.705  0.00  0.00    +0.000 A 
ATOM     12  C   UNL     1       7.105   4.916  15.031  0.00  0.00    +0.000 A 
ATOM     13  C   UNL     1       6.420   3.703  15.111  0.00  0.00    +0.000 A 
ATOM     14  C   UNL     1       5.247   3.589  15.868  0.00  0.00    +0.000 A 
ATOM     15  C   UNL     1       4.764   4.719  16.559  0.00  0.00    +0.000 A 
BRANCH   7  17
ATOM     16  N   UNL     1       2.812   3.206  18.685  0.00  0.00    +0.000 N 
ATOM     17  C   UNL     1       2.513   4.157  17.736  0.00  0.00    +0.000 C 
ATOM     18  O   UNL     1       1.389   4.283  17.263  0.00  0.00    +0.000 OA
ATOM     19  H   UNL     1       3.739   3.177  19.086  0.00  0.00    +0.000 HD
BRANCH  16  20
ATOM     20  C   UNL     1       1.798   2.299  19.181  0.00  0.00    +0.000 C 
BRANCH  20  22
ATOM     21  C   UNL     1       2.495   2.623  21.594  0.00  0.00    +0.000 C 
ATOM     22  C   UNL     1       1.333   2.653  20.601  0.00  0.00    +0.000 C 
ATOM     23  C   UNL     1       0.672   4.031  20.606  0.00  0.00    +0.000 C 
ENDBRANCH  20  22
ENDBRANCH  16  20
ENDBRANCH   7  17
ENDBRANCH   1   8
BRANCH   4  24
ATOM     24  C   UNL     1      -0.116   9.526  20.615  0.00  0.00    +0.000 C 
BRANCH  24  25
ATOM     25  O   UNL     1      -0.803  10.416  19.733  0.00  0.00    +0.000 OA
BRANCH  25  26
ATOM     26  C   UNL     1      -0.970  11.672  20.210  0.00  0.00    +0.000 C 
ATOM     27  O   UNL     1      -1.991  12.144  20.684  0.00  0.00    +0.000 OA
BRANCH  26  28
ATOM     28  C   UNL     1       0.280  12.455  20.050  0.00  0.00    +0.000 A 
ATOM     29  C   UNL     1       0.860  12.510  18.778  0.00  0.00    +0.000 A 
ATOM     30  C   UNL     1       2.062  13.189  18.602  0.00  0.00    +0.000 A 
ATOM     31  C   UNL     1       2.687  13.825  19.669  0.00  0.00    +0.000 A 
ATOM     32  C   UNL     1       2.099  13.774  20.929  0.00  0.00    +0.000 A 
ATOM     33  C   UNL     1       0.899  13.101  21.131  0.00  0.00    +0.000 A 
BRANCH  30  34
ATOM     34  O   UNL     1       2.672  13.244  17.384  0.00  0.00    +0.000 OA
ATOM     35  H   UNL     1       2.935  12.344  17.125  0.00  0.00    +0.000 HD
ENDBRANCH  30  34
BRANCH  32  36
ATOM     36  O   UNL     1       2.682  14.362  22.011  0.00  0.00    +0.000 OA
ATOM     37  H   UNL     1       3.342  13.749  22.380  0.00  0.00    +0.000 HD
ENDBRANCH  32  36
ENDBRANCH  26  28
ENDBRANCH  25  26
ENDBRANCH  24  25
ENDBRANCH   4  24
TORSDOF 10
ENDMDL
MODEL 7
REMARK VINA RESULT:      -8.8      2.277      3.230
REMARK  Name = 
REMARK  12 active torsions:
REMARK  status: ('A' for Active; 'I' for Inactive)
REMARK    1  A    between atoms: C_1  and  C_2
REMARK    2  A    between atoms: C_2  and  C_3
REMARK    3  A    between atoms: C_2  and  C_4
REMARK    4  A    between atoms: C_4  and  N_5
REMARK    5  A    between atoms: C_6  and  C_8
REMARK    6  A    between atoms: C_9  and  C_10
REMARK    7  A    between atoms: C_13  and  C_14
REMARK    8  A    between atoms: C_14  and  O_15
REMARK    9  A    between atoms: O_15  and  C_16
REMARK   10  A    between atoms: C_16  and  C_18
REMARK   11  A    between atoms: C_20  and  O_21
REMARK   12  A    between atoms: C_23  and  O_24
REMARK                            x       y       z     vdW  Elec       q    Type
REMARK                         _______ _______ _______ _____ _____    ______ ____
ROOT
ATOM      1  C   UNL     1       2.354   7.941  18.472  0.00  0.00    +0.000 A 
ATOM      2  C   UNL     1       1.984   9.069  17.727  0.00  0.00    +0.000 A 
ATOM      3  C   UNL     1       1.324  10.140  18.326  0.00  0.00    +0.000 A 
ATOM      4  C   UNL     1       0.986  10.092  19.680  0.00  0.00    +0.000 A 
ATOM      5  C   UNL     1       1.266   8.929  20.409  0.00  0.00    +0.000 A 
ATOM      6  C   UNL     1       1.943   7.861  19.809  0.00  0.00    +0.000 A 
ENDROOT
BRANCH   1   8
ATOM      7  C   UNL     1       3.144   5.556  17.738  0.00  0.00    +0.000 A 
ATOM      8  C   UNL     1       3.233   6.935  17.885  0.00  0.00    +0.000 A 
ATOM      9  O   UNL     1       4.396   7.394  17.332  0.00  0.00    +0.000 OA
ATOM     10  C   UNL     1       5.054   6.317  16.824  0.00  0.00    +0.000 A 
ATOM     11  C   UNL     1       6.271   6.359  16.144  0.00  0.00    +0.000 A 
ATOM     12  C   UNL     1       6.767   5.140  15.667  0.00  0.00    +0.000 A 
ATOM     13  C   UNL     1       6.071   3.948  15.871  0.00  0.00    +0.000 A 
ATOM     14  C   UNL     1       4.851   3.937  16.559  0.00  0.00    +0.000 A 
ATOM     15  C   UNL     1       4.332   5.151  17.054  0.00  0.00    +0.000 A 
BRANCH   7  17
ATOM     16  N   UNL     1       1.901   4.560  19.509  0.00  0.00    +0.000 N 
ATOM     17  C   UNL     1       2.007   4.753  18.150  0.00  0.00    +0.000 C 
ATOM     18  O   UNL     1       1.186   4.304  17.357  0.00  0.00    +0.000 OA
ATOM     19  H   UNL     1       2.571   4.997  20.127  0.00  0.00    +0.000 HD
BRANCH  16  20
ATOM     20  C   UNL     1       0.798   3.813  20.075  0.00  0.00    +0.000 C 
BRANCH  20  22
ATOM     21  C   UNL     1       2.042   1.668  19.558  0.00  0.00    +0.000 C 
ATOM     22  C   UNL     1       1.226   2.434  20.599  0.00  0.00    +0.000 C 
ATOM     23  C   UNL     1       2.036   2.594  21.886  0.00  0.00    +0.000 C 
ENDBRANCH  20  22
ENDBRANCH  16  20
ENDBRANCH   7  17
ENDBRANCH   1   8
BRANCH   4  24
ATOM     24  C   UNL     1       0.341  11.286  20.328  0.00  0.00    +0.000 C 
BRANCH  24  25
ATOM     25  O   UNL     1      -0.907  10.926  20.924  0.00  0.00    +0.000 OA
BRANCH  25  26
ATOM     26  C   UNL     1      -1.060  11.325  22.208  0.00  0.00    +0.000 C 
ATOM     27  O   UNL     1      -0.336  11.046  23.151  0.00  0.00    +0.000 OA
BRANCH  26  28
ATOM     28  C   UNL     1      -2.285  12.149  22.351  0.00  0.00    +0.000 A 
ATOM     29  C   UNL     1      -2.648  12.975  21.281  0.00  0.00    +0.000 A 
ATOM     30  C   UNL     1      -3.760  13.803  21.402  0.00  0.00    +0.000 A 
ATOM     31  C   UNL     1      -4.523  13.812  22.565  0.00  0.00    +0.000 A 
ATOM     32  C   UNL     1      -4.160  12.982  23.621  0.00  0.00    +0.000 A 
ATOM     33  C   UNL     1      -3.053  12.146  23.526  0.00  0.00    +0.000 A 
BRANCH  30  34
ATOM     34  O   UNL     1      -4.132  14.640  20.392  0.00  0.00    +0.000 OA
ATOM     35  H   UNL     1      -3.354  14.829  19.839  0.00  0.00    +0.000 HD
ENDBRANCH  30  34
BRANCH  32  36
ATOM     36  O   UNL     1      -4.861  12.969  24.790  0.00  0.00    +0.000 OA
ATOM     37  H   UNL     1      -5.722  13.400  24.641  0.00  0.00    +0.000 HD
ENDBRANCH  32  36
ENDBRANCH  26  28
ENDBRANCH  25  26
ENDBRANCH  24  25
ENDBRANCH   4  24
TORSDOF 10
ENDMDL
MODEL 8
REMARK VINA RESULT:      -8.7      2.741      9.295
REMARK  Name = 
REMARK  12 active torsions:
REMARK  status: ('A' for Active; 'I' for Inactive)
REMARK    1  A    between atoms: C_1  and  C_2
REMARK    2  A    between atoms: C_2  and  C_3
REMARK    3  A    between atoms: C_2  and  C_4
REMARK    4  A    between atoms: C_4  and  N_5
REMARK    5  A    between atoms: C_6  and  C_8
REMARK    6  A    between atoms: C_9  and  C_10
REMARK    7  A    between atoms: C_13  and  C_14
REMARK    8  A    between atoms: C_14  and  O_15
REMARK    9  A    between atoms: O_15  and  C_16
REMARK   10  A    between atoms: C_16  and  C_18
REMARK   11  A    between atoms: C_20  and  O_21
REMARK   12  A    between atoms: C_23  and  O_24
REMARK                            x       y       z     vdW  Elec       q    Type
REMARK                         _______ _______ _______ _____ _____    ______ ____
ROOT
ATOM      1  C   UNL     1       1.469   9.408  19.037  0.00  0.00    +0.000 A 
ATOM      2  C   UNL     1       1.279   8.803  20.287  0.00  0.00    +0.000 A 
ATOM      3  C   UNL     1       1.697   7.496  20.523  0.00  0.00    +0.000 A 
ATOM      4  C   UNL     1       2.286   6.749  19.501  0.00  0.00    +0.000 A 
ATOM      5  C   UNL     1       2.393   7.313  18.223  0.00  0.00    +0.000 A 
ATOM      6  C   UNL     1       1.986   8.632  17.992  0.00  0.00    +0.000 A 
ENDROOT
BRANCH   1   8
ATOM      7  C   UNL     1       0.077  11.605  18.734  0.00  0.00    +0.000 A 
ATOM      8  C   UNL     1       1.228  10.839  18.875  0.00  0.00    +0.000 A 
ATOM      9  O   UNL     1       2.333  11.644  18.871  0.00  0.00    +0.000 OA
ATOM     10  C   UNL     1       1.899  12.926  18.735  0.00  0.00    +0.000 A 
ATOM     11  C   UNL     1       2.712  14.058  18.718  0.00  0.00    +0.000 A 
ATOM     12  C   UNL     1       2.067  15.295  18.603  0.00  0.00    +0.000 A 
ATOM     13  C   UNL     1       0.677  15.377  18.507  0.00  0.00    +0.000 A 
ATOM     14  C   UNL     1      -0.114  14.221  18.526  0.00  0.00    +0.000 A 
ATOM     15  C   UNL     1       0.512  12.963  18.636  0.00  0.00    +0.000 A 
BRANCH   7  17
ATOM     16  N   UNL     1      -1.635  10.346  17.658  0.00  0.00    +0.000 N 
ATOM     17  C   UNL     1      -1.275  11.078  18.767  0.00  0.00    +0.000 C 
ATOM     18  O   UNL     1      -2.031  11.243  19.718  0.00  0.00    +0.000 OA
ATOM     19  H   UNL     1      -0.957  10.191  16.924  0.00  0.00    +0.000 HD
BRANCH  16  20
ATOM     20  C   UNL     1      -2.938   9.725  17.562  0.00  0.00    +0.000 C 
BRANCH  20  22
ATOM     21  C   UNL     1      -4.547  11.586  16.959  0.00  0.00    +0.000 C 
ATOM     22  C   UNL     1      -3.808  10.344  16.458  0.00  0.00    +0.000 C 
ATOM     23  C   UNL     1      -2.942  10.700  15.250  0.00  0.00    +0.000 C 
ENDBRANCH  20  22
ENDBRANCH  16  20
ENDBRANCH   7  17
ENDBRANCH   1   8
BRANCH   4  24
ATOM     24  C   UNL     1       2.801   5.366  19.792  0.00  0.00    +0.000 C 
BRANCH  24  25
ATOM     25  O   UNL     1       3.225   4.720  18.590  0.00  0.00    +0.000 OA
BRANCH  25  26
ATOM     26  C   UNL     1       4.434   4.117  18.665  0.00  0.00    +0.000 C 
ATOM     27  O   UNL     1       4.808   3.336  19.525  0.00  0.00    +0.000 OA
BRANCH  26  28
ATOM     28  C   UNL     1       5.304   4.564  17.550  0.00  0.00    +0.000 A 
ATOM     29  C   UNL     1       5.324   3.792  16.383  0.00  0.00    +0.000 A 
ATOM     30  C   UNL     1       6.170   4.150  15.339  0.00  0.00    +0.000 A 
ATOM     31  C   UNL     1       6.987   5.272  15.432  0.00  0.00    +0.000 A 
ATOM     32  C   UNL     1       6.956   6.039  16.592  0.00  0.00    +0.000 A 
ATOM     33  C   UNL     1       6.120   5.702  17.650  0.00  0.00    +0.000 A 
BRANCH  30  34
ATOM     34  O   UNL     1       6.236   3.409  14.195  0.00  0.00    +0.000 OA
ATOM     35  H   UNL     1       7.070   2.907  14.196  0.00  0.00    +0.000 HD
ENDBRANCH  30  34
BRANCH  32  36
ATOM     36  O   UNL     1       7.752   7.135  16.742  0.00  0.00    +0.000 OA
ATOM     37  H   UNL     1       8.459   7.100  16.074  0.00  0.00    +0.000 HD
ENDBRANCH  32  36
ENDBRANCH  26  28
ENDBRANCH  25  26
ENDBRANCH  24  25
ENDBRANCH   4  24
TORSDOF 10
ENDMDL
MODEL 9
REMARK VINA RESULT:      -8.7      2.409      3.755
REMARK  Name = 
REMARK  12 active torsions:
REMARK  status: ('A' for Active; 'I' for Inactive)
REMARK    1  A    between atoms: C_1  and  C_2
REMARK    2  A    between atoms: C_2  and  C_3
REMARK    3  A    between atoms: C_2  and  C_4
REMARK    4  A    between atoms: C_4  and  N_5
REMARK    5  A    between atoms: C_6  and  C_8
REMARK    6  A    between atoms: C_9  and  C_10
REMARK    7  A    between atoms: C_13  and  C_14
REMARK    8  A    between atoms: C_14  and  O_15
REMARK    9  A    between atoms: O_15  and  C_16
REMARK   10  A    between atoms: C_16  and  C_18
REMARK   11  A    between atoms: C_20  and  O_21
REMARK   12  A    between atoms: C_23  and  O_24
REMARK                            x       y       z     vdW  Elec       q    Type
REMARK                         _______ _______ _______ _____ _____    ______ ____
ROOT
ATOM      1  C   UNL     1       2.635   7.293  18.368  0.00  0.00    +0.000 A 
ATOM      2  C   UNL     1       2.134   8.432  17.724  0.00  0.00    +0.000 A 
ATOM      3  C   UNL     1       1.433   9.407  18.432  0.00  0.00    +0.000 A 
ATOM      4  C   UNL     1       1.188   9.246  19.797  0.00  0.00    +0.000 A 
ATOM      5  C   UNL     1       1.602   8.065  20.428  0.00  0.00    +0.000 A 
ATOM      6  C   UNL     1       2.319   7.095  19.718  0.00  0.00    +0.000 A 
ENDROOT
BRANCH   1   8
ATOM      7  C   UNL     1       3.539   5.035  17.397  0.00  0.00    +0.000 A 
ATOM      8  C   UNL     1       3.549   6.400  17.662  0.00  0.00    +0.000 A 
ATOM      9  O   UNL     1       4.659   6.978  17.111  0.00  0.00    +0.000 OA
ATOM     10  C   UNL     1       5.359   5.994  16.486  0.00  0.00    +0.000 A 
ATOM     11  C   UNL     1       6.543   6.172  15.771  0.00  0.00    +0.000 A 
ATOM     12  C   UNL     1       7.093   5.034  15.169  0.00  0.00    +0.000 A 
ATOM     13  C   UNL     1       6.479   3.787  15.291  0.00  0.00    +0.000 A 
ATOM     14  C   UNL     1       5.291   3.638  16.018  0.00  0.00    +0.000 A 
ATOM     15  C   UNL     1       4.719   4.769  16.637  0.00  0.00    +0.000 A 
BRANCH   7  17
ATOM     16  N   UNL     1       2.802   3.228  18.762  0.00  0.00    +0.000 N 
ATOM     17  C   UNL     1       2.470   4.129  17.775  0.00  0.00    +0.000 C 
ATOM     18  O   UNL     1       1.349   4.176  17.279  0.00  0.00    +0.000 OA
ATOM     19  H   UNL     1       3.723   3.264  19.179  0.00  0.00    +0.000 HD
BRANCH  16  20
ATOM     20  C   UNL     1       1.831   2.284  19.271  0.00  0.00    +0.000 C 
BRANCH  20  22
ATOM     21  C   UNL     1       2.392   2.584  21.723  0.00  0.00    +0.000 C 
ATOM     22  C   UNL     1       1.298   2.675  20.658  0.00  0.00    +0.000 C 
ATOM     23  C   UNL     1       0.722   4.090  20.615  0.00  0.00    +0.000 C 
ENDBRANCH  20  22
ENDBRANCH  16  20
ENDBRANCH   7  17
ENDBRANCH   1   8
BRANCH   4  24
ATOM     24  C   UNL     1       0.497  10.341  20.562  0.00  0.00    +0.000 C 
BRANCH  24  25
ATOM     25  O   UNL     1       1.126  11.601  20.322  0.00  0.00    +0.000 OA
BRANCH  25  26
ATOM     26  C   UNL     1       0.377  12.487  19.625  0.00  0.00    +0.000 C 
ATOM     27  O   UNL     1      -0.817  12.404  19.385  0.00  0.00    +0.000 OA
BRANCH  26  28
ATOM     28  C   UNL     1       1.221  13.603  19.133  0.00  0.00    +0.000 A 
ATOM     29  C   UNL     1       2.480  13.291  18.607  0.00  0.00    +0.000 A 
ATOM     30  C   UNL     1       3.320  14.317  18.188  0.00  0.00    +0.000 A 
ATOM     31  C   UNL     1       2.923  15.648  18.271  0.00  0.00    +0.000 A 
ATOM     32  C   UNL     1       1.667  15.949  18.787  0.00  0.00    +0.000 A 
ATOM     33  C   UNL     1       0.808  14.942  19.213  0.00  0.00    +0.000 A 
BRANCH  30  34
ATOM     34  O   UNL     1       4.564  14.056  17.694  0.00  0.00    +0.000 OA
ATOM     35  H   UNL     1       4.756  14.689  16.980  0.00  0.00    +0.000 HD
ENDBRANCH  30  34
BRANCH  32  36
ATOM     36  O   UNL     1       1.238  17.237  18.910  0.00  0.00    +0.000 OA
ATOM     37  H   UNL     1       1.571  17.750  18.152  0.00  0.00    +0.000 HD
ENDBRANCH  32  36
ENDBRANCH  26  28
ENDBRANCH  25  26
ENDBRANCH  24  25
ENDBRANCH   4  24
TORSDOF 10
ENDMDL
