MODEL 1
REMARK VINA RESULT:      -8.5      0.000      0.000
REMARK  Name = 
REMARK  6 active torsions:
REMARK  status: ('A' for Active; 'I' for Inactive)
REMARK    1  A    between atoms: C_1  and  C_2
REMARK    2  A    between atoms: C_6  and  C_7
REMARK    3  A    between atoms: C_7  and  C_8
REMARK    4  A    between atoms: C_14  and  C_15
REMARK    5  A    between atoms: C_15  and  C_17
REMARK    6  A    between atoms: C_21  and  C_22
REMARK                            x       y       z     vdW  Elec       q    Type
REMARK                         _______ _______ _______ _____ _____    ______ ____
ROOT
ATOM      1  C   UNL     1       6.782   4.447  16.302  0.00  0.00    +0.000 C 
ATOM      2  O   UNL     1       7.869   3.974  16.643  0.00  0.00    +0.000 OA
ATOM      3  N   UNL     1       6.167   5.466  17.019  0.00  0.00    +0.000 N 
ATOM      4  C   UNL     1       6.895   6.116  18.105  0.00  0.00    +0.000 C 
ATOM      5  C   UNL     1       6.366   5.641  19.452  0.00  0.00    +0.000 C 
ATOM      6  C   UNL     1       4.851   5.847  19.550  0.00  0.00    +0.000 C 
ATOM      7  C   UNL     1       4.111   5.213  18.358  0.00  0.00    +0.000 C 
ATOM      8  C   UNL     1       4.723   5.713  17.033  0.00  0.00    +0.000 C 
ENDROOT
BRANCH   7   9
ATOM      9  C   UNL     1       2.626   5.563  18.380  0.00  0.00    +0.000 C 
ATOM     10  O   UNL     1       1.764   4.728  18.112  0.00  0.00    +0.000 OA
BRANCH   9  11
ATOM     11  C   UNL     1       2.189   6.949  18.707  0.00  0.00    +0.000 A 
ATOM     12  C   UNL     1       2.228   7.901  17.678  0.00  0.00    +0.000 A 
ATOM     13  C   UNL     1       1.831   9.217  17.912  0.00  0.00    +0.000 A 
ATOM     14  C   UNL     1       1.381   9.592  19.175  0.00  0.00    +0.000 A 
ATOM     15  C   UNL     1       1.320   8.654  20.218  0.00  0.00    +0.000 A 
ATOM     16  C   UNL     1       1.729   7.328  19.974  0.00  0.00    +0.000 A 
BRANCH  15  17
ATOM     17  C   UNL     1       0.813   9.049  21.584  0.00  0.00    +0.000 C 
ATOM     18  F   UNL     1       1.734   8.904  22.575  0.00  0.00    +0.000 F 
ATOM     19  F   UNL     1       0.410  10.348  21.630  0.00  0.00    +0.000 F 
ATOM     20  F   UNL     1      -0.266   8.310  21.964  0.00  0.00    +0.000 F 
ENDBRANCH  15  17
ENDBRANCH   9  11
ENDBRANCH   7   9
BRANCH   1  21
ATOM     21  C   UNL     1       6.113   3.959  15.034  0.00  0.00    +0.000 C 
BRANCH  21  27
ATOM     22  C   UNL     1       5.895   2.857  11.850  0.00  0.00    +0.000 C 
ATOM     23  C   UNL     1       6.686   3.952  12.449  0.00  0.00    +0.000 A 
ATOM     24  N   UNL     1       7.477   4.702  11.677  0.00  0.00    +0.000 NA
ATOM     25  O   UNL     1       8.079   5.608  12.539  0.00  0.00    +0.000 OA
ATOM     26  N   UNL     1       7.633   5.428  13.838  0.00  0.00    +0.000 NA
ATOM     27  C   UNL     1       6.769   4.407  13.782  0.00  0.00    +0.000 A 
ENDBRANCH  21  27
ENDBRANCH   1  21
TORSDOF 5
ENDMDL
MODEL 2
REMARK VINA RESULT:      -8.4      2.939      4.307
REMARK  Name = 
REMARK  6 active torsions:
REMARK  status: ('A' for Active; 'I' for Inactive)
REMARK    1  A    between atoms: C_1  and  C_2
REMARK    2  A    between atoms: C_6  and  C_7
REMARK    3  A    between atoms: C_7  and  C_8
REMARK    4  A    between atoms: C_14  and  C_15
REMARK    5  A    between atoms: C_15  and  C_17
REMARK    6  A    between atoms: C_21  and  C_22
REMARK                            x       y       z     vdW  Elec       q    Type
REMARK                         _______ _______ _______ _____ _____    ______ ____
ROOT
ATOM      1  C   UNL     1       3.543   4.101  18.254  0.00  0.00    +0.000 C 
ATOM      2  O   UNL     1       3.100   3.024  18.659  0.00  0.00    +0.000 OA
ATOM      3  N   UNL     1       3.494   5.253  19.029  0.00  0.00    +0.000 N 
ATOM      4  C   UNL     1       3.065   5.161  20.421  0.00  0.00    +0.000 C 
ATOM      5  C   UNL     1       1.648   5.700  20.572  0.00  0.00    +0.000 C 
ATOM      6  C   UNL     1       1.539   7.122  20.013  0.00  0.00    +0.000 C 
ATOM      7  C   UNL     1       2.062   7.209  18.568  0.00  0.00    +0.000 C 
ATOM      8  C   UNL     1       3.484   6.615  18.488  0.00  0.00    +0.000 C 
ENDROOT
BRANCH   7   9
ATOM      9  C   UNL     1       2.101   8.654  18.081  0.00  0.00    +0.000 C 
ATOM     10  O   UNL     1       3.087   9.113  17.507  0.00  0.00    +0.000 OA
BRANCH   9  11
ATOM     11  C   UNL     1       0.940   9.556  18.320  0.00  0.00    +0.000 A 
ATOM     12  C   UNL     1       1.119  10.619  19.218  0.00  0.00    +0.000 A 
ATOM     13  C   UNL     1       0.075  11.504  19.488  0.00  0.00    +0.000 A 
ATOM     14  C   UNL     1      -1.153  11.342  18.853  0.00  0.00    +0.000 A 
ATOM     15  C   UNL     1      -1.352  10.295  17.940  0.00  0.00    +0.000 A 
ATOM     16  C   UNL     1      -0.295   9.402  17.679  0.00  0.00    +0.000 A 
BRANCH  15  17
ATOM     17  C   UNL     1      -2.675  10.127  17.232  0.00  0.00    +0.000 C 
ATOM     18  F   UNL     1      -3.506   9.229  17.828  0.00  0.00    +0.000 F 
ATOM     19  F   UNL     1      -3.373  11.293  17.156  0.00  0.00    +0.000 F 
ATOM     20  F   UNL     1      -2.520   9.700  15.949  0.00  0.00    +0.000 F 
ENDBRANCH  15  17
ENDBRANCH   9  11
ENDBRANCH   7   9
BRANCH   1  21
ATOM     21  C   UNL     1       4.219   4.176  16.901  0.00  0.00    +0.000 C 
BRANCH  21  27
ATOM     22  C   UNL     1       6.553   4.539  14.488  0.00  0.00    +0.000 C 
ATOM     23  C   UNL     1       6.679   4.438  15.956  0.00  0.00    +0.000 A 
ATOM     24  N   UNL     1       7.884   4.501  16.527  0.00  0.00    +0.000 NA
ATOM     25  O   UNL     1       7.655   4.358  17.888  0.00  0.00    +0.000 OA
ATOM     26  N   UNL     1       6.300   4.236  18.152  0.00  0.00    +0.000 NA
ATOM     27  C   UNL     1       5.696   4.289  16.958  0.00  0.00    +0.000 A 
ENDBRANCH  21  27
ENDBRANCH   1  21
TORSDOF 5
ENDMDL
MODEL 3
REMARK VINA RESULT:      -8.3      2.804      3.478
REMARK  Name = 
REMARK  6 active torsions:
REMARK  status: ('A' for Active; 'I' for Inactive)
REMARK    1  A    between atoms: C_1  and  C_2
REMARK    2  A    between atoms: C_6  and  C_7
REMARK    3  A    between atoms: C_7  and  C_8
REMARK    4  A    between atoms: C_14  and  C_15
REMARK    5  A    between atoms: C_15  and  C_17
REMARK    6  A    between atoms: C_21  and  C_22
REMARK                            x       y       z     vdW  Elec       q    Type
REMARK                         _______ _______ _______ _____ _____    ______ ____
ROOT
ATOM      1  C   UNL     1       5.948   4.130  17.726  0.00  0.00    +0.000 C 
ATOM      2  O   UNL     1       6.242   3.705  16.606  0.00  0.00    +0.000 OA
ATOM      3  N   UNL     1       4.717   3.863  18.314  0.00  0.00    +0.000 N 
ATOM      4  C   UNL     1       3.810   2.917  17.673  0.00  0.00    +0.000 C 
ATOM      5  C   UNL     1       2.667   3.661  16.993  0.00  0.00    +0.000 C 
ATOM      6  C   UNL     1       1.953   4.589  17.981  0.00  0.00    +0.000 C 
ATOM      7  C   UNL     1       2.939   5.530  18.697  0.00  0.00    +0.000 C 
ATOM      8  C   UNL     1       4.083   4.709  19.328  0.00  0.00    +0.000 C 
ENDROOT
BRANCH   7   9
ATOM      9  C   UNL     1       2.243   6.331  19.791  0.00  0.00    +0.000 C 
ATOM     10  O   UNL     1       1.963   5.828  20.878  0.00  0.00    +0.000 OA
BRANCH   9  11
ATOM     11  C   UNL     1       1.859   7.751  19.552  0.00  0.00    +0.000 A 
ATOM     12  C   UNL     1       2.123   8.288  18.283  0.00  0.00    +0.000 A 
ATOM     13  C   UNL     1       1.789   9.609  17.988  0.00  0.00    +0.000 A 
ATOM     14  C   UNL     1       1.179  10.403  18.955  0.00  0.00    +0.000 A 
ATOM     15  C   UNL     1       0.892   9.884  20.227  0.00  0.00    +0.000 A 
ATOM     16  C   UNL     1       1.239   8.550  20.519  0.00  0.00    +0.000 A 
BRANCH  15  17
ATOM     17  C   UNL     1       0.211  10.733  21.274  0.00  0.00    +0.000 C 
ATOM     18  F   UNL     1       0.730  11.987  21.386  0.00  0.00    +0.000 F 
ATOM     19  F   UNL     1      -1.117  10.896  21.024  0.00  0.00    +0.000 F 
ATOM     20  F   UNL     1       0.292  10.181  22.515  0.00  0.00    +0.000 F 
ENDBRANCH  15  17
ENDBRANCH   9  11
ENDBRANCH   7   9
BRANCH   1  21
ATOM     21  C   UNL     1       6.968   4.916  18.525  0.00  0.00    +0.000 C 
BRANCH  21  27
ATOM     22  C   UNL     1       5.216   6.850  16.383  0.00  0.00    +0.000 C 
ATOM     23  C   UNL     1       6.428   7.131  17.178  0.00  0.00    +0.000 A 
ATOM     24  N   UNL     1       7.002   8.335  17.116  0.00  0.00    +0.000 NA
ATOM     25  O   UNL     1       8.107   8.260  17.952  0.00  0.00    +0.000 OA
ATOM     26  N   UNL     1       8.193   7.013  18.549  0.00  0.00    +0.000 NA
ATOM     27  C   UNL     1       7.153   6.316  18.074  0.00  0.00    +0.000 A 
ENDBRANCH  21  27
ENDBRANCH   1  21
TORSDOF 5
ENDMDL
MODEL 4
REMARK VINA RESULT:      -8.2      4.962      8.246
REMARK  Name = 
REMARK  6 active torsions:
REMARK  status: ('A' for Active; 'I' for Inactive)
REMARK    1  A    between atoms: C_1  and  C_2
REMARK    2  A    between atoms: C_6  and  C_7
REMARK    3  A    between atoms: C_7  and  C_8
REMARK    4  A    between atoms: C_14  and  C_15
REMARK    5  A    between atoms: C_15  and  C_17
REMARK    6  A    between atoms: C_21  and  C_22
REMARK                            x       y       z     vdW  Elec       q    Type
REMARK                         _______ _______ _______ _____ _____    ______ ____
ROOT
ATOM      1  C   UNL     1       2.398   4.314  18.461  0.00  0.00    +0.000 C 
ATOM      2  O   UNL     1       1.241   4.733  18.546  0.00  0.00    +0.000 OA
ATOM      3  N   UNL     1       3.490   5.173  18.432  0.00  0.00    +0.000 N 
ATOM      4  C   UNL     1       3.286   6.597  18.677  0.00  0.00    +0.000 C 
ATOM      5  C   UNL     1       3.378   7.375  17.371  0.00  0.00    +0.000 C 
ATOM      6  C   UNL     1       4.699   7.083  16.651  0.00  0.00    +0.000 C 
ATOM      7  C   UNL     1       4.925   5.571  16.465  0.00  0.00    +0.000 C 
ATOM      8  C   UNL     1       4.782   4.849  17.821  0.00  0.00    +0.000 C 
ENDROOT
BRANCH   7   9
ATOM      9  C   UNL     1       6.312   5.287  15.897  0.00  0.00    +0.000 C 
ATOM     10  O   UNL     1       7.324   5.396  16.586  0.00  0.00    +0.000 OA
BRANCH   9  11
ATOM     11  C   UNL     1       6.470   4.892  14.469  0.00  0.00    +0.000 A 
ATOM     12  C   UNL     1       7.693   5.184  13.848  0.00  0.00    +0.000 A 
ATOM     13  C   UNL     1       7.911   4.841  12.514  0.00  0.00    +0.000 A 
ATOM     14  C   UNL     1       6.913   4.193  11.792  0.00  0.00    +0.000 A 
ATOM     15  C   UNL     1       5.685   3.878  12.395  0.00  0.00    +0.000 A 
ATOM     16  C   UNL     1       5.471   4.234  13.741  0.00  0.00    +0.000 A 
BRANCH  15  17
ATOM     17  C   UNL     1       4.607   3.157  11.624  0.00  0.00    +0.000 C 
ATOM     18  F   UNL     1       3.485   2.905  12.352  0.00  0.00    +0.000 F 
ATOM     19  F   UNL     1       4.197   3.857  10.531  0.00  0.00    +0.000 F 
ATOM     20  F   UNL     1       5.029   1.950  11.157  0.00  0.00    +0.000 F 
ENDBRANCH  15  17
ENDBRANCH   9  11
ENDBRANCH   7   9
BRANCH   1  21
ATOM     21  C   UNL     1       2.660   2.822  18.451  0.00  0.00    +0.000 C 
BRANCH  21  27
ATOM     22  C   UNL     1       2.040   2.914  21.768  0.00  0.00    +0.000 C 
ATOM     23  C   UNL     1       3.179   2.362  21.006  0.00  0.00    +0.000 A 
ATOM     24  N   UNL     1       4.186   1.766  21.650  0.00  0.00    +0.000 NA
ATOM     25  O   UNL     1       5.081   1.385  20.661  0.00  0.00    +0.000 OA
ATOM     26  N   UNL     1       4.606   1.725  19.405  0.00  0.00    +0.000 NA
ATOM     27  C   UNL     1       3.429   2.325  19.617  0.00  0.00    +0.000 A 
ENDBRANCH  21  27
ENDBRANCH   1  21
TORSDOF 5
ENDMDL
MODEL 5
REMARK VINA RESULT:      -8.2      5.355      8.758
REMARK  Name = 
REMARK  6 active torsions:
REMARK  status: ('A' for Active; 'I' for Inactive)
REMARK    1  A    between atoms: C_1  and  C_2
REMARK    2  A    between atoms: C_6  and  C_7
REMARK    3  A    between atoms: C_7  and  C_8
REMARK    4  A    between atoms: C_14  and  C_15
REMARK    5  A    between atoms: C_15  and  C_17
REMARK    6  A    between atoms: C_21  and  C_22
REMARK                            x       y       z     vdW  Elec       q    Type
REMARK                         _______ _______ _______ _____ _____    ______ ____
ROOT
ATOM      1  C   UNL     1       2.197   4.856  18.290  0.00  0.00    +0.000 C 
ATOM      2  O   UNL     1       1.157   5.518  18.241  0.00  0.00    +0.000 OA
ATOM      3  N   UNL     1       3.450   5.450  18.197  0.00  0.00    +0.000 N 
ATOM      4  C   UNL     1       3.554   6.906  18.213  0.00  0.00    +0.000 C 
ATOM      5  C   UNL     1       3.848   7.428  16.812  0.00  0.00    +0.000 C 
ATOM      6  C   UNL     1       5.091   6.753  16.224  0.00  0.00    +0.000 C 
ATOM      7  C   UNL     1       4.988   5.217  16.283  0.00  0.00    +0.000 C 
ATOM      8  C   UNL     1       4.656   4.768  17.720  0.00  0.00    +0.000 C 
ENDROOT
BRANCH   7   9
ATOM      9  C   UNL     1       6.294   4.560  15.848  0.00  0.00    +0.000 C 
ATOM     10  O   UNL     1       7.127   4.179  16.668  0.00  0.00    +0.000 OA
BRANCH   9  11
ATOM     11  C   UNL     1       6.601   4.389  14.400  0.00  0.00    +0.000 A 
ATOM     12  C   UNL     1       7.499   5.295  13.817  0.00  0.00    +0.000 A 
ATOM     13  C   UNL     1       7.834   5.193  12.467  0.00  0.00    +0.000 A 
ATOM     14  C   UNL     1       7.282   4.179  11.689  0.00  0.00    +0.000 A 
ATOM     15  C   UNL     1       6.391   3.252  12.254  0.00  0.00    +0.000 A 
ATOM     16  C   UNL     1       6.053   3.366  13.616  0.00  0.00    +0.000 A 
BRANCH  15  17
ATOM     17  C   UNL     1       5.805   2.137  11.421  0.00  0.00    +0.000 C 
ATOM     18  F   UNL     1       5.714   0.949  12.080  0.00  0.00    +0.000 F 
ATOM     19  F   UNL     1       4.548   2.423  10.985  0.00  0.00    +0.000 F 
ATOM     20  F   UNL     1       6.541   1.890  10.303  0.00  0.00    +0.000 F 
ENDBRANCH  15  17
ENDBRANCH   9  11
ENDBRANCH   7   9
BRANCH   1  21
ATOM     21  C   UNL     1       2.128   3.361  18.519  0.00  0.00    +0.000 C 
BRANCH  21  27
ATOM     22  C   UNL     1       4.663   2.133  20.382  0.00  0.00    +0.000 C 
ATOM     23  C   UNL     1       3.259   2.438  20.728  0.00  0.00    +0.000 A 
ATOM     24  N   UNL     1       2.822   2.236  21.974  0.00  0.00    +0.000 NA
ATOM     25  O   UNL     1       1.483   2.599  21.957  0.00  0.00    +0.000 OA
ATOM     26  N   UNL     1       1.107   3.049  20.701  0.00  0.00    +0.000 NA
ATOM     27  C   UNL     1       2.206   2.954  19.943  0.00  0.00    +0.000 A 
ENDBRANCH  21  27
ENDBRANCH   1  21
TORSDOF 5
ENDMDL
MODEL 6
REMARK VINA RESULT:      -8.2      2.586      3.585
REMARK  Name = 
REMARK  6 active torsions:
REMARK  status: ('A' for Active; 'I' for Inactive)
REMARK    1  A    between atoms: C_1  and  C_2
REMARK    2  A    between atoms: C_6  and  C_7
REMARK    3  A    between atoms: C_7  and  C_8
REMARK    4  A    between atoms: C_14  and  C_15
REMARK    5  A    between atoms: C_15  and  C_17
REMARK    6  A    between atoms: C_21  and  C_22
REMARK                            x       y       z     vdW  Elec       q    Type
REMARK                         _______ _______ _______ _____ _____    ______ ____
ROOT
ATOM      1  C   UNL     1       5.132   4.319  19.375  0.00  0.00    +0.000 C 
ATOM      2  O   UNL     1       5.121   3.094  19.238  0.00  0.00    +0.000 OA
ATOM      3  N   UNL     1       3.976   5.036  19.660  0.00  0.00    +0.000 N 
ATOM      4  C   UNL     1       2.747   4.315  19.975  0.00  0.00    +0.000 C 
ATOM      5  C   UNL     1       1.788   4.367  18.792  0.00  0.00    +0.000 C 
ATOM      6  C   UNL     1       1.530   5.813  18.357  0.00  0.00    +0.000 C 
ATOM      7  C   UNL     1       2.843   6.574  18.098  0.00  0.00    +0.000 C 
ATOM      8  C   UNL     1       3.773   6.448  19.323  0.00  0.00    +0.000 C 
ENDROOT
BRANCH   7   9
ATOM      9  C   UNL     1       2.580   8.052  17.827  0.00  0.00    +0.000 C 
ATOM     10  O   UNL     1       3.245   8.683  17.007  0.00  0.00    +0.000 OA
BRANCH   9  11
ATOM     11  C   UNL     1       1.516   8.774  18.578  0.00  0.00    +0.000 A 
ATOM     12  C   UNL     1       0.580   9.507  17.833  0.00  0.00    +0.000 A 
ATOM     13  C   UNL     1      -0.444  10.206  18.471  0.00  0.00    +0.000 A 
ATOM     14  C   UNL     1      -0.550  10.170  19.858  0.00  0.00    +0.000 A 
ATOM     15  C   UNL     1       0.366   9.433  20.625  0.00  0.00    +0.000 A 
ATOM     16  C   UNL     1       1.402   8.735  19.973  0.00  0.00    +0.000 A 
BRANCH  15  17
ATOM     17  C   UNL     1       0.245   9.373  22.128  0.00  0.00    +0.000 C 
ATOM     18  F   UNL     1      -0.036  10.573  22.705  0.00  0.00    +0.000 F 
ATOM     19  F   UNL     1      -0.735   8.521  22.535  0.00  0.00    +0.000 F 
ATOM     20  F   UNL     1       1.390   8.933  22.718  0.00  0.00    +0.000 F 
ENDBRANCH  15  17
ENDBRANCH   9  11
ENDBRANCH   7   9
BRANCH   1  21
ATOM     21  C   UNL     1       6.442   5.075  19.295  0.00  0.00    +0.000 C 
BRANCH  21  27
ATOM     22  C   UNL     1       7.208   7.914  17.637  0.00  0.00    +0.000 C 
ATOM     23  C   UNL     1       7.247   6.499  17.213  0.00  0.00    +0.000 A 
ATOM     24  N   UNL     1       7.651   6.184  15.980  0.00  0.00    +0.000 NA
ATOM     25  O   UNL     1       7.553   4.802  15.903  0.00  0.00    +0.000 OA
ATOM     26  N   UNL     1       7.112   4.269  17.104  0.00  0.00    +0.000 NA
ATOM     27  C   UNL     1       6.927   5.317  17.915  0.00  0.00    +0.000 A 
ENDBRANCH  21  27
ENDBRANCH   1  21
TORSDOF 5
ENDMDL
MODEL 7
REMARK VINA RESULT:      -8.0      2.636      3.814
REMARK  Name = 
REMARK  6 active torsions:
REMARK  status: ('A' for Active; 'I' for Inactive)
REMARK    1  A    between atoms: C_1  and  C_2
REMARK    2  A    between atoms: C_6  and  C_7
REMARK    3  A    between atoms: C_7  and  C_8
REMARK    4  A    between atoms: C_14  and  C_15
REMARK    5  A    between atoms: C_15  and  C_17
REMARK    6  A    between atoms: C_21  and  C_22
REMARK                            x       y       z     vdW  Elec       q    Type
REMARK                         _______ _______ _______ _____ _____    ______ ____
ROOT
ATOM      1  C   UNL     1       5.090   4.596  16.424  0.00  0.00    +0.000 C 
ATOM      2  O   UNL     1       5.038   3.897  15.409  0.00  0.00    +0.000 OA
ATOM      3  N   UNL     1       4.393   4.265  17.580  0.00  0.00    +0.000 N 
ATOM      4  C   UNL     1       3.717   2.974  17.662  0.00  0.00    +0.000 C 
ATOM      5  C   UNL     1       2.213   3.157  17.507  0.00  0.00    +0.000 C 
ATOM      6  C   UNL     1       1.676   4.171  18.522  0.00  0.00    +0.000 C 
ATOM      7  C   UNL     1       2.450   5.501  18.464  0.00  0.00    +0.000 C 
ATOM      8  C   UNL     1       3.964   5.233  18.593  0.00  0.00    +0.000 C 
ENDROOT
BRANCH   7   9
ATOM      9  C   UNL     1       2.017   6.441  19.584  0.00  0.00    +0.000 C 
ATOM     10  O   UNL     1       1.834   6.034  20.730  0.00  0.00    +0.000 OA
BRANCH   9  11
ATOM     11  C   UNL     1       1.777   7.884  19.301  0.00  0.00    +0.000 A 
ATOM     12  C   UNL     1       2.244   8.391  18.080  0.00  0.00    +0.000 A 
ATOM     13  C   UNL     1       2.054   9.731  17.748  0.00  0.00    +0.000 A 
ATOM     14  C   UNL     1       1.385  10.576  18.629  0.00  0.00    +0.000 A 
ATOM     15  C   UNL     1       0.897  10.089  19.852  0.00  0.00    +0.000 A 
ATOM     16  C   UNL     1       1.100   8.735  20.182  0.00  0.00    +0.000 A 
BRANCH  15  17
ATOM     17  C   UNL     1       0.153  10.995  20.804  0.00  0.00    +0.000 C 
ATOM     18  F   UNL     1       0.400  12.319  20.609  0.00  0.00    +0.000 F 
ATOM     19  F   UNL     1      -1.197  10.846  20.710  0.00  0.00    +0.000 F 
ATOM     20  F   UNL     1       0.467  10.742  22.104  0.00  0.00    +0.000 F 
ENDBRANCH  15  17
ENDBRANCH   9  11
ENDBRANCH   7   9
BRANCH   1  21
ATOM     21  C   UNL     1       5.982   5.820  16.451  0.00  0.00    +0.000 C 
BRANCH  21  27
ATOM     22  C   UNL     1       7.836   8.311  17.774  0.00  0.00    +0.000 C 
ATOM     23  C   UNL     1       7.737   6.880  18.126  0.00  0.00    +0.000 A 
ATOM     24  N   UNL     1       8.460   6.391  19.137  0.00  0.00    +0.000 NA
ATOM     25  O   UNL     1       8.151   5.039  19.189  0.00  0.00    +0.000 OA
ATOM     26  N   UNL     1       7.215   4.707  18.223  0.00  0.00    +0.000 NA
ATOM     27  C   UNL     1       6.956   5.845  17.569  0.00  0.00    +0.000 A 
ENDBRANCH  21  27
ENDBRANCH   1  21
TORSDOF 5
ENDMDL
MODEL 8
REMARK VINA RESULT:      -8.0      4.588      6.896
REMARK  Name = 
REMARK  6 active torsions:
REMARK  status: ('A' for Active; 'I' for Inactive)
REMARK    1  A    between atoms: C_1  and  C_2
REMARK    2  A    between atoms: C_6  and  C_7
REMARK    3  A    between atoms: C_7  and  C_8
REMARK    4  A    between atoms: C_14  and  C_15
REMARK    5  A    between atoms: C_15  and  C_17
REMARK    6  A    between atoms: C_21  and  C_22
REMARK                            x       y       z     vdW  Elec       q    Type
REMARK                         _______ _______ _______ _____ _____    ______ ____
ROOT
ATOM      1  C   UNL     1       1.979   7.354  19.875  0.00  0.00    +0.000 C 
ATOM      2  O   UNL     1       1.936   6.348  20.588  0.00  0.00    +0.000 OA
ATOM      3  N   UNL     1       1.636   8.611  20.358  0.00  0.00    +0.000 N 
ATOM      4  C   UNL     1       1.380   8.783  21.784  0.00  0.00    +0.000 C 
ATOM      5  C   UNL     1      -0.115   8.920  22.040  0.00  0.00    +0.000 C 
ATOM      6  C   UNL     1      -0.716  10.045  21.191  0.00  0.00    +0.000 C 
ATOM      7  C   UNL     1      -0.375   9.879  19.699  0.00  0.00    +0.000 C 
ATOM      8  C   UNL     1       1.149   9.713  19.524  0.00  0.00    +0.000 C 
ENDROOT
BRANCH   7   9
ATOM      9  C   UNL     1      -0.837  11.087  18.890  0.00  0.00    +0.000 C 
ATOM     10  O   UNL     1      -0.266  12.173  18.972  0.00  0.00    +0.000 OA
BRANCH   9  11
ATOM     11  C   UNL     1      -2.022  10.979  17.993  0.00  0.00    +0.000 A 
ATOM     12  C   UNL     1      -1.910  10.146  16.870  0.00  0.00    +0.000 A 
ATOM     13  C   UNL     1      -2.980   9.997  15.988  0.00  0.00    +0.000 A 
ATOM     14  C   UNL     1      -4.175  10.670  16.226  0.00  0.00    +0.000 A 
ATOM     15  C   UNL     1      -4.315  11.499  17.350  0.00  0.00    +0.000 A 
ATOM     16  C   UNL     1      -3.227  11.649  18.232  0.00  0.00    +0.000 A 
BRANCH  15  17
ATOM     17  C   UNL     1      -5.616  12.215  17.626  0.00  0.00    +0.000 C 
ATOM     18  F   UNL     1      -5.608  12.945  18.774  0.00  0.00    +0.000 F 
ATOM     19  F   UNL     1      -5.949  13.082  16.631  0.00  0.00    +0.000 F 
ATOM     20  F   UNL     1      -6.663  11.353  17.736  0.00  0.00    +0.000 F 
ENDBRANCH  15  17
ENDBRANCH   9  11
ENDBRANCH   7   9
BRANCH   1  21
ATOM     21  C   UNL     1       2.477   7.246  18.449  0.00  0.00    +0.000 C 
BRANCH  21  27
ATOM     22  C   UNL     1       1.487   4.117  17.657  0.00  0.00    +0.000 C 
ATOM     23  C   UNL     1       2.835   4.697  17.828  0.00  0.00    +0.000 A 
ATOM     24  N   UNL     1       3.916   3.933  17.651  0.00  0.00    +0.000 NA
ATOM     25  O   UNL     1       4.998   4.765  17.902  0.00  0.00    +0.000 OA
ATOM     26  N   UNL     1       4.576   6.049  18.206  0.00  0.00    +0.000 NA
ATOM     27  C   UNL     1       3.239   6.008  18.157  0.00  0.00    +0.000 A 
ENDBRANCH  21  27
ENDBRANCH   1  21
TORSDOF 5
ENDMDL
MODEL 9
REMARK VINA RESULT:      -7.8      2.858      4.164
REMARK  Name = 
REMARK  6 active torsions:
REMARK  status: ('A' for Active; 'I' for Inactive)
REMARK    1  A    between atoms: C_1  and  C_2
REMARK    2  A    between atoms: C_6  and  C_7
REMARK    3  A    between atoms: C_7  and  C_8
REMARK    4  A    between atoms: C_14  and  C_15
REMARK    5  A    between atoms: C_15  and  C_17
REMARK    6  A    between atoms: C_21  and  C_22
REMARK                            x       y       z     vdW  Elec       q    Type
REMARK                         _______ _______ _______ _____ _____    ______ ____
ROOT
ATOM      1  C   UNL     1       3.574   3.840  18.241  0.00  0.00    +0.000 C 
ATOM      2  O   UNL     1       3.134   2.715  18.492  0.00  0.00    +0.000 OA
ATOM      3  N   UNL     1       3.481   4.884  19.153  0.00  0.00    +0.000 N 
ATOM      4  C   UNL     1       3.008   4.611  20.506  0.00  0.00    +0.000 C 
ATOM      5  C   UNL     1       1.579   5.111  20.675  0.00  0.00    +0.000 C 
ATOM      6  C   UNL     1       1.467   6.591  20.297  0.00  0.00    +0.000 C 
ATOM      7  C   UNL     1       2.036   6.866  18.893  0.00  0.00    +0.000 C 
ATOM      8  C   UNL     1       3.468   6.303  18.788  0.00  0.00    +0.000 C 
ENDROOT
BRANCH   7   9
ATOM      9  C   UNL     1       2.069   8.361  18.594  0.00  0.00    +0.000 C 
ATOM     10  O   UNL     1       2.947   8.857  17.890  0.00  0.00    +0.000 OA
BRANCH   9  11
ATOM     11  C   UNL     1       1.039   9.265  19.179  0.00  0.00    +0.000 A 
ATOM     12  C   UNL     1       1.141   9.565  20.546  0.00  0.00    +0.000 A 
ATOM     13  C   UNL     1       0.212  10.405  21.159  0.00  0.00    +0.000 A 
ATOM     14  C   UNL     1      -0.820  10.963  20.411  0.00  0.00    +0.000 A 
ATOM     15  C   UNL     1      -0.934  10.690  19.038  0.00  0.00    +0.000 A 
ATOM     16  C   UNL     1       0.004   9.834  18.428  0.00  0.00    +0.000 A 
BRANCH  15  17
ATOM     17  C   UNL     1      -2.039  11.309  18.216  0.00  0.00    +0.000 C 
ATOM     18  F   UNL     1      -3.068  11.800  18.959  0.00  0.00    +0.000 F 
ATOM     19  F   UNL     1      -1.597  12.345  17.452  0.00  0.00    +0.000 F 
ATOM     20  F   UNL     1      -2.595  10.417  17.350  0.00  0.00    +0.000 F 
ENDBRANCH  15  17
ENDBRANCH   9  11
ENDBRANCH   7   9
BRANCH   1  21
ATOM     21  C   UNL     1       4.293   4.093  16.932  0.00  0.00    +0.000 C 
BRANCH  21  27
ATOM     22  C   UNL     1       6.724   4.545  14.633  0.00  0.00    +0.000 C 
ATOM     23  C   UNL     1       6.787   4.423  16.104  0.00  0.00    +0.000 A 
ATOM     24  N   UNL     1       7.963   4.501  16.729  0.00  0.00    +0.000 NA
ATOM     25  O   UNL     1       7.676   4.332  18.076  0.00  0.00    +0.000 OA
ATOM     26  N   UNL     1       6.315   4.176  18.277  0.00  0.00    +0.000 NA
ATOM     27  C   UNL     1       5.764   4.236  17.059  0.00  0.00    +0.000 A 
ENDBRANCH  21  27
ENDBRANCH   1  21
TORSDOF 5
ENDMDL
