MODEL 1
REMARK VINA RESULT:      -8.7      0.000      0.000
REMARK  Name = 
REMARK  7 active torsions:
REMARK  status: ('A' for Active; 'I' for Inactive)
REMARK    1  A    between atoms: C_1  and  N_2
REMARK    2  A    between atoms: N_13  and  C_14
REMARK    3  A    between atoms: C_14  and  C_15
REMARK    4  A    between atoms: C_15  and  C_16
REMARK    5  A    between atoms: C_16  and  C_17
REMARK    6  A    between atoms: C_17  and  N_18
REMARK    7  A    between atoms: N_21  and  C_22
REMARK                            x       y       z     vdW  Elec       q    Type
REMARK                         _______ _______ _______ _____ _____    ______ ____
ROOT
ATOM      1  C   UNL     1       7.749   7.938  17.461  0.00  0.00    +0.000 C 
ENDROOT
BRANCH   1  14
ATOM      2  C   UNL     1       5.099   3.826  15.048  0.00  0.00    +0.000 C 
ATOM      3  N   UNL     1       5.178   3.989  16.484  0.00  0.00    +0.000 N 
ATOM      4  C   UNL     1       6.043   4.802  17.182  0.00  0.00    +0.000 A 
ATOM      5  C   UNL     1       5.712   4.682  18.527  0.00  0.00    +0.000 A 
ATOM      6  C   UNL     1       4.610   3.805  18.648  0.00  0.00    +0.000 A 
ATOM      7  C   UNL     1       3.844   3.359  19.738  0.00  0.00    +0.000 A 
ATOM      8  C   UNL     1       2.762   2.498  19.508  0.00  0.00    +0.000 A 
ATOM      9  C   UNL     1       2.454   2.083  18.217  0.00  0.00    +0.000 A 
ATOM     10  C   UNL     1       3.209   2.513  17.121  0.00  0.00    +0.000 A 
ATOM     11  C   UNL     1       4.288   3.380  17.361  0.00  0.00    +0.000 A 
ATOM     12  C   UNL     1       6.404   5.477  19.583  0.00  0.00    +0.000 C 
ATOM     13  C   UNL     1       7.749   5.966  19.038  0.00  0.00    +0.000 C 
ATOM     14  N   UNL     1       7.645   6.499  17.673  0.00  0.00    +0.000 N 
ATOM     15  C   UNL     1       7.034   5.737  16.669  0.00  0.00    +0.000 C 
ATOM     16  O   UNL     1       7.239   5.946  15.477  0.00  0.00    +0.000 OA
ENDBRANCH   1  14
BRANCH   1  17
ATOM     17  C   UNL     1       8.533   8.610  18.596  0.00  0.00    +0.000 C 
BRANCH  17  18
ATOM     18  C   UNL     1       8.844  10.070  18.275  0.00  0.00    +0.000 C 
BRANCH  18  19
ATOM     19  C   UNL     1       9.632  10.722  19.421  0.00  0.00    +0.000 C 
BRANCH  19  20
ATOM     20  N   UNL     1      10.975  11.178  19.033  0.00  0.00    +0.000 NA
ATOM     21  C   UNL     1      11.000  11.927  17.752  0.00  0.00    +0.000 C 
ATOM     22  C   UNL     1      10.308  13.311  17.788  0.00  0.00    +0.000 C 
ATOM     23  N   UNL     1      10.915  14.114  18.855  0.00  0.00    +0.000 N 
ATOM     24  C   UNL     1      10.913  13.479  20.181  0.00  0.00    +0.000 C 
ATOM     25  C   UNL     1      11.545  12.064  20.087  0.00  0.00    +0.000 C 
BRANCH  23  26
ATOM     26  C   UNL     1      11.084  15.478  18.722  0.00  0.00    +0.000 A 
ATOM     27  C   UNL     1      10.764  16.165  17.542  0.00  0.00    +0.000 A 
ATOM     28  C   UNL     1      11.011  17.534  17.399  0.00  0.00    +0.000 A 
ATOM     29  C   UNL     1      11.590  18.252  18.441  0.00  0.00    +0.000 A 
ATOM     30  C   UNL     1      11.916  17.599  19.623  0.00  0.00    +0.000 A 
ATOM     31  C   UNL     1      11.662  16.231  19.758  0.00  0.00    +0.000 A 
ENDBRANCH  23  26
ENDBRANCH  19  20
ENDBRANCH  18  19
ENDBRANCH  17  18
ENDBRANCH   1  17
TORSDOF 6
ENDMDL
MODEL 2
REMARK VINA RESULT:      -8.5      7.537     10.925
REMARK  Name = 
REMARK  7 active torsions:
REMARK  status: ('A' for Active; 'I' for Inactive)
REMARK    1  A    between atoms: C_1  and  N_2
REMARK    2  A    between atoms: N_13  and  C_14
REMARK    3  A    between atoms: C_14  and  C_15
REMARK    4  A    between atoms: C_15  and  C_16
REMARK    5  A    between atoms: C_16  and  C_17
REMARK    6  A    between atoms: C_17  and  N_18
REMARK    7  A    between atoms: N_21  and  C_22
REMARK                            x       y       z     vdW  Elec       q    Type
REMARK                         _______ _______ _______ _____ _____    ______ ____
ROOT
ATOM      1  C   UNL     1       1.430   8.348  21.047  0.00  0.00    +0.000 C 
ENDROOT
BRANCH   1  14
ATOM      2  C   UNL     1      -2.449  12.156  20.589  0.00  0.00    +0.000 C 
ATOM      3  N   UNL     1      -1.942  11.397  19.467  0.00  0.00    +0.000 N 
ATOM      4  C   UNL     1      -0.790  10.642  19.425  0.00  0.00    +0.000 A 
ATOM      5  C   UNL     1      -0.744  10.046  18.169  0.00  0.00    +0.000 A 
ATOM      6  C   UNL     1      -1.898  10.420  17.446  0.00  0.00    +0.000 A 
ATOM      7  C   UNL     1      -2.391  10.091  16.171  0.00  0.00    +0.000 A 
ATOM      8  C   UNL     1      -3.623  10.614  15.757  0.00  0.00    +0.000 A 
ATOM      9  C   UNL     1      -4.348  11.457  16.592  0.00  0.00    +0.000 A 
ATOM     10  C   UNL     1      -3.871  11.800  17.862  0.00  0.00    +0.000 A 
ATOM     11  C   UNL     1      -2.637  11.265  18.271  0.00  0.00    +0.000 A 
ATOM     12  C   UNL     1       0.342   9.098  17.788  0.00  0.00    +0.000 C 
ATOM     13  C   UNL     1       1.541   9.311  18.715  0.00  0.00    +0.000 C 
ATOM     14  N   UNL     1       1.148   9.442  20.125  0.00  0.00    +0.000 N 
ATOM     15  C   UNL     1       0.159  10.363  20.493  0.00  0.00    +0.000 C 
ATOM     16  O   UNL     1       0.052  10.779  21.643  0.00  0.00    +0.000 OA
ENDBRANCH   1  14
BRANCH   1  17
ATOM     17  C   UNL     1       2.084   7.166  20.320  0.00  0.00    +0.000 C 
BRANCH  17  18
ATOM     18  C   UNL     1       1.312   5.869  20.550  0.00  0.00    +0.000 C 
BRANCH  18  19
ATOM     19  C   UNL     1       2.272   4.716  20.878  0.00  0.00    +0.000 C 
BRANCH  19  20
ATOM     20  N   UNL     1       2.272   3.641  19.875  0.00  0.00    +0.000 NA
ATOM     21  C   UNL     1       1.938   4.108  18.506  0.00  0.00    +0.000 C 
ATOM     22  C   UNL     1       3.002   5.017  17.845  0.00  0.00    +0.000 C 
ATOM     23  N   UNL     1       4.287   4.310  17.837  0.00  0.00    +0.000 N 
ATOM     24  C   UNL     1       4.734   3.831  19.154  0.00  0.00    +0.000 C 
ATOM     25  C   UNL     1       3.611   2.989  19.816  0.00  0.00    +0.000 C 
BRANCH  23  26
ATOM     26  C   UNL     1       5.180   4.448  16.792  0.00  0.00    +0.000 A 
ATOM     27  C   UNL     1       4.824   4.195  15.460  0.00  0.00    +0.000 A 
ATOM     28  C   UNL     1       5.760   4.267  14.423  0.00  0.00    +0.000 A 
ATOM     29  C   UNL     1       7.083   4.596  14.699  0.00  0.00    +0.000 A 
ATOM     30  C   UNL     1       7.465   4.854  16.009  0.00  0.00    +0.000 A 
ATOM     31  C   UNL     1       6.522   4.783  17.039  0.00  0.00    +0.000 A 
ENDBRANCH  23  26
ENDBRANCH  19  20
ENDBRANCH  18  19
ENDBRANCH  17  18
ENDBRANCH   1  17
TORSDOF 6
ENDMDL
MODEL 3
REMARK VINA RESULT:      -8.5      2.068     11.896
REMARK  Name = 
REMARK  7 active torsions:
REMARK  status: ('A' for Active; 'I' for Inactive)
REMARK    1  A    between atoms: C_1  and  N_2
REMARK    2  A    between atoms: N_13  and  C_14
REMARK    3  A    between atoms: C_14  and  C_15
REMARK    4  A    between atoms: C_15  and  C_16
REMARK    5  A    between atoms: C_16  and  C_17
REMARK    6  A    between atoms: C_17  and  N_18
REMARK    7  A    between atoms: N_21  and  C_22
REMARK                            x       y       z     vdW  Elec       q    Type
REMARK                         _______ _______ _______ _____ _____    ______ ____
ROOT
ATOM      1  C   UNL     1       9.089  10.352  19.463  0.00  0.00    +0.000 C 
ENDROOT
BRANCH   1  14
ATOM      2  C   UNL     1      10.391  15.085  21.843  0.00  0.00    +0.000 C 
ATOM      3  N   UNL     1      10.458  14.867  20.415  0.00  0.00    +0.000 N 
ATOM      4  C   UNL     1      10.435  13.658  19.755  0.00  0.00    +0.000 A 
ATOM      5  C   UNL     1      10.457  13.941  18.394  0.00  0.00    +0.000 A 
ATOM      6  C   UNL     1      10.466  15.343  18.220  0.00  0.00    +0.000 A 
ATOM      7  C   UNL     1      10.445  16.178  17.091  0.00  0.00    +0.000 A 
ATOM      8  C   UNL     1      10.418  17.569  17.267  0.00  0.00    +0.000 A 
ATOM      9  C   UNL     1      10.419  18.117  18.545  0.00  0.00    +0.000 A 
ATOM     10  C   UNL     1      10.444  17.301  19.681  0.00  0.00    +0.000 A 
ATOM     11  C   UNL     1      10.466  15.908  19.494  0.00  0.00    +0.000 A 
ATOM     12  C   UNL     1      10.377  12.864  17.365  0.00  0.00    +0.000 C 
ATOM     13  C   UNL     1      10.779  11.531  18.003  0.00  0.00    +0.000 C 
ATOM     14  N   UNL     1      10.163  11.329  19.321  0.00  0.00    +0.000 N 
ATOM     15  C   UNL     1      10.274  12.319  20.305  0.00  0.00    +0.000 C 
ATOM     16  O   UNL     1      10.120  12.074  21.498  0.00  0.00    +0.000 OA
ENDBRANCH   1  14
BRANCH   1  17
ATOM     17  C   UNL     1       8.751   9.702  18.115  0.00  0.00    +0.000 C 
BRANCH  17  18
ATOM     18  C   UNL     1       8.383   8.229  18.280  0.00  0.00    +0.000 C 
BRANCH  18  19
ATOM     19  C   UNL     1       7.107   7.897  17.493  0.00  0.00    +0.000 C 
BRANCH  19  20
ATOM     20  N   UNL     1       7.048   6.505  17.019  0.00  0.00    +0.000 NA
ATOM     21  C   UNL     1       7.060   5.505  18.116  0.00  0.00    +0.000 C 
ATOM     22  C   UNL     1       5.790   5.484  19.000  0.00  0.00    +0.000 C 
ATOM     23  N   UNL     1       4.620   5.275  18.139  0.00  0.00    +0.000 N 
ATOM     24  C   UNL     1       4.489   6.237  17.034  0.00  0.00    +0.000 C 
ATOM     25  C   UNL     1       5.810   6.284  16.219  0.00  0.00    +0.000 C 
BRANCH  23  26
ATOM     26  C   UNL     1       3.537   4.530  18.563  0.00  0.00    +0.000 A 
ATOM     27  C   UNL     1       2.435   4.268  17.737  0.00  0.00    +0.000 A 
ATOM     28  C   UNL     1       1.314   3.576  18.207  0.00  0.00    +0.000 A 
ATOM     29  C   UNL     1       1.270   3.129  19.524  0.00  0.00    +0.000 A 
ATOM     30  C   UNL     1       2.349   3.372  20.365  0.00  0.00    +0.000 A 
ATOM     31  C   UNL     1       3.466   4.062  19.886  0.00  0.00    +0.000 A 
ENDBRANCH  23  26
ENDBRANCH  19  20
ENDBRANCH  18  19
ENDBRANCH  17  18
ENDBRANCH   1  17
TORSDOF 6
ENDMDL
MODEL 4
REMARK VINA RESULT:      -8.5      2.103     11.639
REMARK  Name = 
REMARK  7 active torsions:
REMARK  status: ('A' for Active; 'I' for Inactive)
REMARK    1  A    between atoms: C_1  and  N_2
REMARK    2  A    between atoms: N_13  and  C_14
REMARK    3  A    between atoms: C_14  and  C_15
REMARK    4  A    between atoms: C_15  and  C_16
REMARK    5  A    between atoms: C_16  and  C_17
REMARK    6  A    between atoms: C_17  and  N_18
REMARK    7  A    between atoms: N_21  and  C_22
REMARK                            x       y       z     vdW  Elec       q    Type
REMARK                         _______ _______ _______ _____ _____    ______ ____
ROOT
ATOM      1  C   UNL     1       9.046   9.832  19.382  0.00  0.00    +0.000 C 
ENDROOT
BRANCH   1  14
ATOM      2  C   UNL     1       8.512  14.878  21.385  0.00  0.00    +0.000 C 
ATOM      3  N   UNL     1       9.291  14.568  20.207  0.00  0.00    +0.000 N 
ATOM      4  C   UNL     1       9.721  13.325  19.797  0.00  0.00    +0.000 A 
ATOM      5  C   UNL     1      10.376  13.504  18.583  0.00  0.00    +0.000 A 
ATOM      6  C   UNL     1      10.320  14.872  18.235  0.00  0.00    +0.000 A 
ATOM      7  C   UNL     1      10.766  15.606  17.123  0.00  0.00    +0.000 A 
ATOM      8  C   UNL     1      10.510  16.983  17.063  0.00  0.00    +0.000 A 
ATOM      9  C   UNL     1       9.829  17.619  18.095  0.00  0.00    +0.000 A 
ATOM     10  C   UNL     1       9.382  16.905  19.212  0.00  0.00    +0.000 A 
ATOM     11  C   UNL     1       9.638  15.524  19.260  0.00  0.00    +0.000 A 
ATOM     12  C   UNL     1      10.923  12.355  17.807  0.00  0.00    +0.000 C 
ATOM     13  C   UNL     1      11.099  11.156  18.743  0.00  0.00    +0.000 C 
ATOM     14  N   UNL     1       9.942  10.956  19.627  0.00  0.00    +0.000 N 
ATOM     15  C   UNL     1       9.453  12.023  20.392  0.00  0.00    +0.000 C 
ATOM     16  O   UNL     1       8.763  11.845  21.391  0.00  0.00    +0.000 OA
ENDBRANCH   1  14
BRANCH   1  17
ATOM     17  C   UNL     1       8.697   9.715  17.893  0.00  0.00    +0.000 C 
BRANCH  17  18
ATOM     18  C   UNL     1       7.520   8.770  17.665  0.00  0.00    +0.000 C 
BRANCH  18  19
ATOM     19  C   UNL     1       7.871   7.347  18.121  0.00  0.00    +0.000 C 
BRANCH  19  20
ATOM     20  N   UNL     1       7.522   6.307  17.140  0.00  0.00    +0.000 NA
ATOM     21  C   UNL     1       7.462   4.942  17.721  0.00  0.00    +0.000 C 
ATOM     22  C   UNL     1       6.297   4.701  18.711  0.00  0.00    +0.000 C 
ATOM     23  N   UNL     1       5.033   5.020  18.038  0.00  0.00    +0.000 N 
ATOM     24  C   UNL     1       4.970   6.368  17.454  0.00  0.00    +0.000 C 
ATOM     25  C   UNL     1       6.195   6.597  16.528  0.00  0.00    +0.000 C 
BRANCH  23  26
ATOM     26  C   UNL     1       3.880   4.302  18.292  0.00  0.00    +0.000 A 
ATOM     27  C   UNL     1       3.891   3.078  18.976  0.00  0.00    +0.000 A 
ATOM     28  C   UNL     1       2.725   2.328  19.158  0.00  0.00    +0.000 A 
ATOM     29  C   UNL     1       1.513   2.789  18.655  0.00  0.00    +0.000 A 
ATOM     30  C   UNL     1       1.470   4.000  17.974  0.00  0.00    +0.000 A 
ATOM     31  C   UNL     1       2.641   4.744  17.800  0.00  0.00    +0.000 A 
ENDBRANCH  23  26
ENDBRANCH  19  20
ENDBRANCH  18  19
ENDBRANCH  17  18
ENDBRANCH   1  17
TORSDOF 6
ENDMDL
MODEL 5
REMARK VINA RESULT:      -8.4      2.763     11.592
REMARK  Name = 
REMARK  7 active torsions:
REMARK  status: ('A' for Active; 'I' for Inactive)
REMARK    1  A    between atoms: C_1  and  N_2
REMARK    2  A    between atoms: N_13  and  C_14
REMARK    3  A    between atoms: C_14  and  C_15
REMARK    4  A    between atoms: C_15  and  C_16
REMARK    5  A    between atoms: C_16  and  C_17
REMARK    6  A    between atoms: C_17  and  N_18
REMARK    7  A    between atoms: N_21  and  C_22
REMARK                            x       y       z     vdW  Elec       q    Type
REMARK                         _______ _______ _______ _____ _____    ______ ____
ROOT
ATOM      1  C   UNL     1       9.006   9.880  19.439  0.00  0.00    +0.000 C 
ENDROOT
BRANCH   1  14
ATOM      2  C   UNL     1       9.440  14.445  22.394  0.00  0.00    +0.000 C 
ATOM      3  N   UNL     1       9.008  14.428  21.013  0.00  0.00    +0.000 N 
ATOM      4  C   UNL     1       9.141  13.394  20.112  0.00  0.00    +0.000 A 
ATOM      5  C   UNL     1       8.527  13.805  18.934  0.00  0.00    +0.000 A 
ATOM      6  C   UNL     1       7.987  15.096  19.129  0.00  0.00    +0.000 A 
ATOM      7  C   UNL     1       7.238  15.964  18.316  0.00  0.00    +0.000 A 
ATOM      8  C   UNL     1       6.809  17.192  18.839  0.00  0.00    +0.000 A 
ATOM      9  C   UNL     1       7.127  17.553  20.144  0.00  0.00    +0.000 A 
ATOM     10  C   UNL     1       7.876  16.703  20.965  0.00  0.00    +0.000 A 
ATOM     11  C   UNL     1       8.296  15.471  20.434  0.00  0.00    +0.000 A 
ATOM     12  C   UNL     1       8.420  12.907  17.748  0.00  0.00    +0.000 C 
ATOM     13  C   UNL     1       9.470  11.798  17.864  0.00  0.00    +0.000 C 
ATOM     14  N   UNL     1       9.533  11.221  19.213  0.00  0.00    +0.000 N 
ATOM     15  C   UNL     1       9.678  12.058  20.327  0.00  0.00    +0.000 C 
ATOM     16  O   UNL     1      10.100  11.644  21.402  0.00  0.00    +0.000 OA
ENDBRANCH   1  14
BRANCH   1  17
ATOM     17  C   UNL     1       8.401   9.299  18.154  0.00  0.00    +0.000 C 
BRANCH  17  18
ATOM     18  C   UNL     1       8.164   7.795  18.276  0.00  0.00    +0.000 C 
BRANCH  18  19
ATOM     19  C   UNL     1       6.982   7.360  17.398  0.00  0.00    +0.000 C 
BRANCH  19  20
ATOM     20  N   UNL     1       6.881   5.903  17.219  0.00  0.00    +0.000 NA
ATOM     21  C   UNL     1       6.773   5.155  18.498  0.00  0.00    +0.000 C 
ATOM     22  C   UNL     1       5.450   5.368  19.272  0.00  0.00    +0.000 C 
ATOM     23  N   UNL     1       4.328   5.026  18.391  0.00  0.00    +0.000 N 
ATOM     24  C   UNL     1       4.316   5.739  17.104  0.00  0.00    +0.000 C 
ATOM     25  C   UNL     1       5.686   5.565  16.395  0.00  0.00    +0.000 C 
BRANCH  23  26
ATOM     26  C   UNL     1       3.184   4.428  18.880  0.00  0.00    +0.000 A 
ATOM     27  C   UNL     1       2.776   4.562  20.215  0.00  0.00    +0.000 A 
ATOM     28  C   UNL     1       1.656   3.889  20.712  0.00  0.00    +0.000 A 
ATOM     29  C   UNL     1       0.913   3.057  19.879  0.00  0.00    +0.000 A 
ATOM     30  C   UNL     1       1.292   2.906  18.551  0.00  0.00    +0.000 A 
ATOM     31  C   UNL     1       2.411   3.586  18.062  0.00  0.00    +0.000 A 
ENDBRANCH  23  26
ENDBRANCH  19  20
ENDBRANCH  18  19
ENDBRANCH  17  18
ENDBRANCH   1  17
TORSDOF 6
ENDMDL
MODEL 6
REMARK VINA RESULT:      -8.1      0.662      1.013
REMARK  Name = 
REMARK  7 active torsions:
REMARK  status: ('A' for Active; 'I' for Inactive)
REMARK    1  A    between atoms: C_1  and  N_2
REMARK    2  A    between atoms: N_13  and  C_14
REMARK    3  A    between atoms: C_14  and  C_15
REMARK    4  A    between atoms: C_15  and  C_16
REMARK    5  A    between atoms: C_16  and  C_17
REMARK    6  A    between atoms: C_17  and  N_18
REMARK    7  A    between atoms: N_21  and  C_22
REMARK                            x       y       z     vdW  Elec       q    Type
REMARK                         _______ _______ _______ _____ _____    ______ ____
ROOT
ATOM      1  C   UNL     1       7.801   7.953  17.540  0.00  0.00    +0.000 C 
ENDROOT
BRANCH   1  14
ATOM      2  C   UNL     1       5.173   3.877  15.041  0.00  0.00    +0.000 C 
ATOM      3  N   UNL     1       5.214   4.035  16.479  0.00  0.00    +0.000 N 
ATOM      4  C   UNL     1       6.068   4.837  17.204  0.00  0.00    +0.000 A 
ATOM      5  C   UNL     1       5.698   4.717  18.539  0.00  0.00    +0.000 A 
ATOM      6  C   UNL     1       4.584   3.852  18.626  0.00  0.00    +0.000 A 
ATOM      7  C   UNL     1       3.783   3.412  19.693  0.00  0.00    +0.000 A 
ATOM      8  C   UNL     1       2.698   2.564  19.430  0.00  0.00    +0.000 A 
ATOM      9  C   UNL     1       2.422   2.155  18.130  0.00  0.00    +0.000 A 
ATOM     10  C   UNL     1       3.212   2.580  17.057  0.00  0.00    +0.000 A 
ATOM     11  C   UNL     1       4.294   3.435  17.329  0.00  0.00    +0.000 A 
ATOM     12  C   UNL     1       6.370   5.501  19.615  0.00  0.00    +0.000 C 
ATOM     13  C   UNL     1       7.735   5.977  19.110  0.00  0.00    +0.000 C 
ATOM     14  N   UNL     1       7.675   6.515  17.744  0.00  0.00    +0.000 N 
ATOM     15  C   UNL     1       7.084   5.763  16.721  0.00  0.00    +0.000 C 
ATOM     16  O   UNL     1       7.325   5.972  15.536  0.00  0.00    +0.000 OA
ENDBRANCH   1  14
BRANCH   1  17
ATOM     17  C   UNL     1       8.742   8.580  18.577  0.00  0.00    +0.000 C 
BRANCH  17  18
ATOM     18  C   UNL     1       8.553  10.093  18.663  0.00  0.00    +0.000 C 
BRANCH  18  19
ATOM     19  C   UNL     1       9.703  10.824  17.955  0.00  0.00    +0.000 C 
BRANCH  19  20
ATOM     20  N   UNL     1      10.706  11.383  18.874  0.00  0.00    +0.000 NA
ATOM     21  C   UNL     1      11.780  12.143  18.187  0.00  0.00    +0.000 C 
ATOM     22  C   UNL     1      11.329  13.470  17.531  0.00  0.00    +0.000 C 
ATOM     23  N   UNL     1      10.692  14.308  18.552  0.00  0.00    +0.000 N 
ATOM     24  C   UNL     1       9.585  13.664  19.275  0.00  0.00    +0.000 C 
ATOM     25  C   UNL     1      10.056  12.302  19.852  0.00  0.00    +0.000 C 
BRANCH  23  26
ATOM     26  C   UNL     1      10.829  15.682  18.545  0.00  0.00    +0.000 A 
ATOM     27  C   UNL     1      10.516  16.476  19.658  0.00  0.00    +0.000 A 
ATOM     28  C   UNL     1      10.589  17.871  19.609  0.00  0.00    +0.000 A 
ATOM     29  C   UNL     1      10.980  18.510  18.436  0.00  0.00    +0.000 A 
ATOM     30  C   UNL     1      11.298  17.750  17.318  0.00  0.00    +0.000 A 
ATOM     31  C   UNL     1      11.225  16.355  17.377  0.00  0.00    +0.000 A 
ENDBRANCH  23  26
ENDBRANCH  19  20
ENDBRANCH  18  19
ENDBRANCH  17  18
ENDBRANCH   1  17
TORSDOF 6
ENDMDL
MODEL 7
REMARK VINA RESULT:      -7.9      7.342     10.631
REMARK  Name = 
REMARK  7 active torsions:
REMARK  status: ('A' for Active; 'I' for Inactive)
REMARK    1  A    between atoms: C_1  and  N_2
REMARK    2  A    between atoms: N_13  and  C_14
REMARK    3  A    between atoms: C_14  and  C_15
REMARK    4  A    between atoms: C_15  and  C_16
REMARK    5  A    between atoms: C_16  and  C_17
REMARK    6  A    between atoms: C_17  and  N_18
REMARK    7  A    between atoms: N_21  and  C_22
REMARK                            x       y       z     vdW  Elec       q    Type
REMARK                         _______ _______ _______ _____ _____    ______ ____
ROOT
ATOM      1  C   UNL     1       2.396   6.317  20.055  0.00  0.00    +0.000 C 
ENDROOT
BRANCH   1  14
ATOM      2  C   UNL     1      -0.457  10.522  22.039  0.00  0.00    +0.000 C 
ATOM      3  N   UNL     1      -0.295  10.267  20.625  0.00  0.00    +0.000 N 
ATOM      4  C   UNL     1       0.622   9.428  20.030  0.00  0.00    +0.000 A 
ATOM      5  C   UNL     1       0.363   9.451  18.664  0.00  0.00    +0.000 A 
ATOM      6  C   UNL     1      -0.745  10.295  18.425  0.00  0.00    +0.000 A 
ATOM      7  C   UNL     1      -1.458  10.651  17.268  0.00  0.00    +0.000 A 
ATOM      8  C   UNL     1      -2.566  11.502  17.381  0.00  0.00    +0.000 A 
ATOM      9  C   UNL     1      -2.952  11.996  18.623  0.00  0.00    +0.000 A 
ATOM     10  C   UNL     1      -2.251  11.655  19.784  0.00  0.00    +0.000 A 
ATOM     11  C   UNL     1      -1.145  10.797  19.662  0.00  0.00    +0.000 A 
ATOM     12  C   UNL     1       1.127   8.604  17.703  0.00  0.00    +0.000 C 
ATOM     13  C   UNL     1       2.448   8.180  18.351  0.00  0.00    +0.000 C 
ATOM     14  N   UNL     1       2.278   7.736  19.741  0.00  0.00    +0.000 N 
ATOM     15  C   UNL     1       1.599   8.550  20.658  0.00  0.00    +0.000 C 
ATOM     16  O   UNL     1       1.742   8.425  21.870  0.00  0.00    +0.000 OA
ENDBRANCH   1  14
BRANCH   1  17
ATOM     17  C   UNL     1       1.046   5.732  20.490  0.00  0.00    +0.000 C 
BRANCH  17  18
ATOM     18  C   UNL     1       1.012   4.215  20.322  0.00  0.00    +0.000 C 
BRANCH  18  19
ATOM     19  C   UNL     1       2.357   3.594  20.724  0.00  0.00    +0.000 C 
BRANCH  19  20
ATOM     20  N   UNL     1       2.807   2.519  19.826  0.00  0.00    +0.000 NA
ATOM     21  C   UNL     1       2.411   2.726  18.410  0.00  0.00    +0.000 C 
ATOM     22  C   UNL     1       3.114   3.907  17.698  0.00  0.00    +0.000 C 
ATOM     23  N   UNL     1       4.566   3.719  17.794  0.00  0.00    +0.000 N 
ATOM     24  C   UNL     1       5.073   3.538  19.162  0.00  0.00    +0.000 C 
ATOM     25  C   UNL     1       4.291   2.398  19.867  0.00  0.00    +0.000 C 
BRANCH  23  26
ATOM     26  C   UNL     1       5.410   4.093  16.768  0.00  0.00    +0.000 A 
ATOM     27  C   UNL     1       6.452   5.014  16.948  0.00  0.00    +0.000 A 
ATOM     28  C   UNL     1       7.251   5.438  15.881  0.00  0.00    +0.000 A 
ATOM     29  C   UNL     1       7.021   4.947  14.599  0.00  0.00    +0.000 A 
ATOM     30  C   UNL     1       5.997   4.032  14.390  0.00  0.00    +0.000 A 
ATOM     31  C   UNL     1       5.206   3.612  15.464  0.00  0.00    +0.000 A 
ENDBRANCH  23  26
ENDBRANCH  19  20
ENDBRANCH  18  19
ENDBRANCH  17  18
ENDBRANCH   1  17
TORSDOF 6
ENDMDL
MODEL 8
REMARK VINA RESULT:      -7.9      9.223     11.227
REMARK  Name = 
REMARK  7 active torsions:
REMARK  status: ('A' for Active; 'I' for Inactive)
REMARK    1  A    between atoms: C_1  and  N_2
REMARK    2  A    between atoms: N_13  and  C_14
REMARK    3  A    between atoms: C_14  and  C_15
REMARK    4  A    between atoms: C_15  and  C_16
REMARK    5  A    between atoms: C_16  and  C_17
REMARK    6  A    between atoms: C_17  and  N_18
REMARK    7  A    between atoms: N_21  and  C_22
REMARK                            x       y       z     vdW  Elec       q    Type
REMARK                         _______ _______ _______ _____ _____    ______ ____
ROOT
ATOM      1  C   UNL     1       0.392   9.700  18.526  0.00  0.00    +0.000 C 
ENDROOT
BRANCH   1  14
ATOM      2  C   UNL     1       4.058   5.886  17.195  0.00  0.00    +0.000 C 
ATOM      3  N   UNL     1       3.334   5.891  18.448  0.00  0.00    +0.000 N 
ATOM      4  C   UNL     1       2.623   6.938  18.993  0.00  0.00    +0.000 A 
ATOM      5  C   UNL     1       2.046   6.465  20.167  0.00  0.00    +0.000 A 
ATOM      6  C   UNL     1       2.387   5.103  20.325  0.00  0.00    +0.000 A 
ATOM      7  C   UNL     1       2.056   4.127  21.280  0.00  0.00    +0.000 A 
ATOM      8  C   UNL     1       2.539   2.821  21.121  0.00  0.00    +0.000 A 
ATOM      9  C   UNL     1       3.342   2.494  20.034  0.00  0.00    +0.000 A 
ATOM     10  C   UNL     1       3.686   3.454  19.076  0.00  0.00    +0.000 A 
ATOM     11  C   UNL     1       3.192   4.759  19.241  0.00  0.00    +0.000 A 
ATOM     12  C   UNL     1       1.144   7.314  20.998  0.00  0.00    +0.000 C 
ATOM     13  C   UNL     1       1.390   8.787  20.659  0.00  0.00    +0.000 C 
ATOM     14  N   UNL     1       1.487   9.023  19.212  0.00  0.00    +0.000 N 
ATOM     15  C   UNL     1       2.366   8.258  18.434  0.00  0.00    +0.000 C 
ATOM     16  O   UNL     1       2.762   8.635  17.336  0.00  0.00    +0.000 OA
ENDBRANCH   1  14
BRANCH   1  17
ATOM     17  C   UNL     1      -0.635  10.245  19.527  0.00  0.00    +0.000 C 
BRANCH  17  18
ATOM     18  C   UNL     1      -0.410  11.729  19.810  0.00  0.00    +0.000 C 
BRANCH  18  19
ATOM     19  C   UNL     1      -0.338  11.988  21.322  0.00  0.00    +0.000 C 
BRANCH  19  20
ATOM     20  N   UNL     1      -0.937  13.267  21.734  0.00  0.00    +0.000 NA
ATOM     21  C   UNL     1      -2.025  13.728  20.834  0.00  0.00    +0.000 C 
ATOM     22  C   UNL     1      -3.311  12.869  20.867  0.00  0.00    +0.000 C 
ATOM     23  N   UNL     1      -3.796  12.798  22.250  0.00  0.00    +0.000 N 
ATOM     24  C   UNL     1      -2.805  12.317  23.225  0.00  0.00    +0.000 C 
ATOM     25  C   UNL     1      -1.503  13.154  23.107  0.00  0.00    +0.000 C 
BRANCH  23  26
ATOM     26  C   UNL     1      -5.146  12.775  22.541  0.00  0.00    +0.000 A 
ATOM     27  C   UNL     1      -6.128  12.663  21.546  0.00  0.00    +0.000 A 
ATOM     28  C   UNL     1      -7.492  12.718  21.851  0.00  0.00    +0.000 A 
ATOM     29  C   UNL     1      -7.906  12.888  23.168  0.00  0.00    +0.000 A 
ATOM     30  C   UNL     1      -6.956  12.999  24.176  0.00  0.00    +0.000 A 
ATOM     31  C   UNL     1      -5.595  12.941  23.862  0.00  0.00    +0.000 A 
ENDBRANCH  23  26
ENDBRANCH  19  20
ENDBRANCH  18  19
ENDBRANCH  17  18
ENDBRANCH   1  17
TORSDOF 6
ENDMDL
MODEL 9
REMARK VINA RESULT:      -7.9      2.164     11.835
REMARK  Name = 
REMARK  7 active torsions:
REMARK  status: ('A' for Active; 'I' for Inactive)
REMARK    1  A    between atoms: C_1  and  N_2
REMARK    2  A    between atoms: N_13  and  C_14
REMARK    3  A    between atoms: C_14  and  C_15
REMARK    4  A    between atoms: C_15  and  C_16
REMARK    5  A    between atoms: C_16  and  C_17
REMARK    6  A    between atoms: C_17  and  N_18
REMARK    7  A    between atoms: N_21  and  C_22
REMARK                            x       y       z     vdW  Elec       q    Type
REMARK                         _______ _______ _______ _____ _____    ______ ____
ROOT
ATOM      1  C   UNL     1       8.461  10.274  18.608  0.00  0.00    +0.000 C 
ENDROOT
BRANCH   1  14
ATOM      2  C   UNL     1      12.333  14.075  19.176  0.00  0.00    +0.000 C 
ATOM      3  N   UNL     1      10.975  14.375  18.774  0.00  0.00    +0.000 N 
ATOM      4  C   UNL     1      10.024  13.484  18.328  0.00  0.00    +0.000 A 
ATOM      5  C   UNL     1       8.856  14.211  18.122  0.00  0.00    +0.000 A 
ATOM      6  C   UNL     1       9.091  15.559  18.475  0.00  0.00    +0.000 A 
ATOM      7  C   UNL     1       8.280  16.706  18.510  0.00  0.00    +0.000 A 
ATOM      8  C   UNL     1       8.824  17.916  18.960  0.00  0.00    +0.000 A 
ATOM      9  C   UNL     1      10.154  17.986  19.361  0.00  0.00    +0.000 A 
ATOM     10  C   UNL     1      10.977  16.855  19.329  0.00  0.00    +0.000 A 
ATOM     11  C   UNL     1      10.422  15.645  18.881  0.00  0.00    +0.000 A 
ATOM     12  C   UNL     1       7.586  13.556  17.695  0.00  0.00    +0.000 C 
ATOM     13  C   UNL     1       7.911  12.198  17.067  0.00  0.00    +0.000 C 
ATOM     14  N   UNL     1       8.898  11.438  17.845  0.00  0.00    +0.000 N 
ATOM     15  C   UNL     1      10.111  12.035  18.210  0.00  0.00    +0.000 C 
ATOM     16  O   UNL     1      11.098  11.373  18.518  0.00  0.00    +0.000 OA
ENDBRANCH   1  14
BRANCH   1  17
ATOM     17  C   UNL     1       8.568   8.992  17.771  0.00  0.00    +0.000 C 
BRANCH  17  18
ATOM     18  C   UNL     1       7.223   8.278  17.666  0.00  0.00    +0.000 C 
BRANCH  18  19
ATOM     19  C   UNL     1       7.423   6.786  17.362  0.00  0.00    +0.000 C 
BRANCH  19  20
ATOM     20  N   UNL     1       6.464   6.246  16.386  0.00  0.00    +0.000 NA
ATOM     21  C   UNL     1       6.259   4.780  16.507  0.00  0.00    +0.000 C 
ATOM     22  C   UNL     1       5.533   4.324  17.795  0.00  0.00    +0.000 C 
ATOM     23  N   UNL     1       4.246   5.023  17.884  0.00  0.00    +0.000 N 
ATOM     24  C   UNL     1       4.336   6.489  17.810  0.00  0.00    +0.000 C 
ATOM     25  C   UNL     1       5.137   6.903  16.547  0.00  0.00    +0.000 C 
BRANCH  23  26
ATOM     26  C   UNL     1       3.126   4.406  18.405  0.00  0.00    +0.000 A 
ATOM     27  C   UNL     1       2.435   4.914  19.514  0.00  0.00    +0.000 A 
ATOM     28  C   UNL     1       1.347   4.236  20.075  0.00  0.00    +0.000 A 
ATOM     29  C   UNL     1       0.924   3.026  19.534  0.00  0.00    +0.000 A 
ATOM     30  C   UNL     1       1.588   2.500  18.433  0.00  0.00    +0.000 A 
ATOM     31  C   UNL     1       2.672   3.185  17.878  0.00  0.00    +0.000 A 
ENDBRANCH  23  26
ENDBRANCH  19  20
ENDBRANCH  18  19
ENDBRANCH  17  18
ENDBRANCH   1  17
TORSDOF 6
ENDMDL
