MODEL 1
REMARK VINA RESULT:      -7.7      0.000      0.000
REMARK  Name = 
REMARK  6 active torsions:
REMARK  status: ('A' for Active; 'I' for Inactive)
REMARK    1  A    between atoms: C_1  and  N_2
REMARK    2  A    between atoms: N_2  and  C_3
REMARK    3  A    between atoms: N_2  and  C_18
REMARK    4  A    between atoms: C_3  and  C_4
REMARK    5  A    between atoms: C_4  and  N_5
REMARK    6  A    between atoms: C_18  and  C_19
REMARK                            x       y       z     vdW  Elec       q    Type
REMARK                         _______ _______ _______ _____ _____    ______ ____
ROOT
ATOM      1  N   UNL     1       2.807   7.554  18.015  0.00  0.00    +0.000 N 
ATOM      2  C   UNL     1       2.156   7.671  19.224  0.00  0.00    +0.000 C 
ATOM      3  O   UNL     1       2.126   6.738  20.022  0.00  0.00    +0.000 OA
ATOM      4  N   UNL     1       1.544   8.901  19.436  0.00  0.00    +0.000 N 
ATOM      5  C   UNL     1       1.500   9.995  18.573  0.00  0.00    +0.000 A 
ATOM      6  O   UNL     1       2.017  10.065  17.462  0.00  0.00    +0.000 OA
ATOM      7  O   UNL     1       0.795  11.068  19.129  0.00  0.00    +0.000 OA
ATOM      8  C   UNL     1       0.437  10.573  20.367  0.00  0.00    +0.000 A 
ATOM      9  C   UNL     1      -0.251  11.291  21.322  0.00  0.00    +0.000 A 
ATOM     10  C   UNL     1      -0.526  10.651  22.533  0.00  0.00    +0.000 A 
ATOM     11  C   UNL     1      -0.121   9.321  22.746  0.00  0.00    +0.000 A 
ATOM     12  C   UNL     1       0.577   8.615  21.759  0.00  0.00    +0.000 A 
ATOM     13  C   UNL     1       0.854   9.274  20.577  0.00  0.00    +0.000 A 
ATOM     14  H   UNL     1       2.934   8.390  17.446  0.00  0.00    +0.000 HD
ENDROOT
BRANCH   1  15
ATOM     15  C   UNL     1       3.430   6.321  17.582  0.00  0.00    +0.000 C 
BRANCH  15  16
ATOM     16  C   UNL     1       4.697   5.987  18.392  0.00  0.00    +0.000 C 
BRANCH  16  18
ATOM     17  C   UNL     1       6.198   4.384  17.362  0.00  0.00    +0.000 C 
ATOM     18  N   UNL     1       5.101   4.565  18.323  0.00  0.00    +0.000 NA
BRANCH  18  19
ATOM     19  C   UNL     1       3.933   3.743  17.938  0.00  0.00    +0.000 C 
BRANCH  19  20
ATOM     20  C   UNL     1       3.010   3.422  19.098  0.00  0.00    +0.000 A 
ATOM     21  C   UNL     1       3.529   3.017  20.336  0.00  0.00    +0.000 A 
ATOM     22  C   UNL     1       2.672   2.682  21.387  0.00  0.00    +0.000 A 
ATOM     23  C   UNL     1       1.291   2.753  21.213  0.00  0.00    +0.000 A 
ATOM     24  C   UNL     1       0.765   3.158  19.987  0.00  0.00    +0.000 A 
ATOM     25  C   UNL     1       1.619   3.493  18.935  0.00  0.00    +0.000 A 
ENDBRANCH  19  20
ENDBRANCH  18  19
ENDBRANCH  16  18
ENDBRANCH  15  16
ENDBRANCH   1  15
TORSDOF 5
ENDMDL
MODEL 2
REMARK VINA RESULT:      -7.7      3.411      7.975
REMARK  Name = 
REMARK  6 active torsions:
REMARK  status: ('A' for Active; 'I' for Inactive)
REMARK    1  A    between atoms: C_1  and  N_2
REMARK    2  A    between atoms: N_2  and  C_3
REMARK    3  A    between atoms: N_2  and  C_18
REMARK    4  A    between atoms: C_3  and  C_4
REMARK    5  A    between atoms: C_4  and  N_5
REMARK    6  A    between atoms: C_18  and  C_19
REMARK                            x       y       z     vdW  Elec       q    Type
REMARK                         _______ _______ _______ _____ _____    ______ ____
ROOT
ATOM      1  N   UNL     1       5.334   4.477  17.968  0.00  0.00    +0.000 N 
ATOM      2  C   UNL     1       5.248   4.003  16.677  0.00  0.00    +0.000 C 
ATOM      3  O   UNL     1       4.407   3.165  16.362  0.00  0.00    +0.000 OA
ATOM      4  N   UNL     1       6.185   4.538  15.800  0.00  0.00    +0.000 N 
ATOM      5  C   UNL     1       7.190   5.461  16.081  0.00  0.00    +0.000 A 
ATOM      6  O   UNL     1       7.414   5.983  17.170  0.00  0.00    +0.000 OA
ATOM      7  O   UNL     1       7.944   5.773  14.944  0.00  0.00    +0.000 OA
ATOM      8  C   UNL     1       7.333   5.009  13.970  0.00  0.00    +0.000 A 
ATOM      9  C   UNL     1       7.698   5.007  12.640  0.00  0.00    +0.000 A 
ATOM     10  C   UNL     1       6.970   4.187  11.775  0.00  0.00    +0.000 A 
ATOM     11  C   UNL     1       5.917   3.391  12.262  0.00  0.00    +0.000 A 
ATOM     12  C   UNL     1       5.567   3.413  13.617  0.00  0.00    +0.000 A 
ATOM     13  C   UNL     1       6.288   4.245  14.451  0.00  0.00    +0.000 A 
ATOM     14  H   UNL     1       5.942   5.272  18.157  0.00  0.00    +0.000 HD
ENDROOT
BRANCH   1  15
ATOM     15  C   UNL     1       4.497   3.975  19.039  0.00  0.00    +0.000 C 
BRANCH  15  16
ATOM     16  C   UNL     1       3.826   5.107  19.838  0.00  0.00    +0.000 C 
BRANCH  16  18
ATOM     17  C   UNL     1       1.890   4.475  18.521  0.00  0.00    +0.000 C 
ATOM     18  N   UNL     1       2.533   5.558  19.277  0.00  0.00    +0.000 NA
BRANCH  18  19
ATOM     19  C   UNL     1       2.759   6.734  18.409  0.00  0.00    +0.000 C 
BRANCH  19  20
ATOM     20  C   UNL     1       2.031   7.980  18.874  0.00  0.00    +0.000 A 
ATOM     21  C   UNL     1       1.638   8.123  20.213  0.00  0.00    +0.000 A 
ATOM     22  C   UNL     1       0.930   9.254  20.625  0.00  0.00    +0.000 A 
ATOM     23  C   UNL     1       0.612  10.254  19.707  0.00  0.00    +0.000 A 
ATOM     24  C   UNL     1       1.002  10.124  18.375  0.00  0.00    +0.000 A 
ATOM     25  C   UNL     1       1.709   8.995  17.960  0.00  0.00    +0.000 A 
ENDBRANCH  19  20
ENDBRANCH  18  19
ENDBRANCH  16  18
ENDBRANCH  15  16
ENDBRANCH   1  15
TORSDOF 5
ENDMDL
MODEL 3
REMARK VINA RESULT:      -7.6      3.328      6.274
REMARK  Name = 
REMARK  6 active torsions:
REMARK  status: ('A' for Active; 'I' for Inactive)
REMARK    1  A    between atoms: C_1  and  N_2
REMARK    2  A    between atoms: N_2  and  C_3
REMARK    3  A    between atoms: N_2  and  C_18
REMARK    4  A    between atoms: C_3  and  C_4
REMARK    5  A    between atoms: C_4  and  N_5
REMARK    6  A    between atoms: C_18  and  C_19
REMARK                            x       y       z     vdW  Elec       q    Type
REMARK                         _______ _______ _______ _____ _____    ______ ____
ROOT
ATOM      1  N   UNL     1       4.151   2.728  17.820  0.00  0.00    +0.000 N 
ATOM      2  C   UNL     1       5.077   3.534  18.447  0.00  0.00    +0.000 C 
ATOM      3  O   UNL     1       5.440   3.310  19.598  0.00  0.00    +0.000 OA
ATOM      4  N   UNL     1       5.530   4.600  17.677  0.00  0.00    +0.000 N 
ATOM      5  C   UNL     1       5.147   4.946  16.383  0.00  0.00    +0.000 A 
ATOM      6  O   UNL     1       4.337   4.347  15.681  0.00  0.00    +0.000 OA
ATOM      7  O   UNL     1       5.822   6.083  15.926  0.00  0.00    +0.000 OA
ATOM      8  C   UNL     1       6.637   6.389  16.997  0.00  0.00    +0.000 A 
ATOM      9  C   UNL     1       7.543   7.428  17.013  0.00  0.00    +0.000 A 
ATOM     10  C   UNL     1       8.306   7.599  18.170  0.00  0.00    +0.000 A 
ATOM     11  C   UNL     1       8.133   6.741  19.273  0.00  0.00    +0.000 A 
ATOM     12  C   UNL     1       7.206   5.694  19.229  0.00  0.00    +0.000 A 
ATOM     13  C   UNL     1       6.476   5.533  18.069  0.00  0.00    +0.000 A 
ATOM     14  H   UNL     1       3.985   2.857  16.824  0.00  0.00    +0.000 HD
ENDROOT
BRANCH   1  15
ATOM     15  C   UNL     1       3.503   1.620  18.492  0.00  0.00    +0.000 C 
BRANCH  15  16
ATOM     16  C   UNL     1       2.172   2.029  19.148  0.00  0.00    +0.000 C 
BRANCH  16  18
ATOM     17  C   UNL     1       2.358   2.312  21.550  0.00  0.00    +0.000 C 
ATOM     18  N   UNL     1       2.317   3.002  20.253  0.00  0.00    +0.000 NA
BRANCH  18  19
ATOM     19  C   UNL     1       1.192   3.962  20.211  0.00  0.00    +0.000 C 
BRANCH  19  20
ATOM     20  C   UNL     1       1.589   5.340  19.718  0.00  0.00    +0.000 A 
ATOM     21  C   UNL     1       2.063   5.525  18.412  0.00  0.00    +0.000 A 
ATOM     22  C   UNL     1       2.467   6.790  17.978  0.00  0.00    +0.000 A 
ATOM     23  C   UNL     1       2.397   7.880  18.843  0.00  0.00    +0.000 A 
ATOM     24  C   UNL     1       1.924   7.709  20.143  0.00  0.00    +0.000 A 
ATOM     25  C   UNL     1       1.520   6.446  20.579  0.00  0.00    +0.000 A 
ENDBRANCH  19  20
ENDBRANCH  18  19
ENDBRANCH  16  18
ENDBRANCH  15  16
ENDBRANCH   1  15
TORSDOF 5
ENDMDL
MODEL 4
REMARK VINA RESULT:      -7.6      0.685      1.121
REMARK  Name = 
REMARK  6 active torsions:
REMARK  status: ('A' for Active; 'I' for Inactive)
REMARK    1  A    between atoms: C_1  and  N_2
REMARK    2  A    between atoms: N_2  and  C_3
REMARK    3  A    between atoms: N_2  and  C_18
REMARK    4  A    between atoms: C_3  and  C_4
REMARK    5  A    between atoms: C_4  and  N_5
REMARK    6  A    between atoms: C_18  and  C_19
REMARK                            x       y       z     vdW  Elec       q    Type
REMARK                         _______ _______ _______ _____ _____    ______ ____
ROOT
ATOM      1  N   UNL     1       2.738   7.524  18.047  0.00  0.00    +0.000 N 
ATOM      2  C   UNL     1       2.094   7.663  19.258  0.00  0.00    +0.000 C 
ATOM      3  O   UNL     1       2.042   6.735  20.061  0.00  0.00    +0.000 OA
ATOM      4  N   UNL     1       1.517   8.910  19.466  0.00  0.00    +0.000 N 
ATOM      5  C   UNL     1       1.499  10.001  18.599  0.00  0.00    +0.000 A 
ATOM      6  O   UNL     1       2.014  10.052  17.486  0.00  0.00    +0.000 OA
ATOM      7  O   UNL     1       0.825  11.095  19.151  0.00  0.00    +0.000 OA
ATOM      8  C   UNL     1       0.457  10.615  20.393  0.00  0.00    +0.000 A 
ATOM      9  C   UNL     1      -0.208  11.356  21.347  0.00  0.00    +0.000 A 
ATOM     10  C   UNL     1      -0.496  10.730  22.561  0.00  0.00    +0.000 A 
ATOM     11  C   UNL     1      -0.126   9.389  22.779  0.00  0.00    +0.000 A 
ATOM     12  C   UNL     1       0.550   8.661  21.793  0.00  0.00    +0.000 A 
ATOM     13  C   UNL     1       0.840   9.306  20.607  0.00  0.00    +0.000 A 
ATOM     14  H   UNL     1       2.886   8.353  17.474  0.00  0.00    +0.000 HD
ENDROOT
BRANCH   1  15
ATOM     15  C   UNL     1       3.326   6.271  17.618  0.00  0.00    +0.000 C 
BRANCH  15  16
ATOM     16  C   UNL     1       4.827   6.184  17.951  0.00  0.00    +0.000 C 
BRANCH  16  18
ATOM     17  C   UNL     1       6.576   5.326  19.398  0.00  0.00    +0.000 C 
ATOM     18  N   UNL     1       5.146   5.264  19.066  0.00  0.00    +0.000 NA
BRANCH  18  19
ATOM     19  C   UNL     1       4.760   3.886  18.690  0.00  0.00    +0.000 C 
BRANCH  19  20
ATOM     20  C   UNL     1       3.415   3.461  19.248  0.00  0.00    +0.000 A 
ATOM     21  C   UNL     1       2.412   2.966  18.401  0.00  0.00    +0.000 A 
ATOM     22  C   UNL     1       1.162   2.616  18.916  0.00  0.00    +0.000 A 
ATOM     23  C   UNL     1       0.903   2.752  20.278  0.00  0.00    +0.000 A 
ATOM     24  C   UNL     1       1.894   3.239  21.129  0.00  0.00    +0.000 A 
ATOM     25  C   UNL     1       3.144   3.590  20.618  0.00  0.00    +0.000 A 
ENDBRANCH  19  20
ENDBRANCH  18  19
ENDBRANCH  16  18
ENDBRANCH  15  16
ENDBRANCH   1  15
TORSDOF 5
ENDMDL
MODEL 5
REMARK VINA RESULT:      -7.5      0.811      1.321
REMARK  Name = 
REMARK  6 active torsions:
REMARK  status: ('A' for Active; 'I' for Inactive)
REMARK    1  A    between atoms: C_1  and  N_2
REMARK    2  A    between atoms: N_2  and  C_3
REMARK    3  A    between atoms: N_2  and  C_18
REMARK    4  A    between atoms: C_3  and  C_4
REMARK    5  A    between atoms: C_4  and  N_5
REMARK    6  A    between atoms: C_18  and  C_19
REMARK                            x       y       z     vdW  Elec       q    Type
REMARK                         _______ _______ _______ _____ _____    ______ ____
ROOT
ATOM      1  N   UNL     1       2.708   7.396  18.896  0.00  0.00    +0.000 N 
ATOM      2  C   UNL     1       1.941   7.839  19.952  0.00  0.00    +0.000 C 
ATOM      3  O   UNL     1       1.865   7.196  20.995  0.00  0.00    +0.000 OA
ATOM      4  N   UNL     1       1.273   9.035  19.719  0.00  0.00    +0.000 N 
ATOM      5  C   UNL     1       1.276   9.807  18.559  0.00  0.00    +0.000 A 
ATOM      6  O   UNL     1       1.895   9.564  17.527  0.00  0.00    +0.000 OA
ATOM      7  O   UNL     1       0.486  10.954  18.694  0.00  0.00    +0.000 OA
ATOM      8  C   UNL     1       0.027  10.842  19.991  0.00  0.00    +0.000 A 
ATOM      9  C   UNL     1      -0.772  11.775  20.616  0.00  0.00    +0.000 A 
ATOM     10  C   UNL     1      -1.142  11.523  21.939  0.00  0.00    +0.000 A 
ATOM     11  C   UNL     1      -0.716  10.348  22.588  0.00  0.00    +0.000 A 
ATOM     12  C   UNL     1       0.096   9.418  21.929  0.00  0.00    +0.000 A 
ATOM     13  C   UNL     1       0.464   9.697  20.628  0.00  0.00    +0.000 A 
ATOM     14  H   UNL     1       2.863   8.023  18.107  0.00  0.00    +0.000 HD
ENDROOT
BRANCH   1  15
ATOM     15  C   UNL     1       3.410   6.129  18.920  0.00  0.00    +0.000 C 
BRANCH  15  16
ATOM     16  C   UNL     1       3.598   5.535  17.512  0.00  0.00    +0.000 C 
BRANCH  16  18
ATOM     17  C   UNL     1       5.108   4.075  16.297  0.00  0.00    +0.000 C 
ATOM     18  N   UNL     1       4.271   4.217  17.497  0.00  0.00    +0.000 NA
BRANCH  18  19
ATOM     19  C   UNL     1       3.251   3.147  17.548  0.00  0.00    +0.000 C 
BRANCH  19  20
ATOM     20  C   UNL     1       2.603   2.992  18.911  0.00  0.00    +0.000 A 
ATOM     21  C   UNL     1       1.225   3.196  19.077  0.00  0.00    +0.000 A 
ATOM     22  C   UNL     1       0.643   3.094  20.342  0.00  0.00    +0.000 A 
ATOM     23  C   UNL     1       1.428   2.782  21.450  0.00  0.00    +0.000 A 
ATOM     24  C   UNL     1       2.798   2.573  21.296  0.00  0.00    +0.000 A 
ATOM     25  C   UNL     1       3.382   2.675  20.033  0.00  0.00    +0.000 A 
ENDBRANCH  19  20
ENDBRANCH  18  19
ENDBRANCH  16  18
ENDBRANCH  15  16
ENDBRANCH   1  15
TORSDOF 5
ENDMDL
MODEL 6
REMARK VINA RESULT:      -7.5      1.515      3.351
REMARK  Name = 
REMARK  6 active torsions:
REMARK  status: ('A' for Active; 'I' for Inactive)
REMARK    1  A    between atoms: C_1  and  N_2
REMARK    2  A    between atoms: N_2  and  C_3
REMARK    3  A    between atoms: N_2  and  C_18
REMARK    4  A    between atoms: C_3  and  C_4
REMARK    5  A    between atoms: C_4  and  N_5
REMARK    6  A    between atoms: C_18  and  C_19
REMARK                            x       y       z     vdW  Elec       q    Type
REMARK                         _______ _______ _______ _____ _____    ______ ____
ROOT
ATOM      1  N   UNL     1       2.361   7.355  19.075  0.00  0.00    +0.000 N 
ATOM      2  C   UNL     1       1.640   7.736  20.186  0.00  0.00    +0.000 C 
ATOM      3  O   UNL     1       1.489   6.975  21.138  0.00  0.00    +0.000 OA
ATOM      4  N   UNL     1       1.104   9.017  20.116  0.00  0.00    +0.000 N 
ATOM      5  C   UNL     1       1.196   9.928  19.066  0.00  0.00    +0.000 A 
ATOM      6  O   UNL     1       1.792   9.756  18.006  0.00  0.00    +0.000 OA
ATOM      7  O   UNL     1       0.534  11.126  19.355  0.00  0.00    +0.000 OA
ATOM      8  C   UNL     1       0.058  10.896  20.630  0.00  0.00    +0.000 A 
ATOM      9  C   UNL     1      -0.640  11.821  21.378  0.00  0.00    +0.000 A 
ATOM     10  C   UNL     1      -1.042  11.440  22.660  0.00  0.00    +0.000 A 
ATOM     11  C   UNL     1      -0.748  10.153  23.147  0.00  0.00    +0.000 A 
ATOM     12  C   UNL     1      -0.036   9.234  22.367  0.00  0.00    +0.000 A 
ATOM     13  C   UNL     1       0.366   9.638  21.110  0.00  0.00    +0.000 A 
ATOM     14  H   UNL     1       2.586   8.058  18.373  0.00  0.00    +0.000 HD
ENDROOT
BRANCH   1  15
ATOM     15  C   UNL     1       2.923   6.028  18.930  0.00  0.00    +0.000 C 
BRANCH  15  16
ATOM     16  C   UNL     1       2.068   5.126  18.020  0.00  0.00    +0.000 C 
BRANCH  16  18
ATOM     17  C   UNL     1       1.894   2.712  18.198  0.00  0.00    +0.000 C 
ATOM     18  N   UNL     1       2.702   3.829  17.688  0.00  0.00    +0.000 NA
BRANCH  18  19
ATOM     19  C   UNL     1       4.064   3.789  18.263  0.00  0.00    +0.000 C 
BRANCH  19  20
ATOM     20  C   UNL     1       5.155   4.108  17.258  0.00  0.00    +0.000 A 
ATOM     21  C   UNL     1       6.427   4.517  17.685  0.00  0.00    +0.000 A 
ATOM     22  C   UNL     1       7.412   4.850  16.754  0.00  0.00    +0.000 A 
ATOM     23  C   UNL     1       7.140   4.773  15.390  0.00  0.00    +0.000 A 
ATOM     24  C   UNL     1       5.881   4.364  14.953  0.00  0.00    +0.000 A 
ATOM     25  C   UNL     1       4.894   4.031  15.882  0.00  0.00    +0.000 A 
ENDBRANCH  19  20
ENDBRANCH  18  19
ENDBRANCH  16  18
ENDBRANCH  15  16
ENDBRANCH   1  15
TORSDOF 5
ENDMDL
MODEL 7
REMARK VINA RESULT:      -7.4      1.765      2.955
REMARK  Name = 
REMARK  6 active torsions:
REMARK  status: ('A' for Active; 'I' for Inactive)
REMARK    1  A    between atoms: C_1  and  N_2
REMARK    2  A    between atoms: N_2  and  C_3
REMARK    3  A    between atoms: N_2  and  C_18
REMARK    4  A    between atoms: C_3  and  C_4
REMARK    5  A    between atoms: C_4  and  N_5
REMARK    6  A    between atoms: C_18  and  C_19
REMARK                            x       y       z     vdW  Elec       q    Type
REMARK                         _______ _______ _______ _____ _____    ______ ____
ROOT
ATOM      1  N   UNL     1       1.393   8.917  19.176  0.00  0.00    +0.000 N 
ATOM      2  C   UNL     1       0.444   9.905  19.320  0.00  0.00    +0.000 C 
ATOM      3  O   UNL     1      -0.086  10.426  18.343  0.00  0.00    +0.000 OA
ATOM      4  N   UNL     1       0.167  10.254  20.638  0.00  0.00    +0.000 N 
ATOM      5  C   UNL     1       0.744   9.742  21.798  0.00  0.00    +0.000 A 
ATOM      6  O   UNL     1       1.602   8.866  21.857  0.00  0.00    +0.000 OA
ATOM      7  O   UNL     1       0.211  10.331  22.949  0.00  0.00    +0.000 OA
ATOM      8  C   UNL     1      -0.722  11.204  22.425  0.00  0.00    +0.000 A 
ATOM      9  C   UNL     1      -1.554  12.000  23.183  0.00  0.00    +0.000 A 
ATOM     10  C   UNL     1      -2.455  12.821  22.502  0.00  0.00    +0.000 A 
ATOM     11  C   UNL     1      -2.488  12.832  21.095  0.00  0.00    +0.000 A 
ATOM     12  C   UNL     1      -1.632  12.013  20.350  0.00  0.00    +0.000 A 
ATOM     13  C   UNL     1      -0.762  11.196  21.045  0.00  0.00    +0.000 A 
ATOM     14  H   UNL     1       1.701   8.410  20.005  0.00  0.00    +0.000 HD
ENDROOT
BRANCH   1  15
ATOM     15  C   UNL     1       1.872   8.481  17.881  0.00  0.00    +0.000 C 
BRANCH  15  16
ATOM     16  C   UNL     1       3.334   7.998  17.928  0.00  0.00    +0.000 C 
BRANCH  16  18
ATOM     17  C   UNL     1       4.662   5.990  17.624  0.00  0.00    +0.000 C 
ATOM     18  N   UNL     1       3.487   6.571  18.289  0.00  0.00    +0.000 NA
BRANCH  18  19
ATOM     19  C   UNL     1       2.260   5.835  17.910  0.00  0.00    +0.000 C 
BRANCH  19  20
ATOM     20  C   UNL     1       1.925   4.692  18.848  0.00  0.00    +0.000 A 
ATOM     21  C   UNL     1       1.522   3.447  18.346  0.00  0.00    +0.000 A 
ATOM     22  C   UNL     1       1.174   2.412  19.216  0.00  0.00    +0.000 A 
ATOM     23  C   UNL     1       1.229   2.609  20.595  0.00  0.00    +0.000 A 
ATOM     24  C   UNL     1       1.633   3.842  21.105  0.00  0.00    +0.000 A 
ATOM     25  C   UNL     1       1.981   4.878  20.238  0.00  0.00    +0.000 A 
ENDBRANCH  19  20
ENDBRANCH  18  19
ENDBRANCH  16  18
ENDBRANCH  15  16
ENDBRANCH   1  15
TORSDOF 5
ENDMDL
MODEL 8
REMARK VINA RESULT:      -7.4      1.142      2.150
REMARK  Name = 
REMARK  6 active torsions:
REMARK  status: ('A' for Active; 'I' for Inactive)
REMARK    1  A    between atoms: C_1  and  N_2
REMARK    2  A    between atoms: N_2  and  C_3
REMARK    3  A    between atoms: N_2  and  C_18
REMARK    4  A    between atoms: C_3  and  C_4
REMARK    5  A    between atoms: C_4  and  N_5
REMARK    6  A    between atoms: C_18  and  C_19
REMARK                            x       y       z     vdW  Elec       q    Type
REMARK                         _______ _______ _______ _____ _____    ______ ____
ROOT
ATOM      1  N   UNL     1       3.068   7.250  18.103  0.00  0.00    +0.000 N 
ATOM      2  C   UNL     1       2.370   8.435  18.203  0.00  0.00    +0.000 C 
ATOM      3  O   UNL     1       2.398   9.268  17.302  0.00  0.00    +0.000 OA
ATOM      4  N   UNL     1       1.668   8.593  19.393  0.00  0.00    +0.000 N 
ATOM      5  C   UNL     1       1.610   7.719  20.476  0.00  0.00    +0.000 A 
ATOM      6  O   UNL     1       2.169   6.629  20.560  0.00  0.00    +0.000 OA
ATOM      7  O   UNL     1       0.796   8.212  21.502  0.00  0.00    +0.000 OA
ATOM      8  C   UNL     1       0.357   9.411  20.975  0.00  0.00    +0.000 A 
ATOM      9  C   UNL     1      -0.523  10.263  21.608  0.00  0.00    +0.000 A 
ATOM     10  C   UNL     1      -0.882  11.433  20.936  0.00  0.00    +0.000 A 
ATOM     11  C   UNL     1      -0.345  11.721  19.667  0.00  0.00    +0.000 A 
ATOM     12  C   UNL     1       0.546  10.837  19.047  0.00  0.00    +0.000 A 
ATOM     13  C   UNL     1       0.873   9.678  19.722  0.00  0.00    +0.000 A 
ATOM     14  H   UNL     1       2.904   6.526  18.801  0.00  0.00    +0.000 HD
ENDROOT
BRANCH   1  15
ATOM     15  C   UNL     1       3.923   6.944  16.975  0.00  0.00    +0.000 C 
BRANCH  15  16
ATOM     16  C   UNL     1       5.267   6.328  17.408  0.00  0.00    +0.000 C 
BRANCH  16  18
ATOM     17  C   UNL     1       6.470   5.414  19.307  0.00  0.00    +0.000 C 
ATOM     18  N   UNL     1       5.178   5.468  18.609  0.00  0.00    +0.000 NA
BRANCH  18  19
ATOM     19  C   UNL     1       4.749   4.110  18.207  0.00  0.00    +0.000 C 
BRANCH  19  20
ATOM     20  C   UNL     1       3.406   3.704  18.784  0.00  0.00    +0.000 A 
ATOM     21  C   UNL     1       3.294   3.293  20.120  0.00  0.00    +0.000 A 
ATOM     22  C   UNL     1       2.062   2.880  20.632  0.00  0.00    +0.000 A 
ATOM     23  C   UNL     1       0.931   2.878  19.817  0.00  0.00    +0.000 A 
ATOM     24  C   UNL     1       1.030   3.289  18.489  0.00  0.00    +0.000 A 
ATOM     25  C   UNL     1       2.260   3.702  17.974  0.00  0.00    +0.000 A 
ENDBRANCH  19  20
ENDBRANCH  18  19
ENDBRANCH  16  18
ENDBRANCH  15  16
ENDBRANCH   1  15
TORSDOF 5
ENDMDL
MODEL 9
REMARK VINA RESULT:      -7.4      1.717      3.720
REMARK  Name = 
REMARK  6 active torsions:
REMARK  status: ('A' for Active; 'I' for Inactive)
REMARK    1  A    between atoms: C_1  and  N_2
REMARK    2  A    between atoms: N_2  and  C_3
REMARK    3  A    between atoms: N_2  and  C_18
REMARK    4  A    between atoms: C_3  and  C_4
REMARK    5  A    between atoms: C_4  and  N_5
REMARK    6  A    between atoms: C_18  and  C_19
REMARK                            x       y       z     vdW  Elec       q    Type
REMARK                         _______ _______ _______ _____ _____    ______ ____
ROOT
ATOM      1  N   UNL     1       2.813   6.255  19.611  0.00  0.00    +0.000 N 
ATOM      2  C   UNL     1       1.941   7.192  20.122  0.00  0.00    +0.000 C 
ATOM      3  O   UNL     1       1.356   7.003  21.185  0.00  0.00    +0.000 OA
ATOM      4  N   UNL     1       1.783   8.326  19.334  0.00  0.00    +0.000 N 
ATOM      5  C   UNL     1       2.378   8.604  18.105  0.00  0.00    +0.000 A 
ATOM      6  O   UNL     1       3.172   7.886  17.503  0.00  0.00    +0.000 OA
ATOM      7  O   UNL     1       1.985   9.851  17.606  0.00  0.00    +0.000 OA
ATOM      8  C   UNL     1       1.144  10.311  18.599  0.00  0.00    +0.000 A 
ATOM      9  C   UNL     1       0.527  11.544  18.586  0.00  0.00    +0.000 A 
ATOM     10  C   UNL     1      -0.285  11.869  19.675  0.00  0.00    +0.000 A 
ATOM     11  C   UNL     1      -0.465  10.954  20.729  0.00  0.00    +0.000 A 
ATOM     12  C   UNL     1       0.175   9.709  20.717  0.00  0.00    +0.000 A 
ATOM     13  C   UNL     1       0.987   9.417  19.639  0.00  0.00    +0.000 A 
ATOM     14  H   UNL     1       3.387   6.508  18.808  0.00  0.00    +0.000 HD
ENDROOT
BRANCH   1  15
ATOM     15  C   UNL     1       3.042   4.975  20.249  0.00  0.00    +0.000 C 
BRANCH  15  16
ATOM     16  C   UNL     1       3.731   3.967  19.310  0.00  0.00    +0.000 C 
BRANCH  16  18
ATOM     17  C   UNL     1       2.675   3.627  17.153  0.00  0.00    +0.000 C 
ATOM     18  N   UNL     1       3.716   4.362  17.884  0.00  0.00    +0.000 NA
BRANCH  18  19
ATOM     19  C   UNL     1       5.047   4.104  17.291  0.00  0.00    +0.000 C 
BRANCH  19  20
ATOM     20  C   UNL     1       6.074   5.171  17.620  0.00  0.00    +0.000 A 
ATOM     21  C   UNL     1       6.996   4.982  18.659  0.00  0.00    +0.000 A 
ATOM     22  C   UNL     1       7.911   5.986  18.983  0.00  0.00    +0.000 A 
ATOM     23  C   UNL     1       7.916   7.184  18.272  0.00  0.00    +0.000 A 
ATOM     24  C   UNL     1       7.006   7.381  17.234  0.00  0.00    +0.000 A 
ATOM     25  C   UNL     1       6.091   6.379  16.908  0.00  0.00    +0.000 A 
ENDBRANCH  19  20
ENDBRANCH  18  19
ENDBRANCH  16  18
ENDBRANCH  15  16
ENDBRANCH   1  15
TORSDOF 5
ENDMDL
