MODEL 1
REMARK VINA RESULT:      -7.3      0.000      0.000
REMARK  Name = 
REMARK  5 active torsions:
REMARK  status: ('A' for Active; 'I' for Inactive)
REMARK    1  A    between atoms: C_1  and  O_2
REMARK    2  A    between atoms: O_2  and  C_3
REMARK    3  A    between atoms: C_6  and  N_7
REMARK    4  A    between atoms: N_14  and  C_15
REMARK    5  A    between atoms: C_15  and  C_16
REMARK                            x       y       z     vdW  Elec       q    Type
REMARK                         _______ _______ _______ _____ _____    ______ ____
ROOT
ATOM      1  C   UNL     1       2.257   6.812  19.926  0.00  0.00    +0.000 A 
ATOM      2  C   UNL     1       1.621   8.001  20.216  0.00  0.00    +0.000 A 
ATOM      3  C   UNL     1       1.021   8.334  21.432  0.00  0.00    +0.000 A 
ATOM      4  C   UNL     1       0.453   9.635  21.389  0.00  0.00    +0.000 A 
ATOM      5  C   UNL     1       0.487  10.487  20.233  0.00  0.00    +0.000 A 
ATOM      6  C   UNL     1       1.101  10.110  19.018  0.00  0.00    +0.000 A 
ATOM      7  C   UNL     1       1.677   8.829  19.039  0.00  0.00    +0.000 A 
ATOM      8  N   UNL     1       2.322   8.173  18.073  0.00  0.00    +0.000 NA
ATOM      9  N   UNL     1       2.689   6.981  18.621  0.00  0.00    +0.000 N 
ENDROOT
BRANCH   4  10
ATOM     10  N   UNL     1      -0.209  10.148  22.605  0.00  0.00    +0.000 N 
ATOM     11  O   UNL     1       0.221   9.768  23.704  0.00  0.00    +0.000 OA
ATOM     12  O   UNL     1      -1.156  10.934  22.458  0.00  0.00    +0.000 OA
ENDBRANCH   4  10
BRANCH   1  14
ATOM     13  C   UNL     1       1.363   4.695  20.564  0.00  0.00    +0.000 C 
ATOM     14  O   UNL     1       2.346   5.713  20.691  0.00  0.00    +0.000 OA
ENDBRANCH   1  14
BRANCH   9  15
ATOM     15  C   UNL     1       3.417   6.061  17.748  0.00  0.00    +0.000 C 
BRANCH  15  16
ATOM     16  C   UNL     1       4.916   6.098  17.965  0.00  0.00    +0.000 A 
ATOM     17  C   UNL     1       5.489   5.361  19.015  0.00  0.00    +0.000 A 
ATOM     18  C   UNL     1       6.867   5.401  19.247  0.00  0.00    +0.000 A 
ATOM     19  C   UNL     1       7.696   6.159  18.423  0.00  0.00    +0.000 A 
ATOM     20  C   UNL     1       7.149   6.857  17.351  0.00  0.00    +0.000 A 
ATOM     21  C   UNL     1       5.776   6.819  17.118  0.00  0.00    +0.000 A 
ENDBRANCH  15  16
ENDBRANCH   9  15
TORSDOF 4
ENDMDL
MODEL 2
REMARK VINA RESULT:      -7.3      0.109      1.253
REMARK  Name = 
REMARK  5 active torsions:
REMARK  status: ('A' for Active; 'I' for Inactive)
REMARK    1  A    between atoms: C_1  and  O_2
REMARK    2  A    between atoms: O_2  and  C_3
REMARK    3  A    between atoms: C_6  and  N_7
REMARK    4  A    between atoms: N_14  and  C_15
REMARK    5  A    between atoms: C_15  and  C_16
REMARK                            x       y       z     vdW  Elec       q    Type
REMARK                         _______ _______ _______ _____ _____    ______ ____
ROOT
ATOM      1  C   UNL     1       2.213   6.723  20.006  0.00  0.00    +0.000 A 
ATOM      2  C   UNL     1       1.605   7.929  20.287  0.00  0.00    +0.000 A 
ATOM      3  C   UNL     1       0.991   8.275  21.492  0.00  0.00    +0.000 A 
ATOM      4  C   UNL     1       0.462   9.592  21.442  0.00  0.00    +0.000 A 
ATOM      5  C   UNL     1       0.543  10.446  20.290  0.00  0.00    +0.000 A 
ATOM      6  C   UNL     1       1.170  10.055  19.086  0.00  0.00    +0.000 A 
ATOM      7  C   UNL     1       1.709   8.758  19.114  0.00  0.00    +0.000 A 
ATOM      8  N   UNL     1       2.354   8.086  18.159  0.00  0.00    +0.000 NA
ATOM      9  N   UNL     1       2.676   6.883  18.710  0.00  0.00    +0.000 N 
ENDROOT
BRANCH   4  10
ATOM     10  N   UNL     1      -0.209  10.121  22.646  0.00  0.00    +0.000 N 
ATOM     11  O   UNL     1      -1.176  10.880  22.485  0.00  0.00    +0.000 OA
ATOM     12  O   UNL     1       0.231   9.775  23.752  0.00  0.00    +0.000 OA
ENDBRANCH   4  10
BRANCH   1  14
ATOM     13  C   UNL     1       1.302   4.589  20.556  0.00  0.00    +0.000 C 
ATOM     14  O   UNL     1       2.256   5.620  20.769  0.00  0.00    +0.000 OA
ENDBRANCH   1  14
BRANCH   9  15
ATOM     15  C   UNL     1       3.395   5.945  17.849  0.00  0.00    +0.000 C 
BRANCH  15  16
ATOM     16  C   UNL     1       4.898   6.007  18.027  0.00  0.00    +0.000 A 
ATOM     17  C   UNL     1       5.680   6.752  17.129  0.00  0.00    +0.000 A 
ATOM     18  C   UNL     1       7.070   6.802  17.262  0.00  0.00    +0.000 A 
ATOM     19  C   UNL     1       7.700   6.127  18.305  0.00  0.00    +0.000 A 
ATOM     20  C   UNL     1       6.936   5.422  19.229  0.00  0.00    +0.000 A 
ATOM     21  C   UNL     1       5.549   5.371  19.099  0.00  0.00    +0.000 A 
ENDBRANCH  15  16
ENDBRANCH   9  15
TORSDOF 4
ENDMDL
MODEL 3
REMARK VINA RESULT:      -7.2      1.758      2.047
REMARK  Name = 
REMARK  5 active torsions:
REMARK  status: ('A' for Active; 'I' for Inactive)
REMARK    1  A    between atoms: C_1  and  O_2
REMARK    2  A    between atoms: O_2  and  C_3
REMARK    3  A    between atoms: C_6  and  N_7
REMARK    4  A    between atoms: N_14  and  C_15
REMARK    5  A    between atoms: C_15  and  C_16
REMARK                            x       y       z     vdW  Elec       q    Type
REMARK                         _______ _______ _______ _____ _____    ______ ____
ROOT
ATOM      1  C   UNL     1       2.625   5.519  19.968  0.00  0.00    +0.000 A 
ATOM      2  C   UNL     1       2.179   6.812  19.791  0.00  0.00    +0.000 A 
ATOM      3  C   UNL     1       1.554   7.602  20.758  0.00  0.00    +0.000 A 
ATOM      4  C   UNL     1       1.219   8.882  20.241  0.00  0.00    +0.000 A 
ATOM      5  C   UNL     1       1.483   9.296  18.892  0.00  0.00    +0.000 A 
ATOM      6  C   UNL     1       2.114   8.463  17.941  0.00  0.00    +0.000 A 
ATOM      7  C   UNL     1       2.462   7.193  18.432  0.00  0.00    +0.000 A 
ATOM      8  N   UNL     1       3.058   6.177  17.807  0.00  0.00    +0.000 NA
ATOM      9  N   UNL     1       3.176   5.192  18.740  0.00  0.00    +0.000 N 
ENDROOT
BRANCH   4  10
ATOM     10  N   UNL     1       0.564   9.850  21.143  0.00  0.00    +0.000 N 
ATOM     11  O   UNL     1       1.107  10.086  22.233  0.00  0.00    +0.000 OA
ATOM     12  O   UNL     1      -0.492  10.374  20.760  0.00  0.00    +0.000 OA
ENDBRANCH   4  10
BRANCH   1  14
ATOM     13  C   UNL     1       1.447   3.743  21.038  0.00  0.00    +0.000 C 
ATOM     14  O   UNL     1       2.470   4.729  21.042  0.00  0.00    +0.000 OA
ENDBRANCH   1  14
BRANCH   9  15
ATOM     15  C   UNL     1       3.802   3.947  18.295  0.00  0.00    +0.000 C 
BRANCH  15  16
ATOM     16  C   UNL     1       5.012   4.174  17.412  0.00  0.00    +0.000 A 
ATOM     17  C   UNL     1       6.240   4.542  17.987  0.00  0.00    +0.000 A 
ATOM     18  C   UNL     1       7.361   4.779  17.187  0.00  0.00    +0.000 A 
ATOM     19  C   UNL     1       7.280   4.633  15.804  0.00  0.00    +0.000 A 
ATOM     20  C   UNL     1       6.084   4.225  15.223  0.00  0.00    +0.000 A 
ATOM     21  C   UNL     1       4.965   3.988  16.019  0.00  0.00    +0.000 A 
ENDBRANCH  15  16
ENDBRANCH   9  15
TORSDOF 4
ENDMDL
MODEL 4
REMARK VINA RESULT:      -7.2      1.708      2.201
REMARK  Name = 
REMARK  5 active torsions:
REMARK  status: ('A' for Active; 'I' for Inactive)
REMARK    1  A    between atoms: C_1  and  O_2
REMARK    2  A    between atoms: O_2  and  C_3
REMARK    3  A    between atoms: C_6  and  N_7
REMARK    4  A    between atoms: N_14  and  C_15
REMARK    5  A    between atoms: C_15  and  C_16
REMARK                            x       y       z     vdW  Elec       q    Type
REMARK                         _______ _______ _______ _____ _____    ______ ____
ROOT
ATOM      1  C   UNL     1       2.565   5.540  20.001  0.00  0.00    +0.000 A 
ATOM      2  C   UNL     1       2.123   6.837  19.840  0.00  0.00    +0.000 A 
ATOM      3  C   UNL     1       1.520   7.624  20.823  0.00  0.00    +0.000 A 
ATOM      4  C   UNL     1       1.184   8.909  20.321  0.00  0.00    +0.000 A 
ATOM      5  C   UNL     1       1.428   9.331  18.970  0.00  0.00    +0.000 A 
ATOM      6  C   UNL     1       2.037   8.501  18.002  0.00  0.00    +0.000 A 
ATOM      7  C   UNL     1       2.386   7.226  18.479  0.00  0.00    +0.000 A 
ATOM      8  N   UNL     1       2.965   6.210  17.837  0.00  0.00    +0.000 NA
ATOM      9  N   UNL     1       3.093   5.218  18.761  0.00  0.00    +0.000 N 
ENDROOT
BRANCH   4  10
ATOM     10  N   UNL     1       0.550   9.874  21.241  0.00  0.00    +0.000 N 
ATOM     11  O   UNL     1      -0.428  10.514  20.826  0.00  0.00    +0.000 OA
ATOM     12  O   UNL     1       1.031   9.990  22.377  0.00  0.00    +0.000 OA
ENDBRANCH   4  10
BRANCH   1  14
ATOM     13  C   UNL     1       1.447   3.711  21.046  0.00  0.00    +0.000 C 
ATOM     14  O   UNL     1       2.423   4.743  21.072  0.00  0.00    +0.000 OA
ENDBRANCH   1  14
BRANCH   9  15
ATOM     15  C   UNL     1       3.704   3.973  18.297  0.00  0.00    +0.000 C 
BRANCH  15  16
ATOM     16  C   UNL     1       4.964   4.195  17.486  0.00  0.00    +0.000 A 
ATOM     17  C   UNL     1       4.934   4.048  16.089  0.00  0.00    +0.000 A 
ATOM     18  C   UNL     1       6.091   4.225  15.326  0.00  0.00    +0.000 A 
ATOM     19  C   UNL     1       7.291   4.572  15.942  0.00  0.00    +0.000 A 
ATOM     20  C   UNL     1       7.328   4.766  17.319  0.00  0.00    +0.000 A 
ATOM     21  C   UNL     1       6.175   4.591  18.082  0.00  0.00    +0.000 A 
ENDBRANCH  15  16
ENDBRANCH   9  15
TORSDOF 4
ENDMDL
MODEL 5
REMARK VINA RESULT:      -7.1      5.169      8.277
REMARK  Name = 
REMARK  5 active torsions:
REMARK  status: ('A' for Active; 'I' for Inactive)
REMARK    1  A    between atoms: C_1  and  O_2
REMARK    2  A    between atoms: O_2  and  C_3
REMARK    3  A    between atoms: C_6  and  N_7
REMARK    4  A    between atoms: N_14  and  C_15
REMARK    5  A    between atoms: C_15  and  C_16
REMARK                            x       y       z     vdW  Elec       q    Type
REMARK                         _______ _______ _______ _____ _____    ______ ____
ROOT
ATOM      1  C   UNL     1       6.709   4.415  17.793  0.00  0.00    +0.000 A 
ATOM      2  C   UNL     1       6.515   4.469  16.428  0.00  0.00    +0.000 A 
ATOM      3  C   UNL     1       7.462   4.866  15.482  0.00  0.00    +0.000 A 
ATOM      4  C   UNL     1       6.933   4.809  14.165  0.00  0.00    +0.000 A 
ATOM      5  C   UNL     1       5.589   4.404  13.859  0.00  0.00    +0.000 A 
ATOM      6  C   UNL     1       4.658   4.014  14.847  0.00  0.00    +0.000 A 
ATOM      7  C   UNL     1       5.163   4.055  16.158  0.00  0.00    +0.000 A 
ATOM      8  N   UNL     1       4.558   3.759  17.310  0.00  0.00    +0.000 NA
ATOM      9  N   UNL     1       5.497   3.950  18.277  0.00  0.00    +0.000 N 
ENDROOT
BRANCH   4  10
ATOM     10  N   UNL     1       7.813   5.183  13.041  0.00  0.00    +0.000 N 
ATOM     11  O   UNL     1       7.544   4.730  11.919  0.00  0.00    +0.000 OA
ATOM     12  O   UNL     1       8.772   5.930  13.283  0.00  0.00    +0.000 OA
ENDBRANCH   4  10
BRANCH   1  14
ATOM     13  C   UNL     1       7.834   6.148  18.983  0.00  0.00    +0.000 C 
ATOM     14  O   UNL     1       7.781   4.815  18.493  0.00  0.00    +0.000 OA
ENDBRANCH   1  14
BRANCH   9  15
ATOM     15  C   UNL     1       5.073   3.694  19.653  0.00  0.00    +0.000 C 
BRANCH  15  16
ATOM     16  C   UNL     1       3.569   3.734  19.829  0.00  0.00    +0.000 A 
ATOM     17  C   UNL     1       2.931   4.950  20.129  0.00  0.00    +0.000 A 
ATOM     18  C   UNL     1       1.548   5.003  20.319  0.00  0.00    +0.000 A 
ATOM     19  C   UNL     1       0.777   3.850  20.193  0.00  0.00    +0.000 A 
ATOM     20  C   UNL     1       1.388   2.647  19.851  0.00  0.00    +0.000 A 
ATOM     21  C   UNL     1       2.767   2.592  19.661  0.00  0.00    +0.000 A 
ENDBRANCH  15  16
ENDBRANCH   9  15
TORSDOF 4
ENDMDL
MODEL 6
REMARK VINA RESULT:      -7.0      5.169      8.226
REMARK  Name = 
REMARK  5 active torsions:
REMARK  status: ('A' for Active; 'I' for Inactive)
REMARK    1  A    between atoms: C_1  and  O_2
REMARK    2  A    between atoms: O_2  and  C_3
REMARK    3  A    between atoms: C_6  and  N_7
REMARK    4  A    between atoms: N_14  and  C_15
REMARK    5  A    between atoms: C_15  and  C_16
REMARK                            x       y       z     vdW  Elec       q    Type
REMARK                         _______ _______ _______ _____ _____    ______ ____
ROOT
ATOM      1  C   UNL     1       6.644   4.573  17.890  0.00  0.00    +0.000 A 
ATOM      2  C   UNL     1       6.470   4.573  16.521  0.00  0.00    +0.000 A 
ATOM      3  C   UNL     1       7.429   4.937  15.574  0.00  0.00    +0.000 A 
ATOM      4  C   UNL     1       6.919   4.827  14.253  0.00  0.00    +0.000 A 
ATOM      5  C   UNL     1       5.581   4.405  13.944  0.00  0.00    +0.000 A 
ATOM      6  C   UNL     1       4.637   4.050  14.933  0.00  0.00    +0.000 A 
ATOM      7  C   UNL     1       5.123   4.144  16.249  0.00  0.00    +0.000 A 
ATOM      8  N   UNL     1       4.502   3.890  17.402  0.00  0.00    +0.000 NA
ATOM      9  N   UNL     1       5.427   4.123  18.375  0.00  0.00    +0.000 N 
ENDROOT
BRANCH   4  10
ATOM     10  N   UNL     1       7.814   5.160  13.128  0.00  0.00    +0.000 N 
ATOM     11  O   UNL     1       7.573   4.649  12.025  0.00  0.00    +0.000 OA
ATOM     12  O   UNL     1       8.757   5.933  13.350  0.00  0.00    +0.000 OA
ENDBRANCH   4  10
BRANCH   1  14
ATOM     13  C   UNL     1       7.888   6.400  18.784  0.00  0.00    +0.000 C 
ATOM     14  O   UNL     1       7.705   5.005  18.590  0.00  0.00    +0.000 OA
ENDBRANCH   1  14
BRANCH   9  15
ATOM     15  C   UNL     1       4.984   3.919  19.754  0.00  0.00    +0.000 C 
BRANCH  15  16
ATOM     16  C   UNL     1       3.484   3.745  19.876  0.00  0.00    +0.000 A 
ATOM     17  C   UNL     1       2.907   2.480  19.676  0.00  0.00    +0.000 A 
ATOM     18  C   UNL     1       1.523   2.304  19.761  0.00  0.00    +0.000 A 
ATOM     19  C   UNL     1       0.696   3.381  20.066  0.00  0.00    +0.000 A 
ATOM     20  C   UNL     1       1.256   4.631  20.312  0.00  0.00    +0.000 A 
ATOM     21  C   UNL     1       2.636   4.809  20.229  0.00  0.00    +0.000 A 
ENDBRANCH  15  16
ENDBRANCH   9  15
TORSDOF 4
ENDMDL
MODEL 7
REMARK VINA RESULT:      -7.0      4.761      6.000
REMARK  Name = 
REMARK  5 active torsions:
REMARK  status: ('A' for Active; 'I' for Inactive)
REMARK    1  A    between atoms: C_1  and  O_2
REMARK    2  A    between atoms: O_2  and  C_3
REMARK    3  A    between atoms: C_6  and  N_7
REMARK    4  A    between atoms: N_14  and  C_15
REMARK    5  A    between atoms: C_15  and  C_16
REMARK                            x       y       z     vdW  Elec       q    Type
REMARK                         _______ _______ _______ _____ _____    ______ ____
ROOT
ATOM      1  C   UNL     1       5.889   4.631  18.197  0.00  0.00    +0.000 A 
ATOM      2  C   UNL     1       4.611   4.238  18.537  0.00  0.00    +0.000 A 
ATOM      3  C   UNL     1       4.214   3.724  19.773  0.00  0.00    +0.000 A 
ATOM      4  C   UNL     1       2.828   3.416  19.783  0.00  0.00    +0.000 A 
ATOM      5  C   UNL     1       1.957   3.602  18.656  0.00  0.00    +0.000 A 
ATOM      6  C   UNL     1       2.400   4.120  17.419  0.00  0.00    +0.000 A 
ATOM      7  C   UNL     1       3.768   4.441  17.388  0.00  0.00    +0.000 A 
ATOM      8  N   UNL     1       4.500   4.939  16.390  0.00  0.00    +0.000 NA
ATOM      9  N   UNL     1       5.758   5.075  16.891  0.00  0.00    +0.000 N 
ENDROOT
BRANCH   4  10
ATOM     10  N   UNL     1       2.242   2.877  21.026  0.00  0.00    +0.000 N 
ATOM     11  O   UNL     1       3.016   2.444  21.892  0.00  0.00    +0.000 OA
ATOM     12  O   UNL     1       1.007   2.888  21.134  0.00  0.00    +0.000 OA
ENDBRANCH   4  10
BRANCH   1  14
ATOM     13  C   UNL     1       7.689   5.690  19.347  0.00  0.00    +0.000 C 
ATOM     14  O   UNL     1       7.012   4.516  18.923  0.00  0.00    +0.000 OA
ENDBRANCH   1  14
BRANCH   9  15
ATOM     15  C   UNL     1       6.768   5.606  15.976  0.00  0.00    +0.000 C 
BRANCH  15  16
ATOM     16  C   UNL     1       6.727   4.958  14.606  0.00  0.00    +0.000 A 
ATOM     17  C   UNL     1       7.644   5.353  13.618  0.00  0.00    +0.000 A 
ATOM     18  C   UNL     1       7.607   4.785  12.341  0.00  0.00    +0.000 A 
ATOM     19  C   UNL     1       6.669   3.802  12.037  0.00  0.00    +0.000 A 
ATOM     20  C   UNL     1       5.783   3.368  13.019  0.00  0.00    +0.000 A 
ATOM     21  C   UNL     1       5.819   3.932  14.293  0.00  0.00    +0.000 A 
ENDBRANCH  15  16
ENDBRANCH   9  15
TORSDOF 4
ENDMDL
MODEL 8
REMARK VINA RESULT:      -7.0      4.683      5.914
REMARK  Name = 
REMARK  5 active torsions:
REMARK  status: ('A' for Active; 'I' for Inactive)
REMARK    1  A    between atoms: C_1  and  O_2
REMARK    2  A    between atoms: O_2  and  C_3
REMARK    3  A    between atoms: C_6  and  N_7
REMARK    4  A    between atoms: N_14  and  C_15
REMARK    5  A    between atoms: C_15  and  C_16
REMARK                            x       y       z     vdW  Elec       q    Type
REMARK                         _______ _______ _______ _____ _____    ______ ____
ROOT
ATOM      1  C   UNL     1       5.806   4.627  18.177  0.00  0.00    +0.000 A 
ATOM      2  C   UNL     1       4.534   4.258  18.563  0.00  0.00    +0.000 A 
ATOM      3  C   UNL     1       4.185   3.681  19.786  0.00  0.00    +0.000 A 
ATOM      4  C   UNL     1       2.791   3.422  19.856  0.00  0.00    +0.000 A 
ATOM      5  C   UNL     1       1.867   3.711  18.794  0.00  0.00    +0.000 A 
ATOM      6  C   UNL     1       2.262   4.292  17.568  0.00  0.00    +0.000 A 
ATOM      7  C   UNL     1       3.638   4.565  17.479  0.00  0.00    +0.000 A 
ATOM      8  N   UNL     1       4.333   5.100  16.475  0.00  0.00    +0.000 NA
ATOM      9  N   UNL     1       5.622   5.159  16.911  0.00  0.00    +0.000 N 
ENDROOT
BRANCH   4  10
ATOM     10  N   UNL     1       2.252   2.824  21.094  0.00  0.00    +0.000 N 
ATOM     11  O   UNL     1       1.021   2.791  21.234  0.00  0.00    +0.000 OA
ATOM     12  O   UNL     1       3.062   2.388  21.924  0.00  0.00    +0.000 OA
ENDBRANCH   4  10
BRANCH   1  14
ATOM     13  C   UNL     1       7.607   5.525  19.455  0.00  0.00    +0.000 C 
ATOM     14  O   UNL     1       6.961   4.425  18.829  0.00  0.00    +0.000 OA
ENDBRANCH   1  14
BRANCH   9  15
ATOM     15  C   UNL     1       6.600   5.711  15.974  0.00  0.00    +0.000 C 
BRANCH  15  16
ATOM     16  C   UNL     1       6.593   5.014  14.629  0.00  0.00    +0.000 A 
ATOM     17  C   UNL     1       5.568   4.105  14.316  0.00  0.00    +0.000 A 
ATOM     18  C   UNL     1       5.558   3.434  13.091  0.00  0.00    +0.000 A 
ATOM     19  C   UNL     1       6.557   3.674  12.151  0.00  0.00    +0.000 A 
ATOM     20  C   UNL     1       7.553   4.605  12.427  0.00  0.00    +0.000 A 
ATOM     21  C   UNL     1       7.565   5.276  13.648  0.00  0.00    +0.000 A 
ENDBRANCH  15  16
ENDBRANCH   9  15
TORSDOF 4
ENDMDL
MODEL 9
REMARK VINA RESULT:      -6.9      3.619      5.199
REMARK  Name = 
REMARK  5 active torsions:
REMARK  status: ('A' for Active; 'I' for Inactive)
REMARK    1  A    between atoms: C_1  and  O_2
REMARK    2  A    between atoms: O_2  and  C_3
REMARK    3  A    between atoms: C_6  and  N_7
REMARK    4  A    between atoms: N_14  and  C_15
REMARK    5  A    between atoms: C_15  and  C_16
REMARK                            x       y       z     vdW  Elec       q    Type
REMARK                         _______ _______ _______ _____ _____    ______ ____
ROOT
ATOM      1  C   UNL     1       5.592   6.418  16.785  0.00  0.00    +0.000 A 
ATOM      2  C   UNL     1       4.334   6.556  17.335  0.00  0.00    +0.000 A 
ATOM      3  C   UNL     1       3.732   7.758  17.710  0.00  0.00    +0.000 A 
ATOM      4  C   UNL     1       2.435   7.541  18.247  0.00  0.00    +0.000 A 
ATOM      5  C   UNL     1       1.835   6.245  18.392  0.00  0.00    +0.000 A 
ATOM      6  C   UNL     1       2.481   5.050  18.005  0.00  0.00    +0.000 A 
ATOM      7  C   UNL     1       3.763   5.240  17.462  0.00  0.00    +0.000 A 
ATOM      8  N   UNL     1       4.634   4.339  17.007  0.00  0.00    +0.000 NA
ATOM      9  N   UNL     1       5.712   5.053  16.579  0.00  0.00    +0.000 N 
ENDROOT
BRANCH   4  10
ATOM     10  N   UNL     1       1.652   8.716  18.679  0.00  0.00    +0.000 N 
ATOM     11  O   UNL     1       1.328   9.546  17.816  0.00  0.00    +0.000 OA
ATOM     12  O   UNL     1       1.361   8.806  19.880  0.00  0.00    +0.000 OA
ENDBRANCH   4  10
BRANCH   1  14
ATOM     13  C   UNL     1       7.559   7.531  17.545  0.00  0.00    +0.000 C 
ATOM     14  O   UNL     1       6.519   7.369  16.590  0.00  0.00    +0.000 OA
ENDBRANCH   1  14
BRANCH   9  15
ATOM     15  C   UNL     1       6.827   4.282  16.032  0.00  0.00    +0.000 C 
BRANCH  15  16
ATOM     16  C   UNL     1       6.904   4.339  14.520  0.00  0.00    +0.000 A 
ATOM     17  C   UNL     1       6.101   3.485  13.745  0.00  0.00    +0.000 A 
ATOM     18  C   UNL     1       6.176   3.505  12.350  0.00  0.00    +0.000 A 
ATOM     19  C   UNL     1       7.036   4.390  11.706  0.00  0.00    +0.000 A 
ATOM     20  C   UNL     1       7.804   5.274  12.457  0.00  0.00    +0.000 A 
ATOM     21  C   UNL     1       7.731   5.256  13.849  0.00  0.00    +0.000 A 
ENDBRANCH  15  16
ENDBRANCH   9  15
TORSDOF 4
ENDMDL
