MODEL 1
REMARK VINA RESULT:      -8.7      0.000      0.000
REMARK  Name = 
REMARK  12 active torsions:
REMARK  status: ('A' for Active; 'I' for Inactive)
REMARK    1  A    between atoms: C_1  and  C_2
REMARK    2  A    between atoms: C_2  and  C_3
REMARK    3  A    between atoms: C_2  and  C_4
REMARK    4  A    between atoms: C_4  and  N_5
REMARK    5  A    between atoms: C_6  and  C_8
REMARK    6  A    between atoms: C_8  and  C_9
REMARK    7  A    between atoms: C_8  and  N_19
REMARK    8  A    between atoms: C_9  and  C_10
REMARK    9  A    between atoms: C_20  and  O_22
REMARK   10  A    between atoms: O_22  and  C_23
REMARK   11  A    between atoms: C_23  and  C_24
REMARK   12  A    between atoms: C_24  and  C_25
REMARK                            x       y       z     vdW  Elec       q    Type
REMARK                         _______ _______ _______ _____ _____    ______ ____
ROOT
ATOM      1  C   UNL     1       4.450   3.681  17.452  0.00  0.00    +0.000 C 
ENDROOT
BRANCH   1   3
ATOM      2  N   UNL     1       2.950   2.451  18.974  0.00  0.00    +0.000 N 
ATOM      3  C   UNL     1       3.068   3.043  17.739  0.00  0.00    +0.000 C 
ATOM      4  O   UNL     1       2.135   3.116  16.944  0.00  0.00    +0.000 OA
ATOM      5  H   UNL     1       3.739   2.547  19.606  0.00  0.00    +0.000 HD
BRANCH   2   6
ATOM      6  C   UNL     1       1.716   1.907  19.487  0.00  0.00    +0.000 C 
BRANCH   6   8
ATOM      7  C   UNL     1       2.400   2.839  21.737  0.00  0.00    +0.000 C 
ATOM      8  C   UNL     1       1.248   2.636  20.750  0.00  0.00    +0.000 C 
ATOM      9  C   UNL     1       0.634   3.982  20.369  0.00  0.00    +0.000 C 
ENDBRANCH   6   8
ENDBRANCH   2   6
ENDBRANCH   1   3
BRANCH   1  10
ATOM     10  N   UNL     1       5.368   3.663  18.612  0.00  0.00    +0.000 N 
ATOM     11  C   UNL     1       5.454   4.787  19.397  0.00  0.00    +0.000 C 
ATOM     12  O   UNL     1       6.507   5.267  19.774  0.00  0.00    +0.000 OA
ATOM     13  H   UNL     1       6.297   3.314  18.415  0.00  0.00    +0.000 HD
BRANCH  11  14
ATOM     14  O   UNL     1       4.228   5.246  19.719  0.00  0.00    +0.000 OA
BRANCH  14  15
ATOM     15  C   UNL     1       3.985   6.640  19.475  0.00  0.00    +0.000 C 
BRANCH  15  16
ATOM     16  C   UNL     1       2.471   6.752  19.277  0.00  0.00    +0.000 C 
BRANCH  16  17
ATOM     17  C   UNL     1       1.990   8.085  18.836  0.00  0.00    +0.000 A 
ATOM     18  C   UNL     1       2.324   8.709  17.651  0.00  0.00    +0.000 A 
ATOM     19  N   UNL     1       1.703   9.926  17.620  0.00  0.00    +0.000 N 
ATOM     20  C   UNL     1       0.975  10.120  18.771  0.00  0.00    +0.000 A 
ATOM     21  C   UNL     1       0.181  11.200  19.164  0.00  0.00    +0.000 A 
ATOM     22  C   UNL     1      -0.443  11.128  20.412  0.00  0.00    +0.000 A 
ATOM     23  C   UNL     1      -0.261  10.026  21.242  0.00  0.00    +0.000 A 
ATOM     24  C   UNL     1       0.545   8.955  20.839  0.00  0.00    +0.000 A 
ATOM     25  C   UNL     1       1.160   8.990  19.569  0.00  0.00    +0.000 A 
ATOM     26  H   UNL     1       1.773  10.598  16.868  0.00  0.00    +0.000 HD
ENDBRANCH  16  17
ENDBRANCH  15  16
ENDBRANCH  14  15
ENDBRANCH  11  14
ENDBRANCH   1  10
BRANCH   1  27
ATOM     27  C   UNL     1       5.046   3.022  16.197  0.00  0.00    +0.000 C 
BRANCH  27  28
ATOM     28  C   UNL     1       5.999   3.923  15.463  0.00  0.00    +0.000 A 
ATOM     29  C   UNL     1       6.776   4.912  16.035  0.00  0.00    +0.000 A 
ATOM     30  N   UNL     1       7.477   5.539  15.043  0.00  0.00    +0.000 N 
ATOM     31  C   UNL     1       7.201   4.963  13.826  0.00  0.00    +0.000 A 
ATOM     32  C   UNL     1       7.699   5.273  12.554  0.00  0.00    +0.000 A 
ATOM     33  C   UNL     1       7.254   4.501  11.478  0.00  0.00    +0.000 A 
ATOM     34  C   UNL     1       6.348   3.461  11.671  0.00  0.00    +0.000 A 
ATOM     35  C   UNL     1       5.854   3.169  12.952  0.00  0.00    +0.000 A 
ATOM     36  C   UNL     1       6.285   3.933  14.057  0.00  0.00    +0.000 A 
ATOM     37  H   UNL     1       8.114   6.312  15.178  0.00  0.00    +0.000 HD
ENDBRANCH  27  28
ENDBRANCH   1  27
TORSDOF 10
ENDMDL
MODEL 2
REMARK VINA RESULT:      -8.5      1.717      5.845
REMARK  Name = 
REMARK  12 active torsions:
REMARK  status: ('A' for Active; 'I' for Inactive)
REMARK    1  A    between atoms: C_1  and  C_2
REMARK    2  A    between atoms: C_2  and  C_3
REMARK    3  A    between atoms: C_2  and  C_4
REMARK    4  A    between atoms: C_4  and  N_5
REMARK    5  A    between atoms: C_6  and  C_8
REMARK    6  A    between atoms: C_8  and  C_9
REMARK    7  A    between atoms: C_8  and  N_19
REMARK    8  A    between atoms: C_9  and  C_10
REMARK    9  A    between atoms: C_20  and  O_22
REMARK   10  A    between atoms: O_22  and  C_23
REMARK   11  A    between atoms: C_23  and  C_24
REMARK   12  A    between atoms: C_24  and  C_25
REMARK                            x       y       z     vdW  Elec       q    Type
REMARK                         _______ _______ _______ _____ _____    ______ ____
ROOT
ATOM      1  C   UNL     1       5.425   4.204  16.494  0.00  0.00    +0.000 C 
ENDROOT
BRANCH   1   3
ATOM      2  N   UNL     1       6.117   3.477  14.242  0.00  0.00    +0.000 N 
ATOM      3  C   UNL     1       5.747   4.549  15.019  0.00  0.00    +0.000 C 
ATOM      4  O   UNL     1       5.622   5.685  14.570  0.00  0.00    +0.000 OA
ATOM      5  H   UNL     1       6.076   2.560  14.676  0.00  0.00    +0.000 HD
BRANCH   2   6
ATOM      6  C   UNL     1       6.341   3.560  12.819  0.00  0.00    +0.000 C 
BRANCH   6   8
ATOM      7  C   UNL     1       4.375   3.255  11.256  0.00  0.00    +0.000 C 
ATOM      8  C   UNL     1       5.484   2.554  12.044  0.00  0.00    +0.000 C 
ATOM      9  C   UNL     1       6.370   1.741  11.103  0.00  0.00    +0.000 C 
ENDBRANCH   6   8
ENDBRANCH   2   6
ENDBRANCH   1   3
BRANCH   1  10
ATOM     10  N   UNL     1       6.114   5.072  17.474  0.00  0.00    +0.000 N 
ATOM     11  C   UNL     1       5.743   6.393  17.554  0.00  0.00    +0.000 C 
ATOM     12  O   UNL     1       6.536   7.314  17.603  0.00  0.00    +0.000 OA
ATOM     13  H   UNL     1       7.124   5.003  17.471  0.00  0.00    +0.000 HD
BRANCH  11  14
ATOM     14  O   UNL     1       4.402   6.514  17.614  0.00  0.00    +0.000 OA
BRANCH  14  15
ATOM     15  C   UNL     1       3.881   7.852  17.570  0.00  0.00    +0.000 C 
BRANCH  15  16
ATOM     16  C   UNL     1       2.396   7.714  17.917  0.00  0.00    +0.000 C 
BRANCH  16  17
ATOM     17  C   UNL     1       1.757   8.942  18.449  0.00  0.00    +0.000 A 
ATOM     18  C   UNL     1       1.595  10.128  17.763  0.00  0.00    +0.000 A 
ATOM     19  N   UNL     1       0.986  11.024  18.596  0.00  0.00    +0.000 N 
ATOM     20  C   UNL     1       0.756  10.452  19.826  0.00  0.00    +0.000 A 
ATOM     21  C   UNL     1       0.153  10.984  20.969  0.00  0.00    +0.000 A 
ATOM     22  C   UNL     1       0.060  10.164  22.096  0.00  0.00    +0.000 A 
ATOM     23  C   UNL     1       0.569   8.869  22.084  0.00  0.00    +0.000 A 
ATOM     24  C   UNL     1       1.179   8.352  20.935  0.00  0.00    +0.000 A 
ATOM     25  C   UNL     1       1.256   9.150  19.773  0.00  0.00    +0.000 A 
ATOM     26  H   UNL     1       0.749  11.976  18.355  0.00  0.00    +0.000 HD
ENDBRANCH  16  17
ENDBRANCH  15  16
ENDBRANCH  14  15
ENDBRANCH  11  14
ENDBRANCH   1  10
BRANCH   1  27
ATOM     27  C   UNL     1       3.897   4.181  16.673  0.00  0.00    +0.000 C 
BRANCH  27  28
ATOM     28  C   UNL     1       3.452   3.224  17.743  0.00  0.00    +0.000 A 
ATOM     29  C   UNL     1       3.497   1.845  17.662  0.00  0.00    +0.000 A 
ATOM     30  N   UNL     1       2.969   1.327  18.812  0.00  0.00    +0.000 N 
ATOM     31  C   UNL     1       2.602   2.339  19.667  0.00  0.00    +0.000 A 
ATOM     32  C   UNL     1       2.037   2.270  20.946  0.00  0.00    +0.000 A 
ATOM     33  C   UNL     1       1.778   3.474  21.606  0.00  0.00    +0.000 A 
ATOM     34  C   UNL     1       2.075   4.695  21.007  0.00  0.00    +0.000 A 
ATOM     35  C   UNL     1       2.635   4.746  19.721  0.00  0.00    +0.000 A 
ATOM     36  C   UNL     1       2.905   3.546  19.030  0.00  0.00    +0.000 A 
ATOM     37  H   UNL     1       2.866   0.343  19.014  0.00  0.00    +0.000 HD
ENDBRANCH  27  28
ENDBRANCH   1  27
TORSDOF 10
ENDMDL
MODEL 3
REMARK VINA RESULT:      -8.3      4.506      6.864
REMARK  Name = 
REMARK  12 active torsions:
REMARK  status: ('A' for Active; 'I' for Inactive)
REMARK    1  A    between atoms: C_1  and  C_2
REMARK    2  A    between atoms: C_2  and  C_3
REMARK    3  A    between atoms: C_2  and  C_4
REMARK    4  A    between atoms: C_4  and  N_5
REMARK    5  A    between atoms: C_6  and  C_8
REMARK    6  A    between atoms: C_8  and  C_9
REMARK    7  A    between atoms: C_8  and  N_19
REMARK    8  A    between atoms: C_9  and  C_10
REMARK    9  A    between atoms: C_20  and  O_22
REMARK   10  A    between atoms: O_22  and  C_23
REMARK   11  A    between atoms: C_23  and  C_24
REMARK   12  A    between atoms: C_24  and  C_25
REMARK                            x       y       z     vdW  Elec       q    Type
REMARK                         _______ _______ _______ _____ _____    ______ ____
ROOT
ATOM      1  C   UNL     1       5.453   5.210  18.461  0.00  0.00    +0.000 C 
ENDROOT
BRANCH   1   3
ATOM      2  N   UNL     1       3.868   3.379  17.997  0.00  0.00    +0.000 N 
ATOM      3  C   UNL     1       4.854   3.833  18.841  0.00  0.00    +0.000 C 
ATOM      4  O   UNL     1       5.275   3.175  19.789  0.00  0.00    +0.000 OA
ATOM      5  H   UNL     1       3.674   3.940  17.174  0.00  0.00    +0.000 HD
BRANCH   2   6
ATOM      6  C   UNL     1       3.266   2.071  18.101  0.00  0.00    +0.000 C 
BRANCH   6   8
ATOM      7  C   UNL     1       1.879   2.129  20.216  0.00  0.00    +0.000 C 
ATOM      8  C   UNL     1       1.852   2.136  18.686  0.00  0.00    +0.000 C 
ATOM      9  C   UNL     1       1.141   3.388  18.175  0.00  0.00    +0.000 C 
ENDBRANCH   6   8
ENDBRANCH   2   6
ENDBRANCH   1   3
BRANCH   1  10
ATOM     10  N   UNL     1       6.695   5.120  17.664  0.00  0.00    +0.000 N 
ATOM     11  C   UNL     1       7.245   6.281  17.174  0.00  0.00    +0.000 C 
ATOM     12  O   UNL     1       7.643   6.409  16.032  0.00  0.00    +0.000 OA
ATOM     13  H   UNL     1       6.687   4.416  16.937  0.00  0.00    +0.000 HD
BRANCH  11  14
ATOM     14  O   UNL     1       7.318   7.223  18.136  0.00  0.00    +0.000 OA
BRANCH  14  15
ATOM     15  C   UNL     1       7.829   8.504  17.735  0.00  0.00    +0.000 C 
BRANCH  15  16
ATOM     16  C   UNL     1       8.812   8.904  18.838  0.00  0.00    +0.000 C 
BRANCH  16  17
ATOM     17  C   UNL     1       9.239  10.325  18.816  0.00  0.00    +0.000 A 
ATOM     18  C   UNL     1       9.701  11.011  17.711  0.00  0.00    +0.000 A 
ATOM     19  N   UNL     1      10.013  12.283  18.098  0.00  0.00    +0.000 N 
ATOM     20  C   UNL     1       9.777  12.445  19.444  0.00  0.00    +0.000 A 
ATOM     21  C   UNL     1       9.939  13.568  20.259  0.00  0.00    +0.000 A 
ATOM     22  C   UNL     1       9.624  13.438  21.614  0.00  0.00    +0.000 A 
ATOM     23  C   UNL     1       9.185  12.225  22.135  0.00  0.00    +0.000 A 
ATOM     24  C   UNL     1       9.036  11.106  21.308  0.00  0.00    +0.000 A 
ATOM     25  C   UNL     1       9.316  11.220  19.930  0.00  0.00    +0.000 A 
ATOM     26  H   UNL     1      10.378  13.004  17.492  0.00  0.00    +0.000 HD
ENDBRANCH  16  17
ENDBRANCH  15  16
ENDBRANCH  14  15
ENDBRANCH  11  14
ENDBRANCH   1  10
BRANCH   1  27
ATOM     27  C   UNL     1       4.358   6.054  17.785  0.00  0.00    +0.000 C 
BRANCH  27  28
ATOM     28  C   UNL     1       3.366   6.612  18.766  0.00  0.00    +0.000 A 
ATOM     29  C   UNL     1       3.029   6.050  19.982  0.00  0.00    +0.000 A 
ATOM     30  N   UNL     1       2.066   6.826  20.566  0.00  0.00    +0.000 N 
ATOM     31  C   UNL     1       1.782   7.911  19.772  0.00  0.00    +0.000 A 
ATOM     32  C   UNL     1       0.880   8.962  19.980  0.00  0.00    +0.000 A 
ATOM     33  C   UNL     1       0.806   9.956  19.002  0.00  0.00    +0.000 A 
ATOM     34  C   UNL     1       1.604   9.898  17.863  0.00  0.00    +0.000 A 
ATOM     35  C   UNL     1       2.498   8.834  17.667  0.00  0.00    +0.000 A 
ATOM     36  C   UNL     1       2.593   7.815  18.637  0.00  0.00    +0.000 A 
ATOM     37  H   UNL     1       1.628   6.639  21.457  0.00  0.00    +0.000 HD
ENDBRANCH  27  28
ENDBRANCH   1  27
TORSDOF 10
ENDMDL
MODEL 4
REMARK VINA RESULT:      -8.2      1.323      1.808
REMARK  Name = 
REMARK  12 active torsions:
REMARK  status: ('A' for Active; 'I' for Inactive)
REMARK    1  A    between atoms: C_1  and  C_2
REMARK    2  A    between atoms: C_2  and  C_3
REMARK    3  A    between atoms: C_2  and  C_4
REMARK    4  A    between atoms: C_4  and  N_5
REMARK    5  A    between atoms: C_6  and  C_8
REMARK    6  A    between atoms: C_8  and  C_9
REMARK    7  A    between atoms: C_8  and  N_19
REMARK    8  A    between atoms: C_9  and  C_10
REMARK    9  A    between atoms: C_20  and  O_22
REMARK   10  A    between atoms: O_22  and  C_23
REMARK   11  A    between atoms: C_23  and  C_24
REMARK   12  A    between atoms: C_24  and  C_25
REMARK                            x       y       z     vdW  Elec       q    Type
REMARK                         _______ _______ _______ _____ _____    ______ ____
ROOT
ATOM      1  C   UNL     1       4.034   4.445  17.005  0.00  0.00    +0.000 C 
ENDROOT
BRANCH   1   3
ATOM      2  N   UNL     1       3.253   3.202  18.986  0.00  0.00    +0.000 N 
ATOM      3  C   UNL     1       2.933   3.621  17.717  0.00  0.00    +0.000 C 
ATOM      4  O   UNL     1       1.835   3.415  17.205  0.00  0.00    +0.000 OA
ATOM      5  H   UNL     1       4.138   3.524  19.366  0.00  0.00    +0.000 HD
BRANCH   2   6
ATOM      6  C   UNL     1       2.328   2.528  19.864  0.00  0.00    +0.000 C 
BRANCH   6   8
ATOM      7  C   UNL     1       1.234   4.630  20.752  0.00  0.00    +0.000 C 
ATOM      8  C   UNL     1       2.010   3.361  21.111  0.00  0.00    +0.000 C 
ATOM      9  C   UNL     1       1.215   2.517  22.104  0.00  0.00    +0.000 C 
ENDBRANCH   6   8
ENDBRANCH   2   6
ENDBRANCH   1   3
BRANCH   1  10
ATOM     10  N   UNL     1       4.673   5.460  17.871  0.00  0.00    +0.000 N 
ATOM     11  C   UNL     1       4.387   6.785  17.648  0.00  0.00    +0.000 C 
ATOM     12  O   UNL     1       5.232   7.660  17.610  0.00  0.00    +0.000 OA
ATOM     13  H   UNL     1       5.670   5.345  17.999  0.00  0.00    +0.000 HD
BRANCH  11  14
ATOM     14  O   UNL     1       3.058   6.978  17.526  0.00  0.00    +0.000 OA
BRANCH  14  15
ATOM     15  C   UNL     1       2.576   8.297  17.824  0.00  0.00    +0.000 C 
BRANCH  15  16
ATOM     16  C   UNL     1       1.911   8.177  19.198  0.00  0.00    +0.000 C 
BRANCH  16  17
ATOM     17  C   UNL     1       1.051   9.324  19.584  0.00  0.00    +0.000 A 
ATOM     18  C   UNL     1       0.683  10.367  18.759  0.00  0.00    +0.000 A 
ATOM     19  N   UNL     1      -0.088  11.232  19.484  0.00  0.00    +0.000 N 
ATOM     20  C   UNL     1      -0.223  10.782  20.777  0.00  0.00    +0.000 A 
ATOM     21  C   UNL     1      -0.924  11.332  21.854  0.00  0.00    +0.000 A 
ATOM     22  C   UNL     1      -0.877  10.653  23.074  0.00  0.00    +0.000 A 
ATOM     23  C   UNL     1      -0.139   9.482  23.215  0.00  0.00    +0.000 A 
ATOM     24  C   UNL     1       0.566   8.948  22.130  0.00  0.00    +0.000 A 
ATOM     25  C   UNL     1       0.508   9.598  20.878  0.00  0.00    +0.000 A 
ATOM     26  H   UNL     1      -0.494  12.088  19.131  0.00  0.00    +0.000 HD
ENDBRANCH  16  17
ENDBRANCH  15  16
ENDBRANCH  14  15
ENDBRANCH  11  14
ENDBRANCH   1  10
BRANCH   1  27
ATOM     27  C   UNL     1       5.041   3.473  16.366  0.00  0.00    +0.000 C 
BRANCH  27  28
ATOM     28  C   UNL     1       6.063   4.171  15.514  0.00  0.00    +0.000 A 
ATOM     29  C   UNL     1       7.004   5.078  15.963  0.00  0.00    +0.000 A 
ATOM     30  N   UNL     1       7.723   5.523  14.888  0.00  0.00    +0.000 N 
ATOM     31  C   UNL     1       7.296   4.903  13.738  0.00  0.00    +0.000 A 
ATOM     32  C   UNL     1       7.752   5.043  12.422  0.00  0.00    +0.000 A 
ATOM     33  C   UNL     1       7.139   4.267  11.437  0.00  0.00    +0.000 A 
ATOM     34  C   UNL     1       6.111   3.385  11.760  0.00  0.00    +0.000 A 
ATOM     35  C   UNL     1       5.660   3.262  13.084  0.00  0.00    +0.000 A 
ATOM     36  C   UNL     1       6.260   4.036  14.099  0.00  0.00    +0.000 A 
ATOM     37  H   UNL     1       8.469   6.204  14.928  0.00  0.00    +0.000 HD
ENDBRANCH  27  28
ENDBRANCH   1  27
TORSDOF 10
ENDMDL
MODEL 5
REMARK VINA RESULT:      -8.2      1.889      5.693
REMARK  Name = 
REMARK  12 active torsions:
REMARK  status: ('A' for Active; 'I' for Inactive)
REMARK    1  A    between atoms: C_1  and  C_2
REMARK    2  A    between atoms: C_2  and  C_3
REMARK    3  A    between atoms: C_2  and  C_4
REMARK    4  A    between atoms: C_4  and  N_5
REMARK    5  A    between atoms: C_6  and  C_8
REMARK    6  A    between atoms: C_8  and  C_9
REMARK    7  A    between atoms: C_8  and  N_19
REMARK    8  A    between atoms: C_9  and  C_10
REMARK    9  A    between atoms: C_20  and  O_22
REMARK   10  A    between atoms: O_22  and  C_23
REMARK   11  A    between atoms: C_23  and  C_24
REMARK   12  A    between atoms: C_24  and  C_25
REMARK                            x       y       z     vdW  Elec       q    Type
REMARK                         _______ _______ _______ _____ _____    ______ ____
ROOT
ATOM      1  C   UNL     1       6.563   4.448  16.374  0.00  0.00    +0.000 C 
ENDROOT
BRANCH   1   3
ATOM      2  N   UNL     1       6.265   3.615  14.073  0.00  0.00    +0.000 N 
ATOM      3  C   UNL     1       6.901   4.541  14.865  0.00  0.00    +0.000 C 
ATOM      4  O   UNL     1       7.634   5.415  14.411  0.00  0.00    +0.000 OA
ATOM      5  H   UNL     1       5.587   3.011  14.527  0.00  0.00    +0.000 HD
BRANCH   2   6
ATOM      6  C   UNL     1       6.346   3.604  12.632  0.00  0.00    +0.000 C 
BRANCH   6   8
ATOM      7  C   UNL     1       4.290   3.262  11.198  0.00  0.00    +0.000 C 
ATOM      8  C   UNL     1       5.391   2.579  12.012  0.00  0.00    +0.000 C 
ATOM      9  C   UNL     1       6.177   1.611  11.130  0.00  0.00    +0.000 C 
ENDBRANCH   6   8
ENDBRANCH   2   6
ENDBRANCH   1   3
BRANCH   1  10
ATOM     10  N   UNL     1       7.238   5.473  17.200  0.00  0.00    +0.000 N 
ATOM     11  C   UNL     1       6.709   6.741  17.234  0.00  0.00    +0.000 C 
ATOM     12  O   UNL     1       7.374   7.753  17.123  0.00  0.00    +0.000 OA
ATOM     13  H   UNL     1       8.241   5.528  17.077  0.00  0.00    +0.000 HD
BRANCH  11  14
ATOM     14  O   UNL     1       5.378   6.702  17.450  0.00  0.00    +0.000 OA
BRANCH  14  15
ATOM     15  C   UNL     1       4.622   7.823  16.967  0.00  0.00    +0.000 C 
BRANCH  15  16
ATOM     16  C   UNL     1       3.156   7.428  17.160  0.00  0.00    +0.000 C 
BRANCH  16  17
ATOM     17  C   UNL     1       2.352   8.371  17.978  0.00  0.00    +0.000 A 
ATOM     18  C   UNL     1       2.023   9.663  17.626  0.00  0.00    +0.000 A 
ATOM     19  N   UNL     1       1.299  10.212  18.646  0.00  0.00    +0.000 N 
ATOM     20  C   UNL     1       1.156   9.306  19.672  0.00  0.00    +0.000 A 
ATOM     21  C   UNL     1       0.490   9.427  20.895  0.00  0.00    +0.000 A 
ATOM     22  C   UNL     1       0.518   8.330  21.760  0.00  0.00    +0.000 A 
ATOM     23  C   UNL     1       1.204   7.168  21.423  0.00  0.00    +0.000 A 
ATOM     24  C   UNL     1       1.875   7.065  20.198  0.00  0.00    +0.000 A 
ATOM     25  C   UNL     1       1.834   8.147  19.293  0.00  0.00    +0.000 A 
ATOM     26  H   UNL     1       0.929  11.153  18.659  0.00  0.00    +0.000 HD
ENDBRANCH  16  17
ENDBRANCH  15  16
ENDBRANCH  14  15
ENDBRANCH  11  14
ENDBRANCH   1  10
BRANCH   1  27
ATOM     27  C   UNL     1       5.033   4.449  16.538  0.00  0.00    +0.000 C 
BRANCH  27  28
ATOM     28  C   UNL     1       4.590   3.892  17.861  0.00  0.00    +0.000 A 
ATOM     29  C   UNL     1       5.424   3.454  18.872  0.00  0.00    +0.000 A 
ATOM     30  N   UNL     1       4.650   2.983  19.897  0.00  0.00    +0.000 N 
ATOM     31  C   UNL     1       3.317   3.131  19.595  0.00  0.00    +0.000 A 
ATOM     32  C   UNL     1       2.186   2.799  20.351  0.00  0.00    +0.000 A 
ATOM     33  C   UNL     1       0.933   3.078  19.799  0.00  0.00    +0.000 A 
ATOM     34  C   UNL     1       0.822   3.666  18.541  0.00  0.00    +0.000 A 
ATOM     35  C   UNL     1       1.967   3.985  17.794  0.00  0.00    +0.000 A 
ATOM     36  C   UNL     1       3.244   3.712  18.326  0.00  0.00    +0.000 A 
ATOM     37  H   UNL     1       5.001   2.589  20.758  0.00  0.00    +0.000 HD
ENDBRANCH  27  28
ENDBRANCH   1  27
TORSDOF 10
ENDMDL
MODEL 6
REMARK VINA RESULT:      -8.0      4.319     11.054
REMARK  Name = 
REMARK  12 active torsions:
REMARK  status: ('A' for Active; 'I' for Inactive)
REMARK    1  A    between atoms: C_1  and  C_2
REMARK    2  A    between atoms: C_2  and  C_3
REMARK    3  A    between atoms: C_2  and  C_4
REMARK    4  A    between atoms: C_4  and  N_5
REMARK    5  A    between atoms: C_6  and  C_8
REMARK    6  A    between atoms: C_8  and  C_9
REMARK    7  A    between atoms: C_8  and  N_19
REMARK    8  A    between atoms: C_9  and  C_10
REMARK    9  A    between atoms: C_20  and  O_22
REMARK   10  A    between atoms: O_22  and  C_23
REMARK   11  A    between atoms: C_23  and  C_24
REMARK   12  A    between atoms: C_24  and  C_25
REMARK                            x       y       z     vdW  Elec       q    Type
REMARK                         _______ _______ _______ _____ _____    ______ ____
ROOT
ATOM      1  C   UNL     1      -1.126  11.316  21.018  0.00  0.00    +0.000 C 
ENDROOT
BRANCH   1   3
ATOM      2  N   UNL     1      -1.656  10.436  18.777  0.00  0.00    +0.000 N 
ATOM      3  C   UNL     1      -0.738  11.128  19.530  0.00  0.00    +0.000 C 
ATOM      4  O   UNL     1       0.285  11.614  19.053  0.00  0.00    +0.000 OA
ATOM      5  H   UNL     1      -2.524  10.178  19.235  0.00  0.00    +0.000 HD
BRANCH   2   6
ATOM      6  C   UNL     1      -1.546  10.255  17.349  0.00  0.00    +0.000 C 
BRANCH   6   8
ATOM      7  C   UNL     1      -4.058  10.410  17.609  0.00  0.00    +0.000 C 
ATOM      8  C   UNL     1      -2.906   9.977  16.700  0.00  0.00    +0.000 C 
ATOM      9  C   UNL     1      -2.992  10.699  15.357  0.00  0.00    +0.000 C 
ENDBRANCH   6   8
ENDBRANCH   2   6
ENDBRANCH   1   3
BRANCH   1  10
ATOM     10  N   UNL     1      -0.007  11.090  21.959  0.00  0.00    +0.000 N 
ATOM     11  C   UNL     1       0.113   9.855  22.550  0.00  0.00    +0.000 C 
ATOM     12  O   UNL     1       0.328   9.693  23.736  0.00  0.00    +0.000 OA
ATOM     13  H   UNL     1       0.117  11.813  22.656  0.00  0.00    +0.000 HD
BRANCH  11  14
ATOM     14  O   UNL     1       0.004   8.870  21.635  0.00  0.00    +0.000 OA
BRANCH  14  15
ATOM     15  C   UNL     1       1.170   8.609  20.839  0.00  0.00    +0.000 C 
BRANCH  15  16
ATOM     16  C   UNL     1       1.525   7.146  21.119  0.00  0.00    +0.000 C 
BRANCH  16  17
ATOM     17  C   UNL     1       1.968   6.368  19.936  0.00  0.00    +0.000 A 
ATOM     18  C   UNL     1       2.687   6.865  18.868  0.00  0.00    +0.000 A 
ATOM     19  N   UNL     1       2.881   5.850  17.974  0.00  0.00    +0.000 N 
ATOM     20  C   UNL     1       2.290   4.694  18.430  0.00  0.00    +0.000 A 
ATOM     21  C   UNL     1       2.244   3.420  17.857  0.00  0.00    +0.000 A 
ATOM     22  C   UNL     1       1.554   2.422  18.550  0.00  0.00    +0.000 A 
ATOM     23  C   UNL     1       0.917   2.695  19.756  0.00  0.00    +0.000 A 
ATOM     24  C   UNL     1       0.964   3.978  20.313  0.00  0.00    +0.000 A 
ATOM     25  C   UNL     1       1.683   4.996  19.649  0.00  0.00    +0.000 A 
ATOM     26  H   UNL     1       3.375   5.932  17.097  0.00  0.00    +0.000 HD
ENDBRANCH  16  17
ENDBRANCH  15  16
ENDBRANCH  14  15
ENDBRANCH  11  14
ENDBRANCH   1  10
BRANCH   1  27
ATOM     27  C   UNL     1      -1.788  12.695  21.184  0.00  0.00    +0.000 C 
BRANCH  27  28
ATOM     28  C   UNL     1      -3.046  12.641  22.003  0.00  0.00    +0.000 A 
ATOM     29  C   UNL     1      -3.114  12.411  23.364  0.00  0.00    +0.000 A 
ATOM     30  N   UNL     1      -4.430  12.396  23.735  0.00  0.00    +0.000 N 
ATOM     31  C   UNL     1      -5.235  12.643  22.649  0.00  0.00    +0.000 A 
ATOM     32  C   UNL     1      -6.630  12.731  22.570  0.00  0.00    +0.000 A 
ATOM     33  C   UNL     1      -7.192  13.013  21.323  0.00  0.00    +0.000 A 
ATOM     34  C   UNL     1      -6.386  13.200  20.202  0.00  0.00    +0.000 A 
ATOM     35  C   UNL     1      -4.990  13.101  20.298  0.00  0.00    +0.000 A 
ATOM     36  C   UNL     1      -4.395  12.815  21.545  0.00  0.00    +0.000 A 
ATOM     37  H   UNL     1      -4.769  12.234  24.673  0.00  0.00    +0.000 HD
ENDBRANCH  27  28
ENDBRANCH   1  27
TORSDOF 10
ENDMDL
MODEL 7
REMARK VINA RESULT:      -7.9      4.380      6.903
REMARK  Name = 
REMARK  12 active torsions:
REMARK  status: ('A' for Active; 'I' for Inactive)
REMARK    1  A    between atoms: C_1  and  C_2
REMARK    2  A    between atoms: C_2  and  C_3
REMARK    3  A    between atoms: C_2  and  C_4
REMARK    4  A    between atoms: C_4  and  N_5
REMARK    5  A    between atoms: C_6  and  C_8
REMARK    6  A    between atoms: C_8  and  C_9
REMARK    7  A    between atoms: C_8  and  N_19
REMARK    8  A    between atoms: C_9  and  C_10
REMARK    9  A    between atoms: C_20  and  O_22
REMARK   10  A    between atoms: O_22  and  C_23
REMARK   11  A    between atoms: C_23  and  C_24
REMARK   12  A    between atoms: C_24  and  C_25
REMARK                            x       y       z     vdW  Elec       q    Type
REMARK                         _______ _______ _______ _____ _____    ______ ____
ROOT
ATOM      1  C   UNL     1       4.943   5.134  18.249  0.00  0.00    +0.000 C 
ENDROOT
BRANCH   1   3
ATOM      2  N   UNL     1       3.492   3.142  18.344  0.00  0.00    +0.000 N 
ATOM      3  C   UNL     1       4.529   3.814  18.946  0.00  0.00    +0.000 C 
ATOM      4  O   UNL     1       5.126   3.376  19.927  0.00  0.00    +0.000 OA
ATOM      5  H   UNL     1       3.144   3.524  17.470  0.00  0.00    +0.000 HD
BRANCH   2   6
ATOM      6  C   UNL     1       3.034   1.839  18.760  0.00  0.00    +0.000 C 
BRANCH   6   8
ATOM      7  C   UNL     1       1.829   2.390  20.915  0.00  0.00    +0.000 C 
ATOM      8  C   UNL     1       1.678   1.908  19.471  0.00  0.00    +0.000 C 
ATOM      9  C   UNL     1       0.740   2.833  18.699  0.00  0.00    +0.000 C 
ENDBRANCH   6   8
ENDBRANCH   2   6
ENDBRANCH   1   3
BRANCH   1  10
ATOM     10  N   UNL     1       5.982   4.959  17.211  0.00  0.00    +0.000 N 
ATOM     11  C   UNL     1       6.518   6.081  16.626  0.00  0.00    +0.000 C 
ATOM     12  O   UNL     1       6.683   6.203  15.426  0.00  0.00    +0.000 OA
ATOM     13  H   UNL     1       5.762   4.277  16.497  0.00  0.00    +0.000 HD
BRANCH  11  14
ATOM     14  O   UNL     1       6.870   6.990  17.558  0.00  0.00    +0.000 OA
BRANCH  14  15
ATOM     15  C   UNL     1       8.001   7.819  17.244  0.00  0.00    +0.000 C 
BRANCH  15  16
ATOM     16  C   UNL     1       8.272   8.622  18.519  0.00  0.00    +0.000 C 
BRANCH  16  17
ATOM     17  C   UNL     1       8.453  10.081  18.316  0.00  0.00    +0.000 A 
ATOM     18  C   UNL     1       7.848  10.840  17.336  0.00  0.00    +0.000 A 
ATOM     19  N   UNL     1       8.284  12.128  17.463  0.00  0.00    +0.000 N 
ATOM     20  C   UNL     1       9.177  12.229  18.504  0.00  0.00    +0.000 A 
ATOM     21  C   UNL     1       9.860  13.343  19.001  0.00  0.00    +0.000 A 
ATOM     22  C   UNL     1      10.726  13.146  20.079  0.00  0.00    +0.000 A 
ATOM     23  C   UNL     1      10.916  11.880  20.625  0.00  0.00    +0.000 A 
ATOM     24  C   UNL     1      10.231  10.772  20.111  0.00  0.00    +0.000 A 
ATOM     25  C   UNL     1       9.326  10.951  19.043  0.00  0.00    +0.000 A 
ATOM     26  H   UNL     1       8.004  12.899  16.873  0.00  0.00    +0.000 HD
ENDBRANCH  16  17
ENDBRANCH  15  16
ENDBRANCH  14  15
ENDBRANCH  11  14
ENDBRANCH   1  10
BRANCH   1  27
ATOM     27  C   UNL     1       3.676   5.834  17.727  0.00  0.00    +0.000 C 
BRANCH  27  28
ATOM     28  C   UNL     1       2.910   6.536  18.813  0.00  0.00    +0.000 A 
ATOM     29  C   UNL     1       2.675   6.044  20.083  0.00  0.00    +0.000 A 
ATOM     30  N   UNL     1       1.912   6.952  20.764  0.00  0.00    +0.000 N 
ATOM     31  C   UNL     1       1.664   8.052  19.978  0.00  0.00    +0.000 A 
ATOM     32  C   UNL     1       0.943   9.216  20.269  0.00  0.00    +0.000 A 
ATOM     33  C   UNL     1       0.863  10.194  19.275  0.00  0.00    +0.000 A 
ATOM     34  C   UNL     1       1.481  10.011  18.041  0.00  0.00    +0.000 A 
ATOM     35  C   UNL     1       2.194   8.834  17.763  0.00  0.00    +0.000 A 
ATOM     36  C   UNL     1       2.289   7.828  18.748  0.00  0.00    +0.000 A 
ATOM     37  H   UNL     1       1.581   6.840  21.712  0.00  0.00    +0.000 HD
ENDBRANCH  27  28
ENDBRANCH   1  27
TORSDOF 10
ENDMDL
MODEL 8
REMARK VINA RESULT:      -7.8      1.851      2.476
REMARK  Name = 
REMARK  12 active torsions:
REMARK  status: ('A' for Active; 'I' for Inactive)
REMARK    1  A    between atoms: C_1  and  C_2
REMARK    2  A    between atoms: C_2  and  C_3
REMARK    3  A    between atoms: C_2  and  C_4
REMARK    4  A    between atoms: C_4  and  N_5
REMARK    5  A    between atoms: C_6  and  C_8
REMARK    6  A    between atoms: C_8  and  C_9
REMARK    7  A    between atoms: C_8  and  N_19
REMARK    8  A    between atoms: C_9  and  C_10
REMARK    9  A    between atoms: C_20  and  O_22
REMARK   10  A    between atoms: O_22  and  C_23
REMARK   11  A    between atoms: C_23  and  C_24
REMARK   12  A    between atoms: C_24  and  C_25
REMARK                            x       y       z     vdW  Elec       q    Type
REMARK                         _______ _______ _______ _____ _____    ______ ____
ROOT
ATOM      1  C   UNL     1       3.633   4.847  17.154  0.00  0.00    +0.000 C 
ENDROOT
BRANCH   1   3
ATOM      2  N   UNL     1       2.539   4.453  19.327  0.00  0.00    +0.000 N 
ATOM      3  C   UNL     1       2.513   4.171  17.982  0.00  0.00    +0.000 C 
ATOM      4  O   UNL     1       1.636   3.485  17.463  0.00  0.00    +0.000 OA
ATOM      5  H   UNL     1       3.231   5.125  19.642  0.00  0.00    +0.000 HD
BRANCH   2   6
ATOM      6  C   UNL     1       1.520   4.024  20.255  0.00  0.00    +0.000 C 
BRANCH   6   8
ATOM      7  C   UNL     1       1.103   2.256  22.015  0.00  0.00    +0.000 C 
ATOM      8  C   UNL     1       2.111   3.253  21.440  0.00  0.00    +0.000 C 
ATOM      9  C   UNL     1       3.380   2.528  20.999  0.00  0.00    +0.000 C 
ENDBRANCH   6   8
ENDBRANCH   2   6
ENDBRANCH   1   3
BRANCH   1  10
ATOM     10  N   UNL     1       4.314   5.953  17.862  0.00  0.00    +0.000 N 
ATOM     11  C   UNL     1       3.881   7.238  17.641  0.00  0.00    +0.000 C 
ATOM     12  O   UNL     1       4.628   8.175  17.429  0.00  0.00    +0.000 OA
ATOM     13  H   UNL     1       5.325   5.924  17.825  0.00  0.00    +0.000 HD
BRANCH  11  14
ATOM     14  O   UNL     1       2.538   7.318  17.735  0.00  0.00    +0.000 OA
BRANCH  14  15
ATOM     15  C   UNL     1       2.022   8.250  18.698  0.00  0.00    +0.000 C 
BRANCH  15  16
ATOM     16  C   UNL     1       1.657   9.497  17.889  0.00  0.00    +0.000 C 
BRANCH  16  17
ATOM     17  C   UNL     1       0.695  10.416  18.548  0.00  0.00    +0.000 A 
ATOM     18  C   UNL     1       0.989  11.289  19.575  0.00  0.00    +0.000 A 
ATOM     19  N   UNL     1      -0.160  11.941  19.923  0.00  0.00    +0.000 N 
ATOM     20  C   UNL     1      -1.210  11.503  19.151  0.00  0.00    +0.000 A 
ATOM     21  C   UNL     1      -2.552  11.893  19.149  0.00  0.00    +0.000 A 
ATOM     22  C   UNL     1      -3.411  11.261  18.247  0.00  0.00    +0.000 A 
ATOM     23  C   UNL     1      -2.949  10.262  17.396  0.00  0.00    +0.000 A 
ATOM     24  C   UNL     1      -1.604   9.874  17.415  0.00  0.00    +0.000 A 
ATOM     25  C   UNL     1      -0.709  10.521  18.294  0.00  0.00    +0.000 A 
ATOM     26  H   UNL     1      -0.237  12.637  20.652  0.00  0.00    +0.000 HD
ENDBRANCH  16  17
ENDBRANCH  15  16
ENDBRANCH  14  15
ENDBRANCH  11  14
ENDBRANCH   1  10
BRANCH   1  27
ATOM     27  C   UNL     1       4.600   3.761  16.653  0.00  0.00    +0.000 C 
BRANCH  27  28
ATOM     28  C   UNL     1       5.748   4.324  15.863  0.00  0.00    +0.000 A 
ATOM     29  C   UNL     1       6.758   5.122  16.365  0.00  0.00    +0.000 A 
ATOM     30  N   UNL     1       7.590   5.465  15.335  0.00  0.00    +0.000 N 
ATOM     31  C   UNL     1       7.167   4.881  14.165  0.00  0.00    +0.000 A 
ATOM     32  C   UNL     1       7.719   4.948  12.880  0.00  0.00    +0.000 A 
ATOM     33  C   UNL     1       7.082   4.233  11.863  0.00  0.00    +0.000 A 
ATOM     34  C   UNL     1       5.940   3.481  12.126  0.00  0.00    +0.000 A 
ATOM     35  C   UNL     1       5.396   3.430  13.419  0.00  0.00    +0.000 A 
ATOM     36  C   UNL     1       6.017   4.145  14.465  0.00  0.00    +0.000 A 
ATOM     37  H   UNL     1       8.406   6.056  15.417  0.00  0.00    +0.000 HD
ENDBRANCH  27  28
ENDBRANCH   1  27
TORSDOF 10
ENDMDL
MODEL 9
REMARK VINA RESULT:      -7.8      4.213      7.422
REMARK  Name = 
REMARK  12 active torsions:
REMARK  status: ('A' for Active; 'I' for Inactive)
REMARK    1  A    between atoms: C_1  and  C_2
REMARK    2  A    between atoms: C_2  and  C_3
REMARK    3  A    between atoms: C_2  and  C_4
REMARK    4  A    between atoms: C_4  and  N_5
REMARK    5  A    between atoms: C_6  and  C_8
REMARK    6  A    between atoms: C_8  and  C_9
REMARK    7  A    between atoms: C_8  and  N_19
REMARK    8  A    between atoms: C_9  and  C_10
REMARK    9  A    between atoms: C_20  and  O_22
REMARK   10  A    between atoms: O_22  and  C_23
REMARK   11  A    between atoms: C_23  and  C_24
REMARK   12  A    between atoms: C_24  and  C_25
REMARK                            x       y       z     vdW  Elec       q    Type
REMARK                         _______ _______ _______ _____ _____    ______ ____
ROOT
ATOM      1  C   UNL     1       5.905   4.156  17.245  0.00  0.00    +0.000 C 
ENDROOT
BRANCH   1   3
ATOM      2  N   UNL     1       6.439   4.073  14.840  0.00  0.00    +0.000 N 
ATOM      3  C   UNL     1       5.816   4.789  15.834  0.00  0.00    +0.000 C 
ATOM      4  O   UNL     1       5.185   5.820  15.617  0.00  0.00    +0.000 OA
ATOM      5  H   UNL     1       6.831   3.173  15.099  0.00  0.00    +0.000 HD
BRANCH   2   6
ATOM      6  C   UNL     1       6.373   4.421  13.441  0.00  0.00    +0.000 C 
BRANCH   6   8
ATOM      7  C   UNL     1       4.634   3.463  11.873  0.00  0.00    +0.000 C 
ATOM      8  C   UNL     1       5.976   3.225  12.570  0.00  0.00    +0.000 C 
ATOM      9  C   UNL     1       7.068   2.957  11.537  0.00  0.00    +0.000 C 
ENDBRANCH   6   8
ENDBRANCH   2   6
ENDBRANCH   1   3
BRANCH   1  10
ATOM     10  N   UNL     1       5.800   5.138  18.346  0.00  0.00    +0.000 N 
ATOM     11  C   UNL     1       6.955   5.690  18.845  0.00  0.00    +0.000 C 
ATOM     12  O   UNL     1       7.191   5.803  20.033  0.00  0.00    +0.000 OA
ATOM     13  H   UNL     1       5.200   4.859  19.111  0.00  0.00    +0.000 HD
BRANCH  11  14
ATOM     14  O   UNL     1       7.753   6.121  17.847  0.00  0.00    +0.000 OA
BRANCH  14  15
ATOM     15  C   UNL     1       7.613   7.500  17.469  0.00  0.00    +0.000 C 
BRANCH  15  16
ATOM     16  C   UNL     1       8.452   8.279  18.485  0.00  0.00    +0.000 C 
BRANCH  16  17
ATOM     17  C   UNL     1       8.481   9.749  18.283  0.00  0.00    +0.000 A 
ATOM     18  C   UNL     1       7.756  10.446  17.340  0.00  0.00    +0.000 A 
ATOM     19  N   UNL     1       8.071  11.771  17.453  0.00  0.00    +0.000 N 
ATOM     20  C   UNL     1       9.003  11.957  18.448  0.00  0.00    +0.000 A 
ATOM     21  C   UNL     1       9.599  13.131  18.916  0.00  0.00    +0.000 A 
ATOM     22  C   UNL     1      10.534  13.017  19.948  0.00  0.00    +0.000 A 
ATOM     23  C   UNL     1      10.873  11.775  20.475  0.00  0.00    +0.000 A 
ATOM     24  C   UNL     1      10.274  10.606  19.990  0.00  0.00    +0.000 A 
ATOM     25  C   UNL     1       9.302  10.698  18.970  0.00  0.00    +0.000 A 
ATOM     26  H   UNL     1       7.688  12.512  16.882  0.00  0.00    +0.000 HD
ENDBRANCH  16  17
ENDBRANCH  15  16
ENDBRANCH  14  15
ENDBRANCH  11  14
ENDBRANCH   1  10
BRANCH   1  27
ATOM     27  C   UNL     1       4.869   3.023  17.343  0.00  0.00    +0.000 C 
BRANCH  27  28
ATOM     28  C   UNL     1       3.546   3.489  17.880  0.00  0.00    +0.000 A 
ATOM     29  C   UNL     1       2.610   4.233  17.187  0.00  0.00    +0.000 A 
ATOM     30  N   UNL     1       1.560   4.493  18.022  0.00  0.00    +0.000 N 
ATOM     31  C   UNL     1       1.768   3.908  19.248  0.00  0.00    +0.000 A 
ATOM     32  C   UNL     1       0.957   3.905  20.389  0.00  0.00    +0.000 A 
ATOM     33  C   UNL     1       1.414   3.206  21.509  0.00  0.00    +0.000 A 
ATOM     34  C   UNL     1       2.635   2.537  21.482  0.00  0.00    +0.000 A 
ATOM     35  C   UNL     1       3.440   2.556  20.332  0.00  0.00    +0.000 A 
ATOM     36  C   UNL     1       3.003   3.256  19.188  0.00  0.00    +0.000 A 
ATOM     37  H   UNL     1       0.740   5.032  17.778  0.00  0.00    +0.000 HD
ENDBRANCH  27  28
ENDBRANCH   1  27
TORSDOF 10
ENDMDL
