MODEL 1
REMARK VINA RESULT:      -8.0      0.000      0.000
REMARK  Name = 
REMARK  8 active torsions:
REMARK  status: ('A' for Active; 'I' for Inactive)
REMARK    1  A    between atoms: C_1  and  C_2
REMARK    2  A    between atoms: C_2  and  S_3
REMARK    3  A    between atoms: C_2  and  C_10
REMARK    4  A    between atoms: S_3  and  C_4
REMARK    5  A    between atoms: N_8  and  C_9
REMARK    6  A    between atoms: C_14  and  N_15
REMARK    7  A    between atoms: C_16  and  C_18
REMARK    8  A    between atoms: C_22  and  C_23
REMARK                            x       y       z     vdW  Elec       q    Type
REMARK                         _______ _______ _______ _____ _____    ______ ____
ROOT
ATOM      1  C   UNL     1      10.159  12.696  18.885  0.00  0.00    +0.000 A 
ATOM      2  C   UNL     1      10.131  13.089  20.236  0.00  0.00    +0.000 A 
ATOM      3  C   UNL     1       9.780  12.185  21.233  0.00  0.00    +0.000 A 
ATOM      4  C   UNL     1       9.415  10.882  20.900  0.00  0.00    +0.000 A 
ATOM      5  C   UNL     1       9.370  10.470  19.566  0.00  0.00    +0.000 A 
ATOM      6  C   UNL     1       9.751  11.381  18.570  0.00  0.00    +0.000 A 
ENDROOT
BRANCH   5   7
ATOM      7  N   UNL     1       8.989   9.159  19.167  0.00  0.00    +0.000 N 
ATOM      8  C   UNL     1       8.099   8.869  18.151  0.00  0.00    +0.000 C 
ATOM      9  O   UNL     1       7.575   9.681  17.394  0.00  0.00    +0.000 OA
ATOM     10  H   UNL     1       9.503   8.392  19.581  0.00  0.00    +0.000 HD
BRANCH   8  11
ATOM     11  C   UNL     1       7.759   7.439  17.928  0.00  0.00    +0.000 A 
ATOM     12  C   UNL     1       8.089   6.543  18.955  0.00  0.00    +0.000 A 
ATOM     13  C   UNL     1       7.928   5.172  18.782  0.00  0.00    +0.000 A 
ATOM     14  C   UNL     1       7.443   4.683  17.571  0.00  0.00    +0.000 A 
ATOM     15  C   UNL     1       7.106   5.561  16.526  0.00  0.00    +0.000 A 
ATOM     16  C   UNL     1       7.255   6.950  16.716  0.00  0.00    +0.000 A 
BRANCH  15  17
ATOM     17  C   UNL     1       6.622   5.016  15.203  0.00  0.00    +0.000 C 
ATOM     18  F   UNL     1       7.520   5.164  14.189  0.00  0.00    +0.000 F 
ATOM     19  F   UNL     1       6.342   3.686  15.264  0.00  0.00    +0.000 F 
ATOM     20  F   UNL     1       5.479   5.620  14.779  0.00  0.00    +0.000 F 
ENDBRANCH  15  17
ENDBRANCH   8  11
ENDBRANCH   5   7
BRANCH   1  22
ATOM     21  C   UNL     1      11.574  13.047  16.770  0.00  0.00    +0.000 C 
ATOM     22  C   UNL     1      10.679  13.689  17.838  0.00  0.00    +0.000 C 
BRANCH  22  23
ATOM     23  S   UNL     1      11.605  15.017  18.727  0.00  0.00    +0.000 S 
BRANCH  23  24
ATOM     24  C   UNL     1      10.840  16.454  18.169  0.00  0.00    +0.000 A 
ATOM     25  N   UNL     1      11.225  17.241  17.191  0.00  0.00    +0.000 NA
ATOM     26  N   UNL     1      10.368  18.323  17.169  0.00  0.00    +0.000 NA
ATOM     27  C   UNL     1       9.481  18.147  18.124  0.00  0.00    +0.000 A 
ATOM     28  N   UNL     1       9.727  16.969  18.762  0.00  0.00    +0.000 N 
ATOM     29  C   UNL     1       8.971  16.419  19.855  0.00  0.00    +0.000 C 
ENDBRANCH  23  24
ENDBRANCH  22  23
ENDBRANCH   1  22
TORSDOF 6
ENDMDL
MODEL 2
REMARK VINA RESULT:      -8.0      8.727     10.054
REMARK  Name = 
REMARK  8 active torsions:
REMARK  status: ('A' for Active; 'I' for Inactive)
REMARK    1  A    between atoms: C_1  and  C_2
REMARK    2  A    between atoms: C_2  and  S_3
REMARK    3  A    between atoms: C_2  and  C_10
REMARK    4  A    between atoms: S_3  and  C_4
REMARK    5  A    between atoms: N_8  and  C_9
REMARK    6  A    between atoms: C_14  and  N_15
REMARK    7  A    between atoms: C_16  and  C_18
REMARK    8  A    between atoms: C_22  and  C_23
REMARK                            x       y       z     vdW  Elec       q    Type
REMARK                         _______ _______ _______ _____ _____    ______ ____
ROOT
ATOM      1  C   UNL     1      -0.460  11.355  18.958  0.00  0.00    +0.000 A 
ATOM      2  C   UNL     1       0.379  12.484  18.904  0.00  0.00    +0.000 A 
ATOM      3  C   UNL     1       1.704  12.368  18.499  0.00  0.00    +0.000 A 
ATOM      4  C   UNL     1       2.230  11.118  18.175  0.00  0.00    +0.000 A 
ATOM      5  C   UNL     1       1.449   9.965  18.275  0.00  0.00    +0.000 A 
ATOM      6  C   UNL     1       0.106  10.096  18.659  0.00  0.00    +0.000 A 
ENDROOT
BRANCH   5   7
ATOM      7  N   UNL     1       1.937   8.664  17.974  0.00  0.00    +0.000 N 
ATOM      8  C   UNL     1       2.245   7.697  18.912  0.00  0.00    +0.000 C 
ATOM      9  O   UNL     1       2.066   7.782  20.123  0.00  0.00    +0.000 OA
ATOM     10  H   UNL     1       1.941   8.396  16.998  0.00  0.00    +0.000 HD
BRANCH   8  11
ATOM     11  C   UNL     1       2.821   6.420  18.414  0.00  0.00    +0.000 A 
ATOM     12  C   UNL     1       3.926   6.517  17.557  0.00  0.00    +0.000 A 
ATOM     13  C   UNL     1       4.449   5.385  16.940  0.00  0.00    +0.000 A 
ATOM     14  C   UNL     1       3.862   4.143  17.169  0.00  0.00    +0.000 A 
ATOM     15  C   UNL     1       2.753   4.020  18.024  0.00  0.00    +0.000 A 
ATOM     16  C   UNL     1       2.240   5.170  18.659  0.00  0.00    +0.000 A 
BRANCH  15  17
ATOM     17  C   UNL     1       2.099   2.674  18.230  0.00  0.00    +0.000 C 
ATOM     18  F   UNL     1       2.474   2.054  19.383  0.00  0.00    +0.000 F 
ATOM     19  F   UNL     1       0.742   2.762  18.278  0.00  0.00    +0.000 F 
ATOM     20  F   UNL     1       2.383   1.800  17.227  0.00  0.00    +0.000 F 
ENDBRANCH  15  17
ENDBRANCH   8  11
ENDBRANCH   5   7
BRANCH   1  22
ATOM     21  C   UNL     1      -2.857  11.515  18.050  0.00  0.00    +0.000 C 
ATOM     22  C   UNL     1      -1.945  11.553  19.283  0.00  0.00    +0.000 C 
BRANCH  22  23
ATOM     23  S   UNL     1      -2.124  13.173  20.154  0.00  0.00    +0.000 S 
BRANCH  23  24
ATOM     24  C   UNL     1      -2.974  12.744  21.587  0.00  0.00    +0.000 A 
ATOM     25  N   UNL     1      -4.258  12.874  21.828  0.00  0.00    +0.000 NA
ATOM     26  N   UNL     1      -4.472  12.497  23.138  0.00  0.00    +0.000 NA
ATOM     27  C   UNL     1      -3.314  12.133  23.643  0.00  0.00    +0.000 A 
ATOM     28  N   UNL     1      -2.347  12.249  22.691  0.00  0.00    +0.000 N 
ATOM     29  C   UNL     1      -0.952  11.937  22.851  0.00  0.00    +0.000 C 
ENDBRANCH  23  24
ENDBRANCH  22  23
ENDBRANCH   1  22
TORSDOF 6
ENDMDL
MODEL 3
REMARK VINA RESULT:      -7.9      8.192      9.760
REMARK  Name = 
REMARK  8 active torsions:
REMARK  status: ('A' for Active; 'I' for Inactive)
REMARK    1  A    between atoms: C_1  and  C_2
REMARK    2  A    between atoms: C_2  and  S_3
REMARK    3  A    between atoms: C_2  and  C_10
REMARK    4  A    between atoms: S_3  and  C_4
REMARK    5  A    between atoms: N_8  and  C_9
REMARK    6  A    between atoms: C_14  and  N_15
REMARK    7  A    between atoms: C_16  and  C_18
REMARK    8  A    between atoms: C_22  and  C_23
REMARK                            x       y       z     vdW  Elec       q    Type
REMARK                         _______ _______ _______ _____ _____    ______ ____
ROOT
ATOM      1  C   UNL     1      -0.035  10.761  19.551  0.00  0.00    +0.000 A 
ATOM      2  C   UNL     1      -0.168  10.608  20.943  0.00  0.00    +0.000 A 
ATOM      3  C   UNL     1       0.514   9.601  21.618  0.00  0.00    +0.000 A 
ATOM      4  C   UNL     1       1.314   8.703  20.912  0.00  0.00    +0.000 A 
ATOM      5  C   UNL     1       1.424   8.783  19.523  0.00  0.00    +0.000 A 
ATOM      6  C   UNL     1       0.753   9.818  18.855  0.00  0.00    +0.000 A 
ENDROOT
BRANCH   5   7
ATOM      7  N   UNL     1       2.211   7.885  18.750  0.00  0.00    +0.000 N 
ATOM      8  C   UNL     1       2.436   6.558  19.064  0.00  0.00    +0.000 C 
ATOM      9  O   UNL     1       1.929   5.939  19.995  0.00  0.00    +0.000 OA
ATOM     10  H   UNL     1       2.525   8.219  17.848  0.00  0.00    +0.000 HD
BRANCH   8  11
ATOM     11  C   UNL     1       3.354   5.793  18.180  0.00  0.00    +0.000 A 
ATOM     12  C   UNL     1       2.922   4.526  17.763  0.00  0.00    +0.000 A 
ATOM     13  C   UNL     1       3.767   3.687  17.044  0.00  0.00    +0.000 A 
ATOM     14  C   UNL     1       5.061   4.106  16.745  0.00  0.00    +0.000 A 
ATOM     15  C   UNL     1       5.519   5.371  17.152  0.00  0.00    +0.000 A 
ATOM     16  C   UNL     1       4.650   6.223  17.865  0.00  0.00    +0.000 A 
BRANCH  15  17
ATOM     17  C   UNL     1       6.938   5.796  16.859  0.00  0.00    +0.000 C 
ATOM     18  F   UNL     1       7.865   5.195  17.656  0.00  0.00    +0.000 F 
ATOM     19  F   UNL     1       7.307   5.517  15.580  0.00  0.00    +0.000 F 
ATOM     20  F   UNL     1       7.122   7.136  17.018  0.00  0.00    +0.000 F 
ENDBRANCH  15  17
ENDBRANCH   8  11
ENDBRANCH   5   7
BRANCH   1  22
ATOM     21  C   UNL     1      -0.359  13.309  19.527  0.00  0.00    +0.000 C 
ATOM     22  C   UNL     1      -0.701  11.964  18.873  0.00  0.00    +0.000 C 
BRANCH  22  23
ATOM     23  S   UNL     1      -2.528  11.691  18.901  0.00  0.00    +0.000 S 
BRANCH  23  24
ATOM     24  C   UNL     1      -2.837  11.019  17.347  0.00  0.00    +0.000 A 
ATOM     25  N   UNL     1      -2.032  10.286  16.615  0.00  0.00    +0.000 NA
ATOM     26  N   UNL     1      -2.661  10.061  15.407  0.00  0.00    +0.000 NA
ATOM     27  C   UNL     1      -3.835  10.651  15.455  0.00  0.00    +0.000 A 
ATOM     28  N   UNL     1      -3.997  11.245  16.670  0.00  0.00    +0.000 N 
ATOM     29  C   UNL     1      -5.152  11.980  17.111  0.00  0.00    +0.000 C 
ENDBRANCH  23  24
ENDBRANCH  22  23
ENDBRANCH   1  22
TORSDOF 6
ENDMDL
MODEL 4
REMARK VINA RESULT:      -7.8      8.401      9.972
REMARK  Name = 
REMARK  8 active torsions:
REMARK  status: ('A' for Active; 'I' for Inactive)
REMARK    1  A    between atoms: C_1  and  C_2
REMARK    2  A    between atoms: C_2  and  S_3
REMARK    3  A    between atoms: C_2  and  C_10
REMARK    4  A    between atoms: S_3  and  C_4
REMARK    5  A    between atoms: N_8  and  C_9
REMARK    6  A    between atoms: C_14  and  N_15
REMARK    7  A    between atoms: C_16  and  C_18
REMARK    8  A    between atoms: C_22  and  C_23
REMARK                            x       y       z     vdW  Elec       q    Type
REMARK                         _______ _______ _______ _____ _____    ______ ____
ROOT
ATOM      1  C   UNL     1      -0.100  10.649  19.997  0.00  0.00    +0.000 A 
ATOM      2  C   UNL     1      -0.491  10.700  21.347  0.00  0.00    +0.000 A 
ATOM      3  C   UNL     1      -0.005   9.774  22.265  0.00  0.00    +0.000 A 
ATOM      4  C   UNL     1       0.852   8.757  21.846  0.00  0.00    +0.000 A 
ATOM      5  C   UNL     1       1.215   8.635  20.504  0.00  0.00    +0.000 A 
ATOM      6  C   UNL     1       0.741   9.589  19.591  0.00  0.00    +0.000 A 
ENDROOT
BRANCH   5   7
ATOM      7  N   UNL     1       2.072   7.609  20.018  0.00  0.00    +0.000 N 
ATOM      8  C   UNL     1       2.375   7.394  18.687  0.00  0.00    +0.000 C 
ATOM      9  O   UNL     1       2.024   8.097  17.744  0.00  0.00    +0.000 OA
ATOM     10  H   UNL     1       2.586   7.081  20.712  0.00  0.00    +0.000 HD
BRANCH   8  11
ATOM     11  C   UNL     1       3.226   6.220  18.360  0.00  0.00    +0.000 A 
ATOM     12  C   UNL     1       4.281   6.435  17.462  0.00  0.00    +0.000 A 
ATOM     13  C   UNL     1       5.048   5.370  16.998  0.00  0.00    +0.000 A 
ATOM     14  C   UNL     1       4.757   4.076  17.422  0.00  0.00    +0.000 A 
ATOM     15  C   UNL     1       3.703   3.835  18.322  0.00  0.00    +0.000 A 
ATOM     16  C   UNL     1       2.942   4.922  18.801  0.00  0.00    +0.000 A 
BRANCH  15  17
ATOM     17  C   UNL     1       3.370   2.423  18.740  0.00  0.00    +0.000 C 
ATOM     18  F   UNL     1       2.156   2.303  19.345  0.00  0.00    +0.000 F 
ATOM     19  F   UNL     1       3.349   1.563  17.685  0.00  0.00    +0.000 F 
ATOM     20  F   UNL     1       4.276   1.914  19.619  0.00  0.00    +0.000 F 
ENDBRANCH  15  17
ENDBRANCH   8  11
ENDBRANCH   5   7
BRANCH   1  22
ATOM     21  C   UNL     1      -0.043  13.158  19.448  0.00  0.00    +0.000 C 
ATOM     22  C   UNL     1      -0.557  11.767  19.053  0.00  0.00    +0.000 C 
BRANCH  22  23
ATOM     23  S   UNL     1      -2.404  11.760  19.019  0.00  0.00    +0.000 S 
BRANCH  23  24
ATOM     24  C   UNL     1      -2.755  11.068  17.482  0.00  0.00    +0.000 A 
ATOM     25  N   UNL     1      -1.955  10.360  16.720  0.00  0.00    +0.000 NA
ATOM     26  N   UNL     1      -2.626  10.105  15.541  0.00  0.00    +0.000 NA
ATOM     27  C   UNL     1      -3.818  10.652  15.636  0.00  0.00    +0.000 A 
ATOM     28  N   UNL     1      -3.950  11.248  16.854  0.00  0.00    +0.000 N 
ATOM     29  C   UNL     1      -5.111  11.943  17.340  0.00  0.00    +0.000 C 
ENDBRANCH  23  24
ENDBRANCH  22  23
ENDBRANCH   1  22
TORSDOF 6
ENDMDL
MODEL 5
REMARK VINA RESULT:      -7.7      8.464      9.719
REMARK  Name = 
REMARK  8 active torsions:
REMARK  status: ('A' for Active; 'I' for Inactive)
REMARK    1  A    between atoms: C_1  and  C_2
REMARK    2  A    between atoms: C_2  and  S_3
REMARK    3  A    between atoms: C_2  and  C_10
REMARK    4  A    between atoms: S_3  and  C_4
REMARK    5  A    between atoms: N_8  and  C_9
REMARK    6  A    between atoms: C_14  and  N_15
REMARK    7  A    between atoms: C_16  and  C_18
REMARK    8  A    between atoms: C_22  and  C_23
REMARK                            x       y       z     vdW  Elec       q    Type
REMARK                         _______ _______ _______ _____ _____    ______ ____
ROOT
ATOM      1  C   UNL     1      -0.327  11.299  18.889  0.00  0.00    +0.000 A 
ATOM      2  C   UNL     1       0.538  12.408  18.929  0.00  0.00    +0.000 A 
ATOM      3  C   UNL     1       1.861  12.295  18.513  0.00  0.00    +0.000 A 
ATOM      4  C   UNL     1       2.356  11.065  18.083  0.00  0.00    +0.000 A 
ATOM      5  C   UNL     1       1.547   9.927  18.087  0.00  0.00    +0.000 A 
ATOM      6  C   UNL     1       0.208  10.056  18.483  0.00  0.00    +0.000 A 
ENDROOT
BRANCH   5   7
ATOM      7  N   UNL     1       2.004   8.644  17.675  0.00  0.00    +0.000 N 
ATOM      8  C   UNL     1       2.362   7.619  18.530  0.00  0.00    +0.000 C 
ATOM      9  O   UNL     1       2.262   7.630  19.753  0.00  0.00    +0.000 OA
ATOM     10  H   UNL     1       1.944   8.438  16.686  0.00  0.00    +0.000 HD
BRANCH   8  11
ATOM     11  C   UNL     1       2.895   6.373  17.918  0.00  0.00    +0.000 A 
ATOM     12  C   UNL     1       2.157   5.200  18.128  0.00  0.00    +0.000 A 
ATOM     13  C   UNL     1       2.646   3.968  17.706  0.00  0.00    +0.000 A 
ATOM     14  C   UNL     1       3.886   3.897  17.076  0.00  0.00    +0.000 A 
ATOM     15  C   UNL     1       4.645   5.060  16.854  0.00  0.00    +0.000 A 
ATOM     16  C   UNL     1       4.135   6.307  17.270  0.00  0.00    +0.000 A 
BRANCH  15  17
ATOM     17  C   UNL     1       6.008   4.966  16.210  0.00  0.00    +0.000 C 
ATOM     18  F   UNL     1       7.010   5.486  16.971  0.00  0.00    +0.000 F 
ATOM     19  F   UNL     1       6.367   3.680  15.948  0.00  0.00    +0.000 F 
ATOM     20  F   UNL     1       6.065   5.621  15.018  0.00  0.00    +0.000 F 
ENDBRANCH  15  17
ENDBRANCH   8  11
ENDBRANCH   5   7
BRANCH   1  22
ATOM     21  C   UNL     1      -2.740  11.427  18.017  0.00  0.00    +0.000 C 
ATOM     22  C   UNL     1      -1.807  11.504  19.233  0.00  0.00    +0.000 C 
BRANCH  22  23
ATOM     23  S   UNL     1      -1.975  13.150  20.057  0.00  0.00    +0.000 S 
BRANCH  23  24
ATOM     24  C   UNL     1      -3.032  12.811  21.373  0.00  0.00    +0.000 A 
ATOM     25  N   UNL     1      -4.323  12.583  21.327  0.00  0.00    +0.000 NA
ATOM     26  N   UNL     1      -4.769  12.464  22.628  0.00  0.00    +0.000 NA
ATOM     27  C   UNL     1      -3.728  12.607  23.419  0.00  0.00    +0.000 A 
ATOM     28  N   UNL     1      -2.609  12.802  22.668  0.00  0.00    +0.000 N 
ATOM     29  C   UNL     1      -1.272  12.988  23.164  0.00  0.00    +0.000 C 
ENDBRANCH  23  24
ENDBRANCH  22  23
ENDBRANCH   1  22
TORSDOF 6
ENDMDL
MODEL 6
REMARK VINA RESULT:      -7.7      8.258      9.645
REMARK  Name = 
REMARK  8 active torsions:
REMARK  status: ('A' for Active; 'I' for Inactive)
REMARK    1  A    between atoms: C_1  and  C_2
REMARK    2  A    between atoms: C_2  and  S_3
REMARK    3  A    between atoms: C_2  and  C_10
REMARK    4  A    between atoms: S_3  and  C_4
REMARK    5  A    between atoms: N_8  and  C_9
REMARK    6  A    between atoms: C_14  and  N_15
REMARK    7  A    between atoms: C_16  and  C_18
REMARK    8  A    between atoms: C_22  and  C_23
REMARK                            x       y       z     vdW  Elec       q    Type
REMARK                         _______ _______ _______ _____ _____    ______ ____
ROOT
ATOM      1  C   UNL     1       0.036  10.846  20.313  0.00  0.00    +0.000 A 
ATOM      2  C   UNL     1      -0.099  10.816  21.713  0.00  0.00    +0.000 A 
ATOM      3  C   UNL     1       0.447   9.777  22.460  0.00  0.00    +0.000 A 
ATOM      4  C   UNL     1       1.108   8.728  21.821  0.00  0.00    +0.000 A 
ATOM      5  C   UNL     1       1.210   8.689  20.430  0.00  0.00    +0.000 A 
ATOM      6  C   UNL     1       0.679   9.754  19.687  0.00  0.00    +0.000 A 
ENDROOT
BRANCH   5   7
ATOM      7  N   UNL     1       1.857   7.636  19.725  0.00  0.00    +0.000 N 
ATOM      8  C   UNL     1       2.538   7.785  18.531  0.00  0.00    +0.000 C 
ATOM      9  O   UNL     1       2.758   8.844  17.951  0.00  0.00    +0.000 OA
ATOM     10  H   UNL     1       1.921   6.745  20.200  0.00  0.00    +0.000 HD
BRANCH   8  11
ATOM     11  C   UNL     1       3.083   6.555  17.898  0.00  0.00    +0.000 A 
ATOM     12  C   UNL     1       2.370   5.367  18.107  0.00  0.00    +0.000 A 
ATOM     13  C   UNL     1       2.873   4.148  17.664  0.00  0.00    +0.000 A 
ATOM     14  C   UNL     1       4.104   4.106  17.013  0.00  0.00    +0.000 A 
ATOM     15  C   UNL     1       4.838   5.285  16.791  0.00  0.00    +0.000 A 
ATOM     16  C   UNL     1       4.313   6.518  17.229  0.00  0.00    +0.000 A 
BRANCH  15  17
ATOM     17  C   UNL     1       6.192   5.222  16.123  0.00  0.00    +0.000 C 
ATOM     18  F   UNL     1       6.874   4.071  16.377  0.00  0.00    +0.000 F 
ATOM     19  F   UNL     1       6.103   5.313  14.769  0.00  0.00    +0.000 F 
ATOM     20  F   UNL     1       7.011   6.235  16.515  0.00  0.00    +0.000 F 
ENDBRANCH  15  17
ENDBRANCH   8  11
ENDBRANCH   5   7
BRANCH   1  22
ATOM     21  C   UNL     1       0.146  13.397  20.031  0.00  0.00    +0.000 C 
ATOM     22  C   UNL     1      -0.467  12.075  19.548  0.00  0.00    +0.000 C 
BRANCH  22  23
ATOM     23  S   UNL     1      -2.306  12.132  19.713  0.00  0.00    +0.000 S 
BRANCH  23  24
ATOM     24  C   UNL     1      -2.844  11.584  18.173  0.00  0.00    +0.000 A 
ATOM     25  N   UNL     1      -2.109  11.256  17.136  0.00  0.00    +0.000 NA
ATOM     26  N   UNL     1      -2.968  10.978  16.092  0.00  0.00    +0.000 NA
ATOM     27  C   UNL     1      -4.196  11.129  16.536  0.00  0.00    +0.000 A 
ATOM     28  N   UNL     1      -4.164  11.486  17.850  0.00  0.00    +0.000 N 
ATOM     29  C   UNL     1      -5.303  11.733  18.694  0.00  0.00    +0.000 C 
ENDBRANCH  23  24
ENDBRANCH  22  23
ENDBRANCH   1  22
TORSDOF 6
ENDMDL
MODEL 7
REMARK VINA RESULT:      -7.7      7.603      8.476
REMARK  Name = 
REMARK  8 active torsions:
REMARK  status: ('A' for Active; 'I' for Inactive)
REMARK    1  A    between atoms: C_1  and  C_2
REMARK    2  A    between atoms: C_2  and  S_3
REMARK    3  A    between atoms: C_2  and  C_10
REMARK    4  A    between atoms: S_3  and  C_4
REMARK    5  A    between atoms: N_8  and  C_9
REMARK    6  A    between atoms: C_14  and  N_15
REMARK    7  A    between atoms: C_16  and  C_18
REMARK    8  A    between atoms: C_22  and  C_23
REMARK                            x       y       z     vdW  Elec       q    Type
REMARK                         _______ _______ _______ _____ _____    ______ ____
ROOT
ATOM      1  C   UNL     1       1.727   7.675  19.972  0.00  0.00    +0.000 A 
ATOM      2  C   UNL     1       1.345   6.671  20.881  0.00  0.00    +0.000 A 
ATOM      3  C   UNL     1       1.896   5.396  20.807  0.00  0.00    +0.000 A 
ATOM      4  C   UNL     1       2.811   5.086  19.802  0.00  0.00    +0.000 A 
ATOM      5  C   UNL     1       3.169   6.036  18.844  0.00  0.00    +0.000 A 
ATOM      6  C   UNL     1       2.629   7.327  18.942  0.00  0.00    +0.000 A 
ENDROOT
BRANCH   5   7
ATOM      7  N   UNL     1       4.085   5.771  17.787  0.00  0.00    +0.000 N 
ATOM      8  C   UNL     1       4.091   4.625  17.014  0.00  0.00    +0.000 C 
ATOM      9  O   UNL     1       3.269   3.715  17.064  0.00  0.00    +0.000 OA
ATOM     10  H   UNL     1       4.692   6.532  17.512  0.00  0.00    +0.000 HD
BRANCH   8  11
ATOM     11  C   UNL     1       5.175   4.486  16.007  0.00  0.00    +0.000 A 
ATOM     12  C   UNL     1       6.419   5.043  16.336  0.00  0.00    +0.000 A 
ATOM     13  C   UNL     1       7.452   5.076  15.405  0.00  0.00    +0.000 A 
ATOM     14  C   UNL     1       7.246   4.559  14.129  0.00  0.00    +0.000 A 
ATOM     15  C   UNL     1       6.007   3.996  13.774  0.00  0.00    +0.000 A 
ATOM     16  C   UNL     1       4.971   3.950  14.729  0.00  0.00    +0.000 A 
BRANCH  15  17
ATOM     17  C   UNL     1       5.781   3.478  12.373  0.00  0.00    +0.000 C 
ATOM     18  F   UNL     1       5.939   2.130  12.256  0.00  0.00    +0.000 F 
ATOM     19  F   UNL     1       4.528   3.749  11.919  0.00  0.00    +0.000 F 
ATOM     20  F   UNL     1       6.635   4.034  11.470  0.00  0.00    +0.000 F 
ENDBRANCH  15  17
ENDBRANCH   8  11
ENDBRANCH   5   7
BRANCH   1  22
ATOM     21  C   UNL     1      -0.028   9.173  21.102  0.00  0.00    +0.000 C 
ATOM     22  C   UNL     1       1.192   9.098  20.175  0.00  0.00    +0.000 C 
BRANCH  22  23
ATOM     23  S   UNL     1       0.770   9.787  18.513  0.00  0.00    +0.000 S 
BRANCH  23  24
ATOM     24  C   UNL     1       0.495  11.452  18.850  0.00  0.00    +0.000 A 
ATOM     25  N   UNL     1       1.292  12.288  19.473  0.00  0.00    +0.000 NA
ATOM     26  N   UNL     1       0.617  13.484  19.604  0.00  0.00    +0.000 NA
ATOM     27  C   UNL     1      -0.562  13.339  19.039  0.00  0.00    +0.000 A 
ATOM     28  N   UNL     1      -0.670  12.081  18.529  0.00  0.00    +0.000 N 
ATOM     29  C   UNL     1      -1.804  11.542  17.826  0.00  0.00    +0.000 C 
ENDBRANCH  23  24
ENDBRANCH  22  23
ENDBRANCH   1  22
TORSDOF 6
ENDMDL
MODEL 8
REMARK VINA RESULT:      -7.7      8.301      9.930
REMARK  Name = 
REMARK  8 active torsions:
REMARK  status: ('A' for Active; 'I' for Inactive)
REMARK    1  A    between atoms: C_1  and  C_2
REMARK    2  A    between atoms: C_2  and  S_3
REMARK    3  A    between atoms: C_2  and  C_10
REMARK    4  A    between atoms: S_3  and  C_4
REMARK    5  A    between atoms: N_8  and  C_9
REMARK    6  A    between atoms: C_14  and  N_15
REMARK    7  A    between atoms: C_16  and  C_18
REMARK    8  A    between atoms: C_22  and  C_23
REMARK                            x       y       z     vdW  Elec       q    Type
REMARK                         _______ _______ _______ _____ _____    ______ ____
ROOT
ATOM      1  C   UNL     1      -0.282  11.408  18.604  0.00  0.00    +0.000 A 
ATOM      2  C   UNL     1       0.607  12.479  18.806  0.00  0.00    +0.000 A 
ATOM      3  C   UNL     1       1.970  12.328  18.568  0.00  0.00    +0.000 A 
ATOM      4  C   UNL     1       2.476  11.096  18.159  0.00  0.00    +0.000 A 
ATOM      5  C   UNL     1       1.636   9.991  18.006  0.00  0.00    +0.000 A 
ATOM      6  C   UNL     1       0.260  10.160  18.223  0.00  0.00    +0.000 A 
ENDROOT
BRANCH   5   7
ATOM      7  N   UNL     1       2.099   8.707  17.608  0.00  0.00    +0.000 N 
ATOM      8  C   UNL     1       2.390   7.667  18.471  0.00  0.00    +0.000 C 
ATOM      9  O   UNL     1       2.214   7.666  19.686  0.00  0.00    +0.000 OA
ATOM     10  H   UNL     1       2.097   8.513  16.615  0.00  0.00    +0.000 HD
BRANCH   8  11
ATOM     11  C   UNL     1       2.942   6.421  17.878  0.00  0.00    +0.000 A 
ATOM     12  C   UNL     1       2.229   5.238  18.115  0.00  0.00    +0.000 A 
ATOM     13  C   UNL     1       2.738   4.008  17.711  0.00  0.00    +0.000 A 
ATOM     14  C   UNL     1       3.975   3.950  17.074  0.00  0.00    +0.000 A 
ATOM     15  C   UNL     1       4.710   5.123  16.826  0.00  0.00    +0.000 A 
ATOM     16  C   UNL     1       4.179   6.367  17.222  0.00  0.00    +0.000 A 
BRANCH  15  17
ATOM     17  C   UNL     1       6.070   5.043  16.173  0.00  0.00    +0.000 C 
ATOM     18  F   UNL     1       6.828   4.002  16.615  0.00  0.00    +0.000 F 
ATOM     19  F   UNL     1       5.986   4.898  14.823  0.00  0.00    +0.000 F 
ATOM     20  F   UNL     1       6.814   6.163  16.384  0.00  0.00    +0.000 F 
ENDBRANCH  15  17
ENDBRANCH   8  11
ENDBRANCH   5   7
BRANCH   1  22
ATOM     21  C   UNL     1      -2.190  12.206  20.129  0.00  0.00    +0.000 C 
ATOM     22  C   UNL     1      -1.787  11.660  18.752  0.00  0.00    +0.000 C 
BRANCH  22  23
ATOM     23  S   UNL     1      -2.664  10.067  18.421  0.00  0.00    +0.000 S 
BRANCH  23  24
ATOM     24  C   UNL     1      -3.009  10.165  16.738  0.00  0.00    +0.000 A 
ATOM     25  N   UNL     1      -2.345   9.615  15.749  0.00  0.00    +0.000 NA
ATOM     26  N   UNL     1      -2.921  10.048  14.572  0.00  0.00    +0.000 NA
ATOM     27  C   UNL     1      -3.928  10.833  14.887  0.00  0.00    +0.000 A 
ATOM     28  N   UNL     1      -4.034  10.914  16.243  0.00  0.00    +0.000 N 
ATOM     29  C   UNL     1      -5.016  11.666  16.976  0.00  0.00    +0.000 C 
ENDBRANCH  23  24
ENDBRANCH  22  23
ENDBRANCH   1  22
TORSDOF 6
ENDMDL
MODEL 9
REMARK VINA RESULT:      -7.7      9.158     10.617
REMARK  Name = 
REMARK  8 active torsions:
REMARK  status: ('A' for Active; 'I' for Inactive)
REMARK    1  A    between atoms: C_1  and  C_2
REMARK    2  A    between atoms: C_2  and  S_3
REMARK    3  A    between atoms: C_2  and  C_10
REMARK    4  A    between atoms: S_3  and  C_4
REMARK    5  A    between atoms: N_8  and  C_9
REMARK    6  A    between atoms: C_14  and  N_15
REMARK    7  A    between atoms: C_16  and  C_18
REMARK    8  A    between atoms: C_22  and  C_23
REMARK                            x       y       z     vdW  Elec       q    Type
REMARK                         _______ _______ _______ _____ _____    ______ ____
ROOT
ATOM      1  C   UNL     1      -0.946  10.606  18.162  0.00  0.00    +0.000 A 
ATOM      2  C   UNL     1      -0.341  11.701  18.804  0.00  0.00    +0.000 A 
ATOM      3  C   UNL     1       1.033  11.731  19.019  0.00  0.00    +0.000 A 
ATOM      4  C   UNL     1       1.826  10.652  18.630  0.00  0.00    +0.000 A 
ATOM      5  C   UNL     1       1.256   9.520  18.045  0.00  0.00    +0.000 A 
ATOM      6  C   UNL     1      -0.127   9.510  17.809  0.00  0.00    +0.000 A 
ENDROOT
BRANCH   5   7
ATOM      7  N   UNL     1       2.013   8.384  17.644  0.00  0.00    +0.000 N 
ATOM      8  C   UNL     1       2.495   7.412  18.500  0.00  0.00    +0.000 C 
ATOM      9  O   UNL     1       2.275   7.335  19.705  0.00  0.00    +0.000 OA
ATOM     10  H   UNL     1       2.095   8.223  16.648  0.00  0.00    +0.000 HD
BRANCH   8  11
ATOM     11  C   UNL     1       3.337   6.339  17.909  0.00  0.00    +0.000 A 
ATOM     12  C   UNL     1       2.772   5.058  17.838  0.00  0.00    +0.000 A 
ATOM     13  C   UNL     1       3.531   3.968  17.423  0.00  0.00    +0.000 A 
ATOM     14  C   UNL     1       4.869   4.149  17.083  0.00  0.00    +0.000 A 
ATOM     15  C   UNL     1       5.459   5.424  17.147  0.00  0.00    +0.000 A 
ATOM     16  C   UNL     1       4.679   6.527  17.552  0.00  0.00    +0.000 A 
BRANCH  15  17
ATOM     17  C   UNL     1       6.923   5.601  16.818  0.00  0.00    +0.000 C 
ATOM     18  F   UNL     1       7.444   6.779  17.259  0.00  0.00    +0.000 F 
ATOM     19  F   UNL     1       7.696   4.623  17.362  0.00  0.00    +0.000 F 
ATOM     20  F   UNL     1       7.162   5.566  15.478  0.00  0.00    +0.000 F 
ENDBRANCH  15  17
ENDBRANCH   8  11
ENDBRANCH   5   7
BRANCH   1  22
ATOM     21  C   UNL     1      -2.734  10.920  16.344  0.00  0.00    +0.000 C 
ATOM     22  C   UNL     1      -2.441  10.678  17.831  0.00  0.00    +0.000 C 
BRANCH  22  23
ATOM     23  S   UNL     1      -3.184  12.027  18.852  0.00  0.00    +0.000 S 
BRANCH  23  24
ATOM     24  C   UNL     1      -4.866  11.666  18.796  0.00  0.00    +0.000 A 
ATOM     25  N   UNL     1      -5.445  10.620  18.256  0.00  0.00    +0.000 NA
ATOM     26  N   UNL     1      -6.809  10.803  18.358  0.00  0.00    +0.000 NA
ATOM     27  C   UNL     1      -7.011  11.948  18.973  0.00  0.00    +0.000 A 
ATOM     28  N   UNL     1      -5.813  12.513  19.289  0.00  0.00    +0.000 N 
ATOM     29  C   UNL     1      -5.614  13.761  19.976  0.00  0.00    +0.000 C 
ENDBRANCH  23  24
ENDBRANCH  22  23
ENDBRANCH   1  22
TORSDOF 6
ENDMDL
