MODEL 1
REMARK VINA RESULT:      -8.6      0.000      0.000
REMARK  Name = 
REMARK  6 active torsions:
REMARK  status: ('A' for Active; 'I' for Inactive)
REMARK    1  A    between atoms: C_2  and  C_3
REMARK    2  A    between atoms: C_3  and  N_4
REMARK    3  A    between atoms: C_6  and  C_7
REMARK    4  A    between atoms: C_7  and  C_8
REMARK    5  A    between atoms: C_7  and  N_15
REMARK    6  A    between atoms: C_21  and  C_22
REMARK                            x       y       z     vdW  Elec       q    Type
REMARK                         _______ _______ _______ _____ _____    ______ ____
ROOT
ATOM      1  N   UNL     1       6.276   5.466  18.171  0.00  0.00    +0.000 N 
ATOM      2  C   UNL     1       5.526   5.626  19.317  0.00  0.00    +0.000 A 
ATOM      3  C   UNL     1       4.188   5.469  19.020  0.00  0.00    +0.000 A 
ATOM      4  C   UNL     1       4.151   5.137  17.634  0.00  0.00    +0.000 A 
ATOM      5  C   UNL     1       5.446   5.092  17.123  0.00  0.00    +0.000 A 
ENDROOT
BRANCH   5   6
ATOM      6  C   UNL     1       5.855   4.760  15.746  0.00  0.00    +0.000 A 
ATOM      7  C   UNL     1       7.068   5.250  15.231  0.00  0.00    +0.000 A 
ATOM      8  C   UNL     1       7.462   4.973  13.916  0.00  0.00    +0.000 A 
ATOM      9  C   UNL     1       6.651   4.188  13.102  0.00  0.00    +0.000 A 
ATOM     10 CL   UNL     1       7.134   3.833  11.490  0.00  0.00    +0.000 Cl
ATOM     11  C   UNL     1       5.443   3.700  13.587  0.00  0.00    +0.000 A 
ATOM     12  C   UNL     1       5.040   4.005  14.891  0.00  0.00    +0.000 A 
ENDBRANCH   5   6
BRANCH   1  13
ATOM     13  C   UNL     1       7.724   5.690  18.171  0.00  0.00    +0.000 C 
BRANCH  13  15
ATOM     14  C   UNL     1       7.905   8.124  17.604  0.00  0.00    +0.000 C 
ATOM     15  C   UNL     1       8.123   7.109  18.451  0.00  0.00    +0.000 C 
ENDBRANCH  13  15
ENDBRANCH   1  13
BRANCH   3  16
ATOM     16  C   UNL     1       2.992   5.612  19.934  0.00  0.00    +0.000 C 
BRANCH  16  17
ATOM     17  C   UNL     1       2.351   6.956  19.595  0.00  0.00    +0.000 A 
ATOM     18  C   UNL     1       2.412   7.517  18.305  0.00  0.00    +0.000 A 
ATOM     19  C   UNL     1       1.789   8.735  18.021  0.00  0.00    +0.000 A 
ATOM     20  C   UNL     1       1.104   9.413  19.024  0.00  0.00    +0.000 A 
ATOM     21 CL   UNL     1       0.323  10.904  18.669  0.00  0.00    +0.000 Cl
ATOM     22  C   UNL     1       1.045   8.889  20.312  0.00  0.00    +0.000 A 
ATOM     23  C   UNL     1       1.667   7.670  20.598  0.00  0.00    +0.000 A 
ENDBRANCH  16  17
BRANCH  16  24
ATOM     24  N   UNL     1       2.042   4.491  19.886  0.00  0.00    +0.000 N 
ATOM     25  C   UNL     1       1.622   3.771  20.983  0.00  0.00    +0.000 A 
ATOM     26  C   UNL     1       0.758   2.824  20.488  0.00  0.00    +0.000 A 
ATOM     27  N   UNL     1       0.656   2.928  19.128  0.00  0.00    +0.000 NA
ATOM     28  C   UNL     1       1.448   3.922  18.793  0.00  0.00    +0.000 A 
ENDBRANCH  16  24
ENDBRANCH   3  16
TORSDOF 6
ENDMDL
MODEL 2
REMARK VINA RESULT:      -8.5      0.383      1.151
REMARK  Name = 
REMARK  6 active torsions:
REMARK  status: ('A' for Active; 'I' for Inactive)
REMARK    1  A    between atoms: C_2  and  C_3
REMARK    2  A    between atoms: C_3  and  N_4
REMARK    3  A    between atoms: C_6  and  C_7
REMARK    4  A    between atoms: C_7  and  C_8
REMARK    5  A    between atoms: C_7  and  N_15
REMARK    6  A    between atoms: C_21  and  C_22
REMARK                            x       y       z     vdW  Elec       q    Type
REMARK                         _______ _______ _______ _____ _____    ______ ____
ROOT
ATOM      1  N   UNL     1       6.294   5.414  18.264  0.00  0.00    +0.000 N 
ATOM      2  C   UNL     1       5.537   5.552  19.408  0.00  0.00    +0.000 A 
ATOM      3  C   UNL     1       4.200   5.399  19.099  0.00  0.00    +0.000 A 
ATOM      4  C   UNL     1       4.173   5.093  17.708  0.00  0.00    +0.000 A 
ATOM      5  C   UNL     1       5.471   5.059  17.205  0.00  0.00    +0.000 A 
ENDROOT
BRANCH   5   6
ATOM      6  C   UNL     1       5.890   4.752  15.824  0.00  0.00    +0.000 A 
ATOM      7  C   UNL     1       7.074   5.305  15.306  0.00  0.00    +0.000 A 
ATOM      8  C   UNL     1       7.476   5.052  13.988  0.00  0.00    +0.000 A 
ATOM      9  C   UNL     1       6.701   4.229  13.175  0.00  0.00    +0.000 A 
ATOM     10 CL   UNL     1       7.194   3.904  11.560  0.00  0.00    +0.000 Cl
ATOM     11  C   UNL     1       5.522   3.679  13.664  0.00  0.00    +0.000 A 
ATOM     12  C   UNL     1       5.111   3.959  14.971  0.00  0.00    +0.000 A 
ENDBRANCH   5   6
BRANCH   1  13
ATOM     13  C   UNL     1       7.742   5.639  18.279  0.00  0.00    +0.000 C 
BRANCH  13  15
ATOM     14  C   UNL     1       7.750   8.063  17.648  0.00  0.00    +0.000 C 
ATOM     15  C   UNL     1       8.136   7.074  18.466  0.00  0.00    +0.000 C 
ENDBRANCH  13  15
ENDBRANCH   1  13
BRANCH   3  16
ATOM     16  C   UNL     1       2.998   5.526  20.008  0.00  0.00    +0.000 C 
BRANCH  16  17
ATOM     17  C   UNL     1       2.348   6.867  19.676  0.00  0.00    +0.000 A 
ATOM     18  C   UNL     1       1.644   7.623  20.634  0.00  0.00    +0.000 A 
ATOM     19  C   UNL     1       1.086   8.860  20.304  0.00  0.00    +0.000 A 
ATOM     20  C   UNL     1       1.215   9.355  19.010  0.00  0.00    +0.000 A 
ATOM     21 CL   UNL     1       0.543  10.887  18.610  0.00  0.00    +0.000 Cl
ATOM     22  C   UNL     1       1.891   8.620  18.040  0.00  0.00    +0.000 A 
ATOM     23  C   UNL     1       2.450   7.381  18.368  0.00  0.00    +0.000 A 
ENDBRANCH  16  17
BRANCH  16  24
ATOM     24  N   UNL     1       2.057   4.398  19.944  0.00  0.00    +0.000 N 
ATOM     25  C   UNL     1       1.437   3.957  18.796  0.00  0.00    +0.000 A 
ATOM     26  C   UNL     1       0.647   2.904  19.189  0.00  0.00    +0.000 A 
ATOM     27  N   UNL     1       0.746   2.704  20.539  0.00  0.00    +0.000 NA
ATOM     28  C   UNL     1       1.583   3.623  20.968  0.00  0.00    +0.000 A 
ENDBRANCH  16  24
ENDBRANCH   3  16
TORSDOF 6
ENDMDL
MODEL 3
REMARK VINA RESULT:      -8.5      0.267      1.316
REMARK  Name = 
REMARK  6 active torsions:
REMARK  status: ('A' for Active; 'I' for Inactive)
REMARK    1  A    between atoms: C_2  and  C_3
REMARK    2  A    between atoms: C_3  and  N_4
REMARK    3  A    between atoms: C_6  and  C_7
REMARK    4  A    between atoms: C_7  and  C_8
REMARK    5  A    between atoms: C_7  and  N_15
REMARK    6  A    between atoms: C_21  and  C_22
REMARK                            x       y       z     vdW  Elec       q    Type
REMARK                         _______ _______ _______ _____ _____    ______ ____
ROOT
ATOM      1  N   UNL     1       6.263   5.430  18.097  0.00  0.00    +0.000 N 
ATOM      2  C   UNL     1       5.471   5.528  19.221  0.00  0.00    +0.000 A 
ATOM      3  C   UNL     1       4.146   5.362  18.870  0.00  0.00    +0.000 A 
ATOM      4  C   UNL     1       4.164   5.090  17.472  0.00  0.00    +0.000 A 
ATOM      5  C   UNL     1       5.476   5.089  17.005  0.00  0.00    +0.000 A 
ENDROOT
BRANCH   5   6
ATOM      6  C   UNL     1       5.939   4.823  15.630  0.00  0.00    +0.000 A 
ATOM      7  C   UNL     1       5.192   3.986  14.783  0.00  0.00    +0.000 A 
ATOM      8  C   UNL     1       5.628   3.695  13.484  0.00  0.00    +0.000 A 
ATOM      9  C   UNL     1       6.813   4.251  13.012  0.00  0.00    +0.000 A 
ATOM     10 CL   UNL     1       7.349   3.909  11.414  0.00  0.00    +0.000 Cl
ATOM     11  C   UNL     1       7.573   5.074  13.836  0.00  0.00    +0.000 A 
ATOM     12  C   UNL     1       7.148   5.337  15.142  0.00  0.00    +0.000 A 
ENDBRANCH   5   6
BRANCH   1  13
ATOM     13  C   UNL     1       7.706   5.677  18.158  0.00  0.00    +0.000 C 
BRANCH  13  15
ATOM     14  C   UNL     1       7.783   8.123  17.620  0.00  0.00    +0.000 C 
ATOM     15  C   UNL     1       8.070   7.104  18.443  0.00  0.00    +0.000 C 
ENDBRANCH  13  15
ENDBRANCH   1  13
BRANCH   3  16
ATOM     16  C   UNL     1       2.917   5.447  19.747  0.00  0.00    +0.000 C 
BRANCH  16  17
ATOM     17  C   UNL     1       2.321   6.833  19.517  0.00  0.00    +0.000 A 
ATOM     18  C   UNL     1       1.699   7.568  20.545  0.00  0.00    +0.000 A 
ATOM     19  C   UNL     1       1.189   8.847  20.308  0.00  0.00    +0.000 A 
ATOM     20  C   UNL     1       1.285   9.405  19.037  0.00  0.00    +0.000 A 
ATOM     21 CL   UNL     1       0.673  10.987  18.749  0.00  0.00    +0.000 Cl
ATOM     22  C   UNL     1       1.878   8.692  17.998  0.00  0.00    +0.000 A 
ATOM     23  C   UNL     1       2.389   7.413  18.235  0.00  0.00    +0.000 A 
ENDBRANCH  16  17
BRANCH  16  24
ATOM     24  N   UNL     1       1.945   4.361  19.551  0.00  0.00    +0.000 N 
ATOM     25  C   UNL     1       1.286   3.705  20.567  0.00  0.00    +0.000 A 
ATOM     26  C   UNL     1       0.493   2.772  19.945  0.00  0.00    +0.000 A 
ATOM     27  N   UNL     1       0.665   2.820  18.589  0.00  0.00    +0.000 NA
ATOM     28  C   UNL     1       1.552   3.768  18.383  0.00  0.00    +0.000 A 
ENDBRANCH  16  24
ENDBRANCH   3  16
TORSDOF 6
ENDMDL
MODEL 4
REMARK VINA RESULT:      -8.1      0.544      1.060
REMARK  Name = 
REMARK  6 active torsions:
REMARK  status: ('A' for Active; 'I' for Inactive)
REMARK    1  A    between atoms: C_2  and  C_3
REMARK    2  A    between atoms: C_3  and  N_4
REMARK    3  A    between atoms: C_6  and  C_7
REMARK    4  A    between atoms: C_7  and  C_8
REMARK    5  A    between atoms: C_7  and  N_15
REMARK    6  A    between atoms: C_21  and  C_22
REMARK                            x       y       z     vdW  Elec       q    Type
REMARK                         _______ _______ _______ _____ _____    ______ ____
ROOT
ATOM      1  N   UNL     1       6.404   5.493  18.190  0.00  0.00    +0.000 N 
ATOM      2  C   UNL     1       5.671   5.578  19.354  0.00  0.00    +0.000 A 
ATOM      3  C   UNL     1       4.338   5.346  19.080  0.00  0.00    +0.000 A 
ATOM      4  C   UNL     1       4.292   5.046  17.687  0.00  0.00    +0.000 A 
ATOM      5  C   UNL     1       5.576   5.093  17.150  0.00  0.00    +0.000 A 
ENDROOT
BRANCH   5   6
ATOM      6  C   UNL     1       5.975   4.820  15.757  0.00  0.00    +0.000 A 
ATOM      7  C   UNL     1       5.181   3.993  14.943  0.00  0.00    +0.000 A 
ATOM      8  C   UNL     1       5.556   3.695  13.627  0.00  0.00    +0.000 A 
ATOM      9  C   UNL     1       6.728   4.234  13.103  0.00  0.00    +0.000 A 
ATOM     10 CL   UNL     1       7.189   3.883  11.484  0.00  0.00    +0.000 Cl
ATOM     11  C   UNL     1       7.533   5.046  13.893  0.00  0.00    +0.000 A 
ATOM     12  C   UNL     1       7.169   5.317  15.216  0.00  0.00    +0.000 A 
ENDBRANCH   5   6
BRANCH   1  13
ATOM     13  C   UNL     1       7.835   5.806  18.167  0.00  0.00    +0.000 C 
BRANCH  13  15
ATOM     14  C   UNL     1       7.837   8.250  17.616  0.00  0.00    +0.000 C 
ATOM     15  C   UNL     1       8.150   7.245  18.446  0.00  0.00    +0.000 C 
ENDBRANCH  13  15
ENDBRANCH   1  13
BRANCH   3  16
ATOM     16  C   UNL     1       3.156   5.393  20.021  0.00  0.00    +0.000 C 
BRANCH  16  17
ATOM     17  C   UNL     1       2.450   6.722  19.758  0.00  0.00    +0.000 A 
ATOM     18  C   UNL     1       2.436   7.331  18.489  0.00  0.00    +0.000 A 
ATOM     19  C   UNL     1       1.757   8.533  18.276  0.00  0.00    +0.000 A 
ATOM     20  C   UNL     1       1.090   9.148  19.331  0.00  0.00    +0.000 A 
ATOM     21 CL   UNL     1       0.238  10.618  19.064  0.00  0.00    +0.000 Cl
ATOM     22  C   UNL     1       1.104   8.576  20.600  0.00  0.00    +0.000 A 
ATOM     23  C   UNL     1       1.783   7.373  20.815  0.00  0.00    +0.000 A 
ENDBRANCH  16  17
BRANCH  16  24
ATOM     24  N   UNL     1       2.254   4.235  19.936  0.00  0.00    +0.000 N 
ATOM     25  C   UNL     1       0.888   4.290  20.107  0.00  0.00    +0.000 A 
ATOM     26  C   UNL     1       0.450   2.996  19.956  0.00  0.00    +0.000 A 
ATOM     27  N   UNL     1       1.502   2.155  19.722  0.00  0.00    +0.000 NA
ATOM     28  C   UNL     1       2.571   2.920  19.733  0.00  0.00    +0.000 A 
ENDBRANCH  16  24
ENDBRANCH   3  16
TORSDOF 6
ENDMDL
MODEL 5
REMARK VINA RESULT:      -7.9      2.891      5.429
REMARK  Name = 
REMARK  6 active torsions:
REMARK  status: ('A' for Active; 'I' for Inactive)
REMARK    1  A    between atoms: C_2  and  C_3
REMARK    2  A    between atoms: C_3  and  N_4
REMARK    3  A    between atoms: C_6  and  C_7
REMARK    4  A    between atoms: C_7  and  C_8
REMARK    5  A    between atoms: C_7  and  N_15
REMARK    6  A    between atoms: C_21  and  C_22
REMARK                            x       y       z     vdW  Elec       q    Type
REMARK                         _______ _______ _______ _____ _____    ______ ____
ROOT
ATOM      1  N   UNL     1       2.108   6.619  19.972  0.00  0.00    +0.000 N 
ATOM      2  C   UNL     1       1.338   7.598  20.563  0.00  0.00    +0.000 A 
ATOM      3  C   UNL     1       1.428   8.764  19.828  0.00  0.00    +0.000 A 
ATOM      4  C   UNL     1       2.247   8.435  18.709  0.00  0.00    +0.000 A 
ATOM      5  C   UNL     1       2.628   7.098  18.777  0.00  0.00    +0.000 A 
ENDROOT
BRANCH   5   6
ATOM      6  C   UNL     1       3.450   6.349  17.808  0.00  0.00    +0.000 A 
ATOM      7  C   UNL     1       3.261   4.966  17.641  0.00  0.00    +0.000 A 
ATOM      8  C   UNL     1       4.051   4.230  16.748  0.00  0.00    +0.000 A 
ATOM      9  C   UNL     1       5.032   4.874  16.000  0.00  0.00    +0.000 A 
ATOM     10 CL   UNL     1       5.998   3.978  14.894  0.00  0.00    +0.000 Cl
ATOM     11  C   UNL     1       5.243   6.238  16.157  0.00  0.00    +0.000 A 
ATOM     12  C   UNL     1       4.472   6.963  17.071  0.00  0.00    +0.000 A 
ENDBRANCH   5   6
BRANCH   1  13
ATOM     13  C   UNL     1       2.287   5.308  20.602  0.00  0.00    +0.000 C 
BRANCH  13  15
ATOM     14  C   UNL     1       1.154   3.073  20.625  0.00  0.00    +0.000 C 
ATOM     15  C   UNL     1       1.096   4.405  20.483  0.00  0.00    +0.000 C 
ENDBRANCH  13  15
ENDBRANCH   1  13
BRANCH   3  16
ATOM     16  C   UNL     1       0.811  10.114  20.117  0.00  0.00    +0.000 C 
BRANCH  16  17
ATOM     17  C   UNL     1      -0.182  10.382  18.989  0.00  0.00    +0.000 A 
ATOM     18  C   UNL     1      -0.808   9.344  18.271  0.00  0.00    +0.000 A 
ATOM     19  C   UNL     1      -1.734   9.624  17.264  0.00  0.00    +0.000 A 
ATOM     20  C   UNL     1      -2.041  10.946  16.953  0.00  0.00    +0.000 A 
ATOM     21 CL   UNL     1      -3.196  11.289  15.725  0.00  0.00    +0.000 Cl
ATOM     22  C   UNL     1      -1.424  11.990  17.636  0.00  0.00    +0.000 A 
ATOM     23  C   UNL     1      -0.497  11.711  18.644  0.00  0.00    +0.000 A 
ENDBRANCH  16  17
BRANCH  16  24
ATOM     24  N   UNL     1       0.214  10.244  21.454  0.00  0.00    +0.000 N 
ATOM     25  C   UNL     1      -0.857  11.055  21.760  0.00  0.00    +0.000 A 
ATOM     26  C   UNL     1      -1.074  10.880  23.105  0.00  0.00    +0.000 A 
ATOM     27  N   UNL     1      -0.159  10.012  23.633  0.00  0.00    +0.000 NA
ATOM     28  C   UNL     1       0.610   9.661  22.627  0.00  0.00    +0.000 A 
ENDBRANCH  16  24
ENDBRANCH   3  16
TORSDOF 6
ENDMDL
MODEL 6
REMARK VINA RESULT:      -7.8      2.779      7.493
REMARK  Name = 
REMARK  6 active torsions:
REMARK  status: ('A' for Active; 'I' for Inactive)
REMARK    1  A    between atoms: C_2  and  C_3
REMARK    2  A    between atoms: C_3  and  N_4
REMARK    3  A    between atoms: C_6  and  C_7
REMARK    4  A    between atoms: C_7  and  C_8
REMARK    5  A    between atoms: C_7  and  N_15
REMARK    6  A    between atoms: C_21  and  C_22
REMARK                            x       y       z     vdW  Elec       q    Type
REMARK                         _______ _______ _______ _____ _____    ______ ____
ROOT
ATOM      1  N   UNL     1       1.431   8.776  20.515  0.00  0.00    +0.000 N 
ATOM      2  C   UNL     1       1.917   7.505  20.295  0.00  0.00    +0.000 A 
ATOM      3  C   UNL     1       1.979   7.263  18.937  0.00  0.00    +0.000 A 
ATOM      4  C   UNL     1       1.565   8.480  18.323  0.00  0.00    +0.000 A 
ATOM      5  C   UNL     1       1.270   9.427  19.301  0.00  0.00    +0.000 A 
ENDROOT
BRANCH   5   6
ATOM      6  C   UNL     1       0.834  10.821  19.095  0.00  0.00    +0.000 A 
ATOM      7  C   UNL     1       1.784  11.855  19.024  0.00  0.00    +0.000 A 
ATOM      8  C   UNL     1       1.391  13.190  18.860  0.00  0.00    +0.000 A 
ATOM      9  C   UNL     1       0.040  13.504  18.752  0.00  0.00    +0.000 A 
ATOM     10 CL   UNL     1      -0.449  15.139  18.539  0.00  0.00    +0.000 Cl
ATOM     11  C   UNL     1      -0.917  12.500  18.830  0.00  0.00    +0.000 A 
ATOM     12  C   UNL     1      -0.521  11.172  19.023  0.00  0.00    +0.000 A 
ENDBRANCH   5   6
BRANCH   1  13
ATOM     13  C   UNL     1       1.155   9.260  21.871  0.00  0.00    +0.000 C 
BRANCH  13  15
ATOM     14  C   UNL     1      -0.844  10.177  23.071  0.00  0.00    +0.000 C 
ATOM     15  C   UNL     1      -0.303   9.291  22.224  0.00  0.00    +0.000 C 
ENDBRANCH  13  15
ENDBRANCH   1  13
BRANCH   3  16
ATOM     16  C   UNL     1       2.388   5.996  18.220  0.00  0.00    +0.000 C 
BRANCH  16  17
ATOM     17  C   UNL     1       3.913   5.943  18.278  0.00  0.00    +0.000 A 
ATOM     18  C   UNL     1       4.728   6.614  17.346  0.00  0.00    +0.000 A 
ATOM     19  C   UNL     1       6.121   6.568  17.445  0.00  0.00    +0.000 A 
ATOM     20  C   UNL     1       6.719   5.844  18.471  0.00  0.00    +0.000 A 
ATOM     21 CL   UNL     1       8.433   5.803  18.603  0.00  0.00    +0.000 Cl
ATOM     22  C   UNL     1       5.936   5.157  19.395  0.00  0.00    +0.000 A 
ATOM     23  C   UNL     1       4.542   5.202  19.298  0.00  0.00    +0.000 A 
ENDBRANCH  16  17
BRANCH  16  24
ATOM     24  N   UNL     1       1.750   4.770  18.723  0.00  0.00    +0.000 N 
ATOM     25  C   UNL     1       1.494   3.650  17.963  0.00  0.00    +0.000 A 
ATOM     26  C   UNL     1       0.887   2.761  18.816  0.00  0.00    +0.000 A 
ATOM     27  N   UNL     1       0.743   3.309  20.061  0.00  0.00    +0.000 NA
ATOM     28  C   UNL     1       1.252   4.518  19.972  0.00  0.00    +0.000 A 
ENDBRANCH  16  24
ENDBRANCH   3  16
TORSDOF 6
ENDMDL
MODEL 7
REMARK VINA RESULT:      -7.8      3.079      5.486
REMARK  Name = 
REMARK  6 active torsions:
REMARK  status: ('A' for Active; 'I' for Inactive)
REMARK    1  A    between atoms: C_2  and  C_3
REMARK    2  A    between atoms: C_3  and  N_4
REMARK    3  A    between atoms: C_6  and  C_7
REMARK    4  A    between atoms: C_7  and  C_8
REMARK    5  A    between atoms: C_7  and  N_15
REMARK    6  A    between atoms: C_21  and  C_22
REMARK                            x       y       z     vdW  Elec       q    Type
REMARK                         _______ _______ _______ _____ _____    ______ ____
ROOT
ATOM      1  N   UNL     1       2.036   6.816  19.983  0.00  0.00    +0.000 N 
ATOM      2  C   UNL     1       1.247   7.823  20.495  0.00  0.00    +0.000 A 
ATOM      3  C   UNL     1       1.327   8.934  19.679  0.00  0.00    +0.000 A 
ATOM      4  C   UNL     1       2.161   8.537  18.594  0.00  0.00    +0.000 A 
ATOM      5  C   UNL     1       2.561   7.214  18.762  0.00  0.00    +0.000 A 
ENDROOT
BRANCH   5   6
ATOM      6  C   UNL     1       3.403   6.410  17.857  0.00  0.00    +0.000 A 
ATOM      7  C   UNL     1       4.399   7.029  17.081  0.00  0.00    +0.000 A 
ATOM      8  C   UNL     1       5.190   6.290  16.192  0.00  0.00    +0.000 A 
ATOM      9  C   UNL     1       5.002   4.916  16.079  0.00  0.00    +0.000 A 
ATOM     10 CL   UNL     1       5.978   4.000  14.999  0.00  0.00    +0.000 Cl
ATOM     11  C   UNL     1       4.018   4.284  16.829  0.00  0.00    +0.000 A 
ATOM     12  C   UNL     1       3.211   5.031  17.694  0.00  0.00    +0.000 A 
ENDBRANCH   5   6
BRANCH   1  13
ATOM     13  C   UNL     1       2.228   5.556  20.709  0.00  0.00    +0.000 C 
BRANCH  13  15
ATOM     14  C   UNL     1       1.203   3.275  20.856  0.00  0.00    +0.000 C 
ATOM     15  C   UNL     1       1.111   4.572  20.530  0.00  0.00    +0.000 C 
ENDBRANCH  13  15
ENDBRANCH   1  13
BRANCH   3  16
ATOM     16  C   UNL     1       0.688  10.291  19.863  0.00  0.00    +0.000 C 
BRANCH  16  17
ATOM     17  C   UNL     1      -0.345  10.435  18.748  0.00  0.00    +0.000 A 
ATOM     18  C   UNL     1      -0.572   9.424  17.794  0.00  0.00    +0.000 A 
ATOM     19  C   UNL     1      -1.545   9.576  16.803  0.00  0.00    +0.000 A 
ATOM     20  C   UNL     1      -2.299  10.744  16.746  0.00  0.00    +0.000 A 
ATOM     21 CL   UNL     1      -3.510  10.923  15.537  0.00  0.00    +0.000 Cl
ATOM     22  C   UNL     1      -2.082  11.766  17.666  0.00  0.00    +0.000 A 
ATOM     23  C   UNL     1      -1.108  11.616  18.658  0.00  0.00    +0.000 A 
ENDBRANCH  16  17
BRANCH  16  24
ATOM     24  N   UNL     1       0.128  10.532  21.201  0.00  0.00    +0.000 N 
ATOM     25  C   UNL     1      -0.439   9.563  22.000  0.00  0.00    +0.000 A 
ATOM     26  C   UNL     1      -0.834  10.218  23.142  0.00  0.00    +0.000 A 
ATOM     27  N   UNL     1      -0.549  11.552  23.056  0.00  0.00    +0.000 NA
ATOM     28  C   UNL     1       0.010  11.715  21.877  0.00  0.00    +0.000 A 
ENDBRANCH  16  24
ENDBRANCH   3  16
TORSDOF 6
ENDMDL
MODEL 8
REMARK VINA RESULT:      -7.7      2.918      5.426
REMARK  Name = 
REMARK  6 active torsions:
REMARK  status: ('A' for Active; 'I' for Inactive)
REMARK    1  A    between atoms: C_2  and  C_3
REMARK    2  A    between atoms: C_3  and  N_4
REMARK    3  A    between atoms: C_6  and  C_7
REMARK    4  A    between atoms: C_7  and  C_8
REMARK    5  A    between atoms: C_7  and  N_15
REMARK    6  A    between atoms: C_21  and  C_22
REMARK                            x       y       z     vdW  Elec       q    Type
REMARK                         _______ _______ _______ _____ _____    ______ ____
ROOT
ATOM      1  N   UNL     1       2.051   6.667  20.005  0.00  0.00    +0.000 N 
ATOM      2  C   UNL     1       1.279   7.648  20.589  0.00  0.00    +0.000 A 
ATOM      3  C   UNL     1       1.388   8.816  19.862  0.00  0.00    +0.000 A 
ATOM      4  C   UNL     1       2.222   8.488  18.754  0.00  0.00    +0.000 A 
ATOM      5  C   UNL     1       2.593   7.147  18.822  0.00  0.00    +0.000 A 
ENDROOT
BRANCH   5   6
ATOM      6  C   UNL     1       3.426   6.399  17.862  0.00  0.00    +0.000 A 
ATOM      7  C   UNL     1       4.367   7.074  17.066  0.00  0.00    +0.000 A 
ATOM      8  C   UNL     1       5.147   6.388  16.125  0.00  0.00    +0.000 A 
ATOM      9  C   UNL     1       5.002   5.011  15.981  0.00  0.00    +0.000 A 
ATOM     10 CL   UNL     1       5.964   4.160  14.837  0.00  0.00    +0.000 Cl
ATOM     11  C   UNL     1       4.070   4.324  16.750  0.00  0.00    +0.000 A 
ATOM     12  C   UNL     1       3.274   5.019  17.666  0.00  0.00    +0.000 A 
ENDBRANCH   5   6
BRANCH   1  13
ATOM     13  C   UNL     1       2.212   5.351  20.632  0.00  0.00    +0.000 C 
BRANCH  13  15
ATOM     14  C   UNL     1       1.088   3.112  20.642  0.00  0.00    +0.000 C 
ATOM     15  C   UNL     1       1.039   4.436  20.442  0.00  0.00    +0.000 C 
ENDBRANCH  13  15
ENDBRANCH   1  13
BRANCH   3  16
ATOM     16  C   UNL     1       0.775  10.169  20.148  0.00  0.00    +0.000 C 
BRANCH  16  17
ATOM     17  C   UNL     1      -0.205  10.445  19.010  0.00  0.00    +0.000 A 
ATOM     18  C   UNL     1      -0.591  11.749  18.645  0.00  0.00    +0.000 A 
ATOM     19  C   UNL     1      -1.468  11.967  17.580  0.00  0.00    +0.000 A 
ATOM     20  C   UNL     1      -1.980  10.885  16.871  0.00  0.00    +0.000 A 
ATOM     21 CL   UNL     1      -3.046  11.155  15.548  0.00  0.00    +0.000 Cl
ATOM     22  C   UNL     1      -1.629   9.585  17.224  0.00  0.00    +0.000 A 
ATOM     23  C   UNL     1      -0.751   9.364  18.289  0.00  0.00    +0.000 A 
ENDBRANCH  16  17
BRANCH  16  24
ATOM     24  N   UNL     1       0.165  10.299  21.479  0.00  0.00    +0.000 N 
ATOM     25  C   UNL     1      -0.906  11.114  21.775  0.00  0.00    +0.000 A 
ATOM     26  C   UNL     1      -1.138  10.937  23.118  0.00  0.00    +0.000 A 
ATOM     27  N   UNL     1      -0.232  10.064  23.653  0.00  0.00    +0.000 NA
ATOM     28  C   UNL     1       0.546   9.711  22.654  0.00  0.00    +0.000 A 
ENDBRANCH  16  24
ENDBRANCH   3  16
TORSDOF 6
ENDMDL
MODEL 9
REMARK VINA RESULT:      -7.7      3.610      6.261
REMARK  Name = 
REMARK  6 active torsions:
REMARK  status: ('A' for Active; 'I' for Inactive)
REMARK    1  A    between atoms: C_2  and  C_3
REMARK    2  A    between atoms: C_3  and  N_4
REMARK    3  A    between atoms: C_6  and  C_7
REMARK    4  A    between atoms: C_7  and  C_8
REMARK    5  A    between atoms: C_7  and  N_15
REMARK    6  A    between atoms: C_21  and  C_22
REMARK                            x       y       z     vdW  Elec       q    Type
REMARK                         _______ _______ _______ _____ _____    ______ ____
ROOT
ATOM      1  N   UNL     1       1.909   7.843  19.655  0.00  0.00    +0.000 N 
ATOM      2  C   UNL     1       1.176   8.998  19.820  0.00  0.00    +0.000 A 
ATOM      3  C   UNL     1       1.352   9.819  18.724  0.00  0.00    +0.000 A 
ATOM      4  C   UNL     1       2.187   9.080  17.837  0.00  0.00    +0.000 A 
ATOM      5  C   UNL     1       2.492   7.841  18.395  0.00  0.00    +0.000 A 
ENDROOT
BRANCH   5   6
ATOM      6  C   UNL     1       3.303   6.764  17.798  0.00  0.00    +0.000 A 
ATOM      7  C   UNL     1       4.549   7.056  17.216  0.00  0.00    +0.000 A 
ATOM      8  C   UNL     1       5.322   6.054  16.616  0.00  0.00    +0.000 A 
ATOM      9  C   UNL     1       4.861   4.741  16.602  0.00  0.00    +0.000 A 
ATOM     10 CL   UNL     1       5.809   3.503  15.877  0.00  0.00    +0.000 Cl
ATOM     11  C   UNL     1       3.627   4.430  17.162  0.00  0.00    +0.000 A 
ATOM     12  C   UNL     1       2.846   5.440  17.734  0.00  0.00    +0.000 A 
ENDBRANCH   5   6
BRANCH   1  13
ATOM     13  C   UNL     1       1.996   6.838  20.718  0.00  0.00    +0.000 C 
BRANCH  13  15
ATOM     14  C   UNL     1       1.494   4.386  20.832  0.00  0.00    +0.000 C 
ATOM     15  C   UNL     1       1.135   5.632  20.491  0.00  0.00    +0.000 C 
ENDBRANCH  13  15
ENDBRANCH   1  13
BRANCH   3  16
ATOM     16  C   UNL     1       0.801  11.206  18.482  0.00  0.00    +0.000 C 
BRANCH  16  17
ATOM     17  C   UNL     1      -0.716  11.056  18.392  0.00  0.00    +0.000 A 
ATOM     18  C   UNL     1      -1.602  11.902  19.086  0.00  0.00    +0.000 A 
ATOM     19  C   UNL     1      -2.985  11.755  18.959  0.00  0.00    +0.000 A 
ATOM     20  C   UNL     1      -3.503  10.753  18.143  0.00  0.00    +0.000 A 
ATOM     21 CL   UNL     1      -5.206  10.584  17.973  0.00  0.00    +0.000 Cl
ATOM     22  C   UNL     1      -2.649   9.891  17.461  0.00  0.00    +0.000 A 
ATOM     23  C   UNL     1      -1.264  10.037  17.587  0.00  0.00    +0.000 A 
ENDBRANCH  16  17
BRANCH  16  24
ATOM     24  N   UNL     1       1.223  12.216  19.465  0.00  0.00    +0.000 N 
ATOM     25  C   UNL     1       1.733  13.455  19.146  0.00  0.00    +0.000 A 
ATOM     26  C   UNL     1       2.000  14.060  20.351  0.00  0.00    +0.000 A 
ATOM     27  N   UNL     1       1.693  13.224  21.389  0.00  0.00    +0.000 NA
ATOM     28  C   UNL     1       1.247  12.121  20.829  0.00  0.00    +0.000 A 
ENDBRANCH  16  24
ENDBRANCH   3  16
TORSDOF 6
ENDMDL
