MODEL 1
REMARK VINA RESULT:      -9.1      0.000      0.000
REMARK  Name = 
REMARK  10 active torsions:
REMARK  status: ('A' for Active; 'I' for Inactive)
REMARK    1  A    between atoms: C_2  and  O_3
REMARK    2  A    between atoms: C_2  and  C_4
REMARK    3  A    between atoms: C_7  and  O_8
REMARK    4  A    between atoms: O_8  and  C_9
REMARK    5  A    between atoms: C_9  and  C_10
REMARK    6  A    between atoms: C_10  and  N_11
REMARK    7  A    between atoms: N_15  and  C_16
REMARK    8  A    between atoms: C_16  and  C_17
REMARK    9  A    between atoms: C_17  and  C_18
REMARK   10  A    between atoms: C_17  and  C_24
REMARK                            x       y       z     vdW  Elec       q    Type
REMARK                         _______ _______ _______ _____ _____    ______ ____
ROOT
ATOM      1  N   UNL     1       2.492   2.860  19.164  0.00  0.00    +0.000 N 
ATOM      2  C   UNL     1       3.783   2.599  19.466  0.00  0.00    +0.000 A 
ATOM      3  O   UNL     1       4.239   2.250  20.544  0.00  0.00    +0.000 OA
ATOM      4  O   UNL     1       4.563   2.816  18.361  0.00  0.00    +0.000 OA
ATOM      5  N   UNL     1       3.696   3.170  17.282  0.00  0.00    +0.000 N 
ATOM      6  C   UNL     1       2.445   3.351  17.889  0.00  0.00    +0.000 A 
ATOM      7  O   UNL     1       1.487   3.925  17.381  0.00  0.00    +0.000 OA
ENDROOT
BRANCH   1   8
ATOM      8  C   UNL     1       1.363   2.931  20.083  0.00  0.00    +0.000 C 
BRANCH   8   9
ATOM      9  C   UNL     1       0.975   4.326  20.586  0.00  0.00    +0.000 C 
BRANCH   9  10
ATOM     10  O   UNL     1       2.139   5.164  20.621  0.00  0.00    +0.000 OA
BRANCH  10  14
ATOM     11  C   UNL     1       1.598   9.040  19.151  0.00  0.00    +0.000 A 
ATOM     12  C   UNL     1       1.092   8.649  20.395  0.00  0.00    +0.000 A 
ATOM     13  C   UNL     1       1.291   7.340  20.852  0.00  0.00    +0.000 A 
ATOM     14  C   UNL     1       1.986   6.412  20.071  0.00  0.00    +0.000 A 
ATOM     15  C   UNL     1       2.517   6.816  18.843  0.00  0.00    +0.000 A 
ATOM     16  C   UNL     1       2.334   8.128  18.388  0.00  0.00    +0.000 A 
BRANCH  11  18
ATOM     17  O   UNL     1       0.692  11.234  19.313  0.00  0.00    +0.000 OA
ATOM     18  C   UNL     1       1.379  10.438  18.700  0.00  0.00    +0.000 C 
BRANCH  18  19
ATOM     19  O   UNL     1       1.977  10.726  17.524  0.00  0.00    +0.000 OA
ATOM     20  H   UNL     1       2.265   9.953  17.005  0.00  0.00    +0.000 HD
ENDBRANCH  18  19
ENDBRANCH  11  18
ENDBRANCH  10  14
ENDBRANCH   9  10
ENDBRANCH   8   9
ENDBRANCH   1   8
BRANCH   5  21
ATOM     21  C   UNL     1       4.250   4.228  16.439  0.00  0.00    +0.000 C 
BRANCH  21  22
ATOM     22  C   UNL     1       5.793   4.166  16.264  0.00  0.00    +0.000 C 
BRANCH  22  23
ATOM     23  C   UNL     1       6.225   4.115  14.800  0.00  0.00    +0.000 A 
ATOM     24  C   UNL     1       7.376   4.768  14.332  0.00  0.00    +0.000 A 
ATOM     25  C   UNL     1       7.676   4.804  12.967  0.00  0.00    +0.000 A 
ATOM     26  C   UNL     1       6.840   4.178  12.047  0.00  0.00    +0.000 A 
ATOM     27  C   UNL     1       5.713   3.494  12.493  0.00  0.00    +0.000 A 
ATOM     28  C   UNL     1       5.409   3.460  13.858  0.00  0.00    +0.000 A 
ENDBRANCH  22  23
BRANCH  22  29
ATOM     29  C   UNL     1       6.471   5.253  17.107  0.00  0.00    +0.000 A 
ATOM     30  C   UNL     1       6.283   6.607  16.775  0.00  0.00    +0.000 A 
ATOM     31  C   UNL     1       7.024   7.613  17.405  0.00  0.00    +0.000 A 
ATOM     32  C   UNL     1       7.947   7.287  18.393  0.00  0.00    +0.000 A 
ATOM     33  C   UNL     1       8.106   5.957  18.775  0.00  0.00    +0.000 A 
ATOM     34  C   UNL     1       7.372   4.948  18.141  0.00  0.00    +0.000 A 
ENDBRANCH  22  29
ENDBRANCH  21  22
ENDBRANCH   5  21
TORSDOF 10
ENDMDL
MODEL 2
REMARK VINA RESULT:      -8.5      3.863      6.380
REMARK  Name = 
REMARK  10 active torsions:
REMARK  status: ('A' for Active; 'I' for Inactive)
REMARK    1  A    between atoms: C_2  and  O_3
REMARK    2  A    between atoms: C_2  and  C_4
REMARK    3  A    between atoms: C_7  and  O_8
REMARK    4  A    between atoms: O_8  and  C_9
REMARK    5  A    between atoms: C_9  and  C_10
REMARK    6  A    between atoms: C_10  and  N_11
REMARK    7  A    between atoms: N_15  and  C_16
REMARK    8  A    between atoms: C_16  and  C_17
REMARK    9  A    between atoms: C_17  and  C_18
REMARK   10  A    between atoms: C_17  and  C_24
REMARK                            x       y       z     vdW  Elec       q    Type
REMARK                         _______ _______ _______ _____ _____    ______ ____
ROOT
ATOM      1  N   UNL     1       1.073   9.497  19.318  0.00  0.00    +0.000 N 
ATOM      2  C   UNL     1       1.226   8.861  20.500  0.00  0.00    +0.000 A 
ATOM      3  O   UNL     1       0.881   9.251  21.604  0.00  0.00    +0.000 OA
ATOM      4  O   UNL     1       1.878   7.673  20.298  0.00  0.00    +0.000 OA
ATOM      5  N   UNL     1       2.086   7.526  18.892  0.00  0.00    +0.000 N 
ATOM      6  C   UNL     1       1.722   8.771  18.358  0.00  0.00    +0.000 A 
ATOM      7  O   UNL     1       2.008   9.169  17.233  0.00  0.00    +0.000 OA
ENDROOT
BRANCH   1   8
ATOM      8  C   UNL     1       0.597  10.857  19.096  0.00  0.00    +0.000 C 
BRANCH   8   9
ATOM      9  C   UNL     1      -0.922  11.062  19.112  0.00  0.00    +0.000 C 
BRANCH   9  10
ATOM     10  O   UNL     1      -1.223  12.389  19.565  0.00  0.00    +0.000 OA
BRANCH  10  14
ATOM     11  C   UNL     1      -3.366  12.618  23.146  0.00  0.00    +0.000 A 
ATOM     12  C   UNL     1      -2.007  12.290  23.124  0.00  0.00    +0.000 A 
ATOM     13  C   UNL     1      -1.323  12.220  21.903  0.00  0.00    +0.000 A 
ATOM     14  C   UNL     1      -1.990  12.467  20.700  0.00  0.00    +0.000 A 
ATOM     15  C   UNL     1      -3.341  12.826  20.730  0.00  0.00    +0.000 A 
ATOM     16  C   UNL     1      -4.025  12.912  21.949  0.00  0.00    +0.000 A 
BRANCH  11  18
ATOM     17  O   UNL     1      -3.813  13.547  25.291  0.00  0.00    +0.000 OA
ATOM     18  C   UNL     1      -4.058  12.694  24.458  0.00  0.00    +0.000 C 
BRANCH  18  19
ATOM     19  O   UNL     1      -4.952  11.701  24.655  0.00  0.00    +0.000 OA
ATOM     20  H   UNL     1      -5.196  11.542  25.586  0.00  0.00    +0.000 HD
ENDBRANCH  18  19
ENDBRANCH  11  18
ENDBRANCH  10  14
ENDBRANCH   9  10
ENDBRANCH   8   9
ENDBRANCH   1   8
BRANCH   5  21
ATOM     21  C   UNL     1       3.395   6.958  18.573  0.00  0.00    +0.000 C 
BRANCH  21  22
ATOM     22  C   UNL     1       3.339   5.660  17.721  0.00  0.00    +0.000 C 
BRANCH  22  23
ATOM     23  C   UNL     1       4.690   5.287  17.113  0.00  0.00    +0.000 A 
ATOM     24  C   UNL     1       5.831   6.091  17.263  0.00  0.00    +0.000 A 
ATOM     25  C   UNL     1       7.018   5.785  16.593  0.00  0.00    +0.000 A 
ATOM     26  C   UNL     1       7.093   4.663  15.771  0.00  0.00    +0.000 A 
ATOM     27  C   UNL     1       5.985   3.832  15.637  0.00  0.00    +0.000 A 
ATOM     28  C   UNL     1       4.794   4.139  16.304  0.00  0.00    +0.000 A 
ENDBRANCH  22  23
BRANCH  22  29
ATOM     29  C   UNL     1       2.642   4.538  18.500  0.00  0.00    +0.000 A 
ATOM     30  C   UNL     1       3.206   4.074  19.703  0.00  0.00    +0.000 A 
ATOM     31  C   UNL     1       2.701   2.939  20.345  0.00  0.00    +0.000 A 
ATOM     32  C   UNL     1       1.612   2.259  19.810  0.00  0.00    +0.000 A 
ATOM     33  C   UNL     1       1.005   2.736  18.650  0.00  0.00    +0.000 A 
ATOM     34  C   UNL     1       1.512   3.867  18.002  0.00  0.00    +0.000 A 
ENDBRANCH  22  29
ENDBRANCH  21  22
ENDBRANCH   5  21
TORSDOF 10
ENDMDL
MODEL 3
REMARK VINA RESULT:      -8.4      4.117      6.621
REMARK  Name = 
REMARK  10 active torsions:
REMARK  status: ('A' for Active; 'I' for Inactive)
REMARK    1  A    between atoms: C_2  and  O_3
REMARK    2  A    between atoms: C_2  and  C_4
REMARK    3  A    between atoms: C_7  and  O_8
REMARK    4  A    between atoms: O_8  and  C_9
REMARK    5  A    between atoms: C_9  and  C_10
REMARK    6  A    between atoms: C_10  and  N_11
REMARK    7  A    between atoms: N_15  and  C_16
REMARK    8  A    between atoms: C_16  and  C_17
REMARK    9  A    between atoms: C_17  and  C_18
REMARK   10  A    between atoms: C_17  and  C_24
REMARK                            x       y       z     vdW  Elec       q    Type
REMARK                         _______ _______ _______ _____ _____    ______ ____
ROOT
ATOM      1  N   UNL     1       1.078   9.657  19.466  0.00  0.00    +0.000 N 
ATOM      2  C   UNL     1       1.175   8.981  20.632  0.00  0.00    +0.000 A 
ATOM      3  O   UNL     1       0.850   9.366  21.744  0.00  0.00    +0.000 OA
ATOM      4  O   UNL     1       1.743   7.755  20.403  0.00  0.00    +0.000 OA
ATOM      5  N   UNL     1       1.952   7.631  18.995  0.00  0.00    +0.000 N 
ATOM      6  C   UNL     1       1.682   8.912  18.492  0.00  0.00    +0.000 A 
ATOM      7  O   UNL     1       2.005   9.318  17.380  0.00  0.00    +0.000 OA
ENDROOT
BRANCH   1   8
ATOM      8  C   UNL     1       0.702  11.053  19.278  0.00  0.00    +0.000 C 
BRANCH   8   9
ATOM      9  C   UNL     1      -0.724  11.438  19.685  0.00  0.00    +0.000 C 
BRANCH   9  10
ATOM     10  O   UNL     1      -0.682  12.265  20.856  0.00  0.00    +0.000 OA
BRANCH  10  14
ATOM     11  C   UNL     1      -4.229  12.753  23.014  0.00  0.00    +0.000 A 
ATOM     12  C   UNL     1      -3.091  12.179  23.591  0.00  0.00    +0.000 A 
ATOM     13  C   UNL     1      -1.922  12.029  22.835  0.00  0.00    +0.000 A 
ATOM     14  C   UNL     1      -1.881  12.442  21.499  0.00  0.00    +0.000 A 
ATOM     15  C   UNL     1      -3.010  13.045  20.937  0.00  0.00    +0.000 A 
ATOM     16  C   UNL     1      -4.177  13.210  21.694  0.00  0.00    +0.000 A 
BRANCH  11  18
ATOM     17  O   UNL     1      -6.159  11.972  24.165  0.00  0.00    +0.000 OA
ATOM     18  C   UNL     1      -5.449  12.907  23.847  0.00  0.00    +0.000 C 
BRANCH  18  19
ATOM     19  O   UNL     1      -5.719  14.189  24.178  0.00  0.00    +0.000 OA
ATOM     20  H   UNL     1      -6.062  14.740  23.452  0.00  0.00    +0.000 HD
ENDBRANCH  18  19
ENDBRANCH  11  18
ENDBRANCH  10  14
ENDBRANCH   9  10
ENDBRANCH   8   9
ENDBRANCH   1   8
BRANCH   5  21
ATOM     21  C   UNL     1       3.219   6.979  18.670  0.00  0.00    +0.000 C 
BRANCH  21  22
ATOM     22  C   UNL     1       3.072   5.660  17.860  0.00  0.00    +0.000 C 
BRANCH  22  23
ATOM     23  C   UNL     1       4.330   5.302  17.071  0.00  0.00    +0.000 A 
ATOM     24  C   UNL     1       4.516   4.042  16.482  0.00  0.00    +0.000 A 
ATOM     25  C   UNL     1       5.729   3.705  15.874  0.00  0.00    +0.000 A 
ATOM     26  C   UNL     1       6.773   4.625  15.831  0.00  0.00    +0.000 A 
ATOM     27  C   UNL     1       6.597   5.893  16.377  0.00  0.00    +0.000 A 
ATOM     28  C   UNL     1       5.386   6.230  16.989  0.00  0.00    +0.000 A 
ENDBRANCH  22  23
BRANCH  22  29
ATOM     29  C   UNL     1       2.521   4.542  18.752  0.00  0.00    +0.000 A 
ATOM     30  C   UNL     1       1.446   3.756  18.297  0.00  0.00    +0.000 A 
ATOM     31  C   UNL     1       0.804   2.852  19.149  0.00  0.00    +0.000 A 
ATOM     32  C   UNL     1       1.236   2.699  20.462  0.00  0.00    +0.000 A 
ATOM     33  C   UNL     1       2.334   3.427  20.914  0.00  0.00    +0.000 A 
ATOM     34  C   UNL     1       2.974   4.338  20.067  0.00  0.00    +0.000 A 
ENDBRANCH  22  29
ENDBRANCH  21  22
ENDBRANCH   5  21
TORSDOF 10
ENDMDL
MODEL 4
REMARK VINA RESULT:      -8.2      3.907      6.526
REMARK  Name = 
REMARK  10 active torsions:
REMARK  status: ('A' for Active; 'I' for Inactive)
REMARK    1  A    between atoms: C_2  and  O_3
REMARK    2  A    between atoms: C_2  and  C_4
REMARK    3  A    between atoms: C_7  and  O_8
REMARK    4  A    between atoms: O_8  and  C_9
REMARK    5  A    between atoms: C_9  and  C_10
REMARK    6  A    between atoms: C_10  and  N_11
REMARK    7  A    between atoms: N_15  and  C_16
REMARK    8  A    between atoms: C_16  and  C_17
REMARK    9  A    between atoms: C_17  and  C_18
REMARK   10  A    between atoms: C_17  and  C_24
REMARK                            x       y       z     vdW  Elec       q    Type
REMARK                         _______ _______ _______ _____ _____    ______ ____
ROOT
ATOM      1  N   UNL     1       1.154   9.659  19.218  0.00  0.00    +0.000 N 
ATOM      2  C   UNL     1       1.134   9.051  20.425  0.00  0.00    +0.000 A 
ATOM      3  O   UNL     1       0.699   9.497  21.475  0.00  0.00    +0.000 OA
ATOM      4  O   UNL     1       1.723   7.818  20.324  0.00  0.00    +0.000 OA
ATOM      5  N   UNL     1       2.071   7.615  18.954  0.00  0.00    +0.000 N 
ATOM      6  C   UNL     1       1.853   8.863  18.353  0.00  0.00    +0.000 A 
ATOM      7  O   UNL     1       2.285   9.207  17.258  0.00  0.00    +0.000 OA
ENDROOT
BRANCH   1   8
ATOM      8  C   UNL     1       0.798  11.039  18.913  0.00  0.00    +0.000 C 
BRANCH   8   9
ATOM      9  C   UNL     1       0.145  11.843  20.044  0.00  0.00    +0.000 C 
BRANCH   9  10
ATOM     10  O   UNL     1      -1.237  12.071  19.735  0.00  0.00    +0.000 OA
BRANCH  10  14
ATOM     11  C   UNL     1      -3.581  12.525  23.166  0.00  0.00    +0.000 A 
ATOM     12  C   UNL     1      -2.255  12.086  23.235  0.00  0.00    +0.000 A 
ATOM     13  C   UNL     1      -1.502  11.944  22.063  0.00  0.00    +0.000 A 
ATOM     14  C   UNL     1      -2.067  12.228  20.816  0.00  0.00    +0.000 A 
ATOM     15  C   UNL     1      -3.382  12.697  20.754  0.00  0.00    +0.000 A 
ATOM     16  C   UNL     1      -4.135  12.855  21.925  0.00  0.00    +0.000 A 
BRANCH  11  18
ATOM     17  O   UNL     1      -5.357  12.040  24.673  0.00  0.00    +0.000 OA
ATOM     18  C   UNL     1      -4.348  12.676  24.428  0.00  0.00    +0.000 C 
BRANCH  18  19
ATOM     19  O   UNL     1      -3.846  13.617  25.257  0.00  0.00    +0.000 OA
ATOM     20  H   UNL     1      -4.381  14.428  25.335  0.00  0.00    +0.000 HD
ENDBRANCH  18  19
ENDBRANCH  11  18
ENDBRANCH  10  14
ENDBRANCH   9  10
ENDBRANCH   8   9
ENDBRANCH   1   8
BRANCH   5  21
ATOM     21  C   UNL     1       3.366   6.953  18.795  0.00  0.00    +0.000 C 
BRANCH  21  22
ATOM     22  C   UNL     1       3.295   5.569  18.093  0.00  0.00    +0.000 C 
BRANCH  22  23
ATOM     23  C   UNL     1       4.645   5.110  17.543  0.00  0.00    +0.000 A 
ATOM     24  C   UNL     1       5.836   5.229  18.276  0.00  0.00    +0.000 A 
ATOM     25  C   UNL     1       7.069   4.914  17.697  0.00  0.00    +0.000 A 
ATOM     26  C   UNL     1       7.134   4.462  16.383  0.00  0.00    +0.000 A 
ATOM     27  C   UNL     1       5.961   4.301  15.650  0.00  0.00    +0.000 A 
ATOM     28  C   UNL     1       4.728   4.620  16.225  0.00  0.00    +0.000 A 
ENDBRANCH  22  23
BRANCH  22  29
ATOM     29  C   UNL     1       2.575   4.552  18.986  0.00  0.00    +0.000 A 
ATOM     30  C   UNL     1       1.655   3.654  18.414  0.00  0.00    +0.000 A 
ATOM     31  C   UNL     1       0.851   2.838  19.216  0.00  0.00    +0.000 A 
ATOM     32  C   UNL     1       0.967   2.887  20.601  0.00  0.00    +0.000 A 
ATOM     33  C   UNL     1       1.912   3.728  21.184  0.00  0.00    +0.000 A 
ATOM     34  C   UNL     1       2.712   4.551  20.384  0.00  0.00    +0.000 A 
ENDBRANCH  22  29
ENDBRANCH  21  22
ENDBRANCH   5  21
TORSDOF 10
ENDMDL
MODEL 5
REMARK VINA RESULT:      -8.2      3.893      6.543
REMARK  Name = 
REMARK  10 active torsions:
REMARK  status: ('A' for Active; 'I' for Inactive)
REMARK    1  A    between atoms: C_2  and  O_3
REMARK    2  A    between atoms: C_2  and  C_4
REMARK    3  A    between atoms: C_7  and  O_8
REMARK    4  A    between atoms: O_8  and  C_9
REMARK    5  A    between atoms: C_9  and  C_10
REMARK    6  A    between atoms: C_10  and  N_11
REMARK    7  A    between atoms: N_15  and  C_16
REMARK    8  A    between atoms: C_16  and  C_17
REMARK    9  A    between atoms: C_17  and  C_18
REMARK   10  A    between atoms: C_17  and  C_24
REMARK                            x       y       z     vdW  Elec       q    Type
REMARK                         _______ _______ _______ _____ _____    ______ ____
ROOT
ATOM      1  N   UNL     1       1.249   9.430  19.633  0.00  0.00    +0.000 N 
ATOM      2  C   UNL     1       1.487   8.604  20.675  0.00  0.00    +0.000 A 
ATOM      3  O   UNL     1       1.309   8.833  21.861  0.00  0.00    +0.000 OA
ATOM      4  O   UNL     1       2.012   7.426  20.214  0.00  0.00    +0.000 OA
ATOM      5  N   UNL     1       2.040   7.494  18.787  0.00  0.00    +0.000 N 
ATOM      6  C   UNL     1       1.719   8.829  18.499  0.00  0.00    +0.000 A 
ATOM      7  O   UNL     1       1.901   9.383  17.420  0.00  0.00    +0.000 OA
ENDROOT
BRANCH   1   8
ATOM      8  C   UNL     1       0.863  10.835  19.683  0.00  0.00    +0.000 C 
BRANCH   8   9
ATOM      9  C   UNL     1      -0.510  11.146  20.289  0.00  0.00    +0.000 C 
BRANCH   9  10
ATOM     10  O   UNL     1      -1.153  12.171  19.518  0.00  0.00    +0.000 OA
BRANCH  10  14
ATOM     11  C   UNL     1      -5.159  11.535  18.508  0.00  0.00    +0.000 A 
ATOM     12  C   UNL     1      -4.793  12.377  19.562  0.00  0.00    +0.000 A 
ATOM     13  C   UNL     1      -3.439  12.563  19.873  0.00  0.00    +0.000 A 
ATOM     14  C   UNL     1      -2.446  11.905  19.142  0.00  0.00    +0.000 A 
ATOM     15  C   UNL     1      -2.816  11.090  18.068  0.00  0.00    +0.000 A 
ATOM     16  C   UNL     1      -4.166  10.913  17.744  0.00  0.00    +0.000 A 
BRANCH  11  18
ATOM     17  O   UNL     1      -7.267  12.226  17.647  0.00  0.00    +0.000 OA
ATOM     18  C   UNL     1      -6.602  11.369  18.198  0.00  0.00    +0.000 C 
BRANCH  18  19
ATOM     19  O   UNL     1      -7.114  10.194  18.625  0.00  0.00    +0.000 OA
ATOM     20  H   UNL     1      -8.075  10.197  18.791  0.00  0.00    +0.000 HD
ENDBRANCH  18  19
ENDBRANCH  11  18
ENDBRANCH  10  14
ENDBRANCH   9  10
ENDBRANCH   8   9
ENDBRANCH   1   8
BRANCH   5  21
ATOM     21  C   UNL     1       3.251   6.904  18.219  0.00  0.00    +0.000 C 
BRANCH  21  22
ATOM     22  C   UNL     1       3.814   5.699  19.023  0.00  0.00    +0.000 C 
BRANCH  22  23
ATOM     23  C   UNL     1       2.771   4.611  19.273  0.00  0.00    +0.000 A 
ATOM     24  C   UNL     1       2.012   4.042  18.239  0.00  0.00    +0.000 A 
ATOM     25  C   UNL     1       0.981   3.140  18.516  0.00  0.00    +0.000 A 
ATOM     26  C   UNL     1       0.699   2.777  19.830  0.00  0.00    +0.000 A 
ATOM     27  C   UNL     1       1.463   3.301  20.869  0.00  0.00    +0.000 A 
ATOM     28  C   UNL     1       2.491   4.208  20.594  0.00  0.00    +0.000 A 
ENDBRANCH  22  23
BRANCH  22  29
ATOM     29  C   UNL     1       5.130   5.211  18.406  0.00  0.00    +0.000 A 
ATOM     30  C   UNL     1       6.336   5.396  19.106  0.00  0.00    +0.000 A 
ATOM     31  C   UNL     1       7.568   5.128  18.501  0.00  0.00    +0.000 A 
ATOM     32  C   UNL     1       7.618   4.650  17.196  0.00  0.00    +0.000 A 
ATOM     33  C   UNL     1       6.432   4.406  16.507  0.00  0.00    +0.000 A 
ATOM     34  C   UNL     1       5.199   4.680  17.106  0.00  0.00    +0.000 A 
ENDBRANCH  22  29
ENDBRANCH  21  22
ENDBRANCH   5  21
TORSDOF 10
ENDMDL
MODEL 6
REMARK VINA RESULT:      -8.2      3.589      6.177
REMARK  Name = 
REMARK  10 active torsions:
REMARK  status: ('A' for Active; 'I' for Inactive)
REMARK    1  A    between atoms: C_2  and  O_3
REMARK    2  A    between atoms: C_2  and  C_4
REMARK    3  A    between atoms: C_7  and  O_8
REMARK    4  A    between atoms: O_8  and  C_9
REMARK    5  A    between atoms: C_9  and  C_10
REMARK    6  A    between atoms: C_10  and  N_11
REMARK    7  A    between atoms: N_15  and  C_16
REMARK    8  A    between atoms: C_16  and  C_17
REMARK    9  A    between atoms: C_17  and  C_18
REMARK   10  A    between atoms: C_17  and  C_24
REMARK                            x       y       z     vdW  Elec       q    Type
REMARK                         _______ _______ _______ _____ _____    ______ ____
ROOT
ATOM      1  N   UNL     1       0.961   9.436  19.610  0.00  0.00    +0.000 N 
ATOM      2  C   UNL     1       1.222   8.667  20.690  0.00  0.00    +0.000 A 
ATOM      3  O   UNL     1       0.936   8.897  21.854  0.00  0.00    +0.000 OA
ATOM      4  O   UNL     1       1.914   7.551  20.298  0.00  0.00    +0.000 OA
ATOM      5  N   UNL     1       2.033   7.592  18.875  0.00  0.00    +0.000 N 
ATOM      6  C   UNL     1       1.576   8.872  18.528  0.00  0.00    +0.000 A 
ATOM      7  O   UNL     1       1.766   9.422  17.448  0.00  0.00    +0.000 OA
ENDROOT
BRANCH   1   8
ATOM      8  C   UNL     1       0.409  10.785  19.595  0.00  0.00    +0.000 C 
BRANCH   8   9
ATOM      9  C   UNL     1       1.296  11.895  20.170  0.00  0.00    +0.000 C 
BRANCH   9  10
ATOM     10  O   UNL     1       1.012  12.060  21.566  0.00  0.00    +0.000 OA
BRANCH  10  14
ATOM     11  C   UNL     1      -3.045  12.714  22.336  0.00  0.00    +0.000 A 
ATOM     12  C   UNL     1      -2.375  13.387  21.310  0.00  0.00    +0.000 A 
ATOM     13  C   UNL     1      -1.014  13.144  21.084  0.00  0.00    +0.000 A 
ATOM     14  C   UNL     1      -0.312  12.237  21.884  0.00  0.00    +0.000 A 
ATOM     15  C   UNL     1      -0.994  11.542  22.887  0.00  0.00    +0.000 A 
ATOM     16  C   UNL     1      -2.358  11.771  23.107  0.00  0.00    +0.000 A 
BRANCH  11  18
ATOM     17  O   UNL     1      -5.371  12.272  22.101  0.00  0.00    +0.000 OA
ATOM     18  C   UNL     1      -4.490  12.987  22.541  0.00  0.00    +0.000 C 
BRANCH  18  19
ATOM     19  O   UNL     1      -4.733  14.127  23.224  0.00  0.00    +0.000 OA
ATOM     20  H   UNL     1      -5.512  14.630  22.926  0.00  0.00    +0.000 HD
ENDBRANCH  18  19
ENDBRANCH  11  18
ENDBRANCH  10  14
ENDBRANCH   9  10
ENDBRANCH   8   9
ENDBRANCH   1   8
BRANCH   5  21
ATOM     21  C   UNL     1       3.342   7.140  18.406  0.00  0.00    +0.000 C 
BRANCH  21  22
ATOM     22  C   UNL     1       3.310   5.810  17.603  0.00  0.00    +0.000 C 
BRANCH  22  23
ATOM     23  C   UNL     1       4.661   5.454  16.986  0.00  0.00    +0.000 A 
ATOM     24  C   UNL     1       4.852   4.307  16.201  0.00  0.00    +0.000 A 
ATOM     25  C   UNL     1       6.126   3.945  15.754  0.00  0.00    +0.000 A 
ATOM     26  C   UNL     1       7.231   4.730  16.072  0.00  0.00    +0.000 A 
ATOM     27  C   UNL     1       7.059   5.892  16.819  0.00  0.00    +0.000 A 
ATOM     28  C   UNL     1       5.786   6.253  17.270  0.00  0.00    +0.000 A 
ENDBRANCH  22  23
BRANCH  22  29
ATOM     29  C   UNL     1       2.659   4.698  18.434  0.00  0.00    +0.000 A 
ATOM     30  C   UNL     1       3.279   4.266  19.621  0.00  0.00    +0.000 A 
ATOM     31  C   UNL     1       2.814   3.140  20.308  0.00  0.00    +0.000 A 
ATOM     32  C   UNL     1       1.710   2.438  19.834  0.00  0.00    +0.000 A 
ATOM     33  C   UNL     1       1.049   2.884  18.692  0.00  0.00    +0.000 A 
ATOM     34  C   UNL     1       1.516   4.006  17.999  0.00  0.00    +0.000 A 
ENDBRANCH  22  29
ENDBRANCH  21  22
ENDBRANCH   5  21
TORSDOF 10
ENDMDL
MODEL 7
REMARK VINA RESULT:      -8.2      0.627      1.124
REMARK  Name = 
REMARK  10 active torsions:
REMARK  status: ('A' for Active; 'I' for Inactive)
REMARK    1  A    between atoms: C_2  and  O_3
REMARK    2  A    between atoms: C_2  and  C_4
REMARK    3  A    between atoms: C_7  and  O_8
REMARK    4  A    between atoms: O_8  and  C_9
REMARK    5  A    between atoms: C_9  and  C_10
REMARK    6  A    between atoms: C_10  and  N_11
REMARK    7  A    between atoms: N_15  and  C_16
REMARK    8  A    between atoms: C_16  and  C_17
REMARK    9  A    between atoms: C_17  and  C_18
REMARK   10  A    between atoms: C_17  and  C_24
REMARK                            x       y       z     vdW  Elec       q    Type
REMARK                         _______ _______ _______ _____ _____    ______ ____
ROOT
ATOM      1  N   UNL     1       2.932   3.052  19.136  0.00  0.00    +0.000 N 
ATOM      2  C   UNL     1       4.220   2.712  19.358  0.00  0.00    +0.000 A 
ATOM      3  O   UNL     1       4.715   2.313  20.400  0.00  0.00    +0.000 OA
ATOM      4  O   UNL     1       4.948   2.909  18.214  0.00  0.00    +0.000 OA
ATOM      5  N   UNL     1       4.044   3.336  17.193  0.00  0.00    +0.000 N 
ATOM      6  C   UNL     1       2.842   3.574  17.875  0.00  0.00    +0.000 A 
ATOM      7  O   UNL     1       1.892   4.213  17.433  0.00  0.00    +0.000 OA
ENDROOT
BRANCH   1   8
ATOM      8  C   UNL     1       1.862   3.166  20.119  0.00  0.00    +0.000 C 
BRANCH   8   9
ATOM      9  C   UNL     1       1.246   4.558  20.303  0.00  0.00    +0.000 C 
BRANCH   9  10
ATOM     10  O   UNL     1       2.290   5.532  20.432  0.00  0.00    +0.000 OA
BRANCH  10  14
ATOM     11  C   UNL     1       1.194   9.488  19.643  0.00  0.00    +0.000 A 
ATOM     12  C   UNL     1       0.952   8.892  20.885  0.00  0.00    +0.000 A 
ATOM     13  C   UNL     1       1.331   7.563  21.111  0.00  0.00    +0.000 A 
ATOM     14  C   UNL     1       1.944   6.817  20.099  0.00  0.00    +0.000 A 
ATOM     15  C   UNL     1       2.214   7.427  18.871  0.00  0.00    +0.000 A 
ATOM     16  C   UNL     1       1.851   8.760  18.645  0.00  0.00    +0.000 A 
BRANCH  11  18
ATOM     17  O   UNL     1       0.182  11.286  18.459  0.00  0.00    +0.000 OA
ATOM     18  C   UNL     1       0.790  10.902  19.440  0.00  0.00    +0.000 C 
BRANCH  18  19
ATOM     19  O   UNL     1       1.200  11.728  20.428  0.00  0.00    +0.000 OA
ATOM     20  H   UNL     1       1.564  12.582  20.129  0.00  0.00    +0.000 HD
ENDBRANCH  18  19
ENDBRANCH  11  18
ENDBRANCH  10  14
ENDBRANCH   9  10
ENDBRANCH   8   9
ENDBRANCH   1   8
BRANCH   5  21
ATOM     21  C   UNL     1       4.610   4.380  16.341  0.00  0.00    +0.000 C 
BRANCH  21  22
ATOM     22  C   UNL     1       6.138   4.244  16.090  0.00  0.00    +0.000 C 
BRANCH  22  23
ATOM     23  C   UNL     1       6.498   4.212  14.606  0.00  0.00    +0.000 A 
ATOM     24  C   UNL     1       7.511   5.014  14.059  0.00  0.00    +0.000 A 
ATOM     25  C   UNL     1       7.732   5.052  12.680  0.00  0.00    +0.000 A 
ATOM     26  C   UNL     1       6.955   4.279  11.822  0.00  0.00    +0.000 A 
ATOM     27  C   UNL     1       5.968   3.448  12.346  0.00  0.00    +0.000 A 
ATOM     28  C   UNL     1       5.743   3.413  13.726  0.00  0.00    +0.000 A 
ENDBRANCH  22  23
BRANCH  22  29
ATOM     29  C   UNL     1       6.911   5.271  16.927  0.00  0.00    +0.000 A 
ATOM     30  C   UNL     1       7.591   4.852  18.085  0.00  0.00    +0.000 A 
ATOM     31  C   UNL     1       8.154   5.781  18.966  0.00  0.00    +0.000 A 
ATOM     32  C   UNL     1       8.067   7.143  18.695  0.00  0.00    +0.000 A 
ATOM     33  C   UNL     1       7.448   7.574  17.525  0.00  0.00    +0.000 A 
ATOM     34  C   UNL     1       6.877   6.647  16.646  0.00  0.00    +0.000 A 
ENDBRANCH  22  29
ENDBRANCH  21  22
ENDBRANCH   5  21
TORSDOF 10
ENDMDL
MODEL 8
REMARK VINA RESULT:      -8.1      3.599      6.244
REMARK  Name = 
REMARK  10 active torsions:
REMARK  status: ('A' for Active; 'I' for Inactive)
REMARK    1  A    between atoms: C_2  and  O_3
REMARK    2  A    between atoms: C_2  and  C_4
REMARK    3  A    between atoms: C_7  and  O_8
REMARK    4  A    between atoms: O_8  and  C_9
REMARK    5  A    between atoms: C_9  and  C_10
REMARK    6  A    between atoms: C_10  and  N_11
REMARK    7  A    between atoms: N_15  and  C_16
REMARK    8  A    between atoms: C_16  and  C_17
REMARK    9  A    between atoms: C_17  and  C_18
REMARK   10  A    between atoms: C_17  and  C_24
REMARK                            x       y       z     vdW  Elec       q    Type
REMARK                         _______ _______ _______ _____ _____    ______ ____
ROOT
ATOM      1  N   UNL     1       1.058   9.414  19.504  0.00  0.00    +0.000 N 
ATOM      2  C   UNL     1       1.181   8.670  20.625  0.00  0.00    +0.000 A 
ATOM      3  O   UNL     1       0.812   8.959  21.753  0.00  0.00    +0.000 OA
ATOM      4  O   UNL     1       1.834   7.503  20.330  0.00  0.00    +0.000 OA
ATOM      5  N   UNL     1       2.073   7.485  18.921  0.00  0.00    +0.000 N 
ATOM      6  C   UNL     1       1.726   8.776  18.496  0.00  0.00    +0.000 A 
ATOM      7  O   UNL     1       2.039   9.274  17.420  0.00  0.00    +0.000 OA
ENDROOT
BRANCH   1   8
ATOM      8  C   UNL     1       0.592  10.791  19.398  0.00  0.00    +0.000 C 
BRANCH   8   9
ATOM      9  C   UNL     1       1.340  11.833  20.238  0.00  0.00    +0.000 C 
BRANCH   9  10
ATOM     10  O   UNL     1       0.524  13.003  20.387  0.00  0.00    +0.000 OA
BRANCH  10  14
ATOM     11  C   UNL     1      -3.063  12.566  22.488  0.00  0.00    +0.000 A 
ATOM     12  C   UNL     1      -3.019  13.172  21.229  0.00  0.00    +0.000 A 
ATOM     13  C   UNL     1      -1.797  13.303  20.556  0.00  0.00    +0.000 A 
ATOM     14  C   UNL     1      -0.613  12.840  21.138  0.00  0.00    +0.000 A 
ATOM     15  C   UNL     1      -0.667  12.206  22.383  0.00  0.00    +0.000 A 
ATOM     16  C   UNL     1      -1.888  12.059  23.052  0.00  0.00    +0.000 A 
BRANCH  11  18
ATOM     17  O   UNL     1      -5.434  12.703  22.631  0.00  0.00    +0.000 OA
ATOM     18  C   UNL     1      -4.377  12.433  23.169  0.00  0.00    +0.000 C 
BRANCH  18  19
ATOM     19  O   UNL     1      -4.280  12.027  24.453  0.00  0.00    +0.000 OA
ATOM     20  H   UNL     1      -5.076  12.177  24.996  0.00  0.00    +0.000 HD
ENDBRANCH  18  19
ENDBRANCH  11  18
ENDBRANCH  10  14
ENDBRANCH   9  10
ENDBRANCH   8   9
ENDBRANCH   1   8
BRANCH   5  21
ATOM     21  C   UNL     1       3.387   6.941  18.581  0.00  0.00    +0.000 C 
BRANCH  21  22
ATOM     22  C   UNL     1       3.347   5.525  17.941  0.00  0.00    +0.000 C 
BRANCH  22  23
ATOM     23  C   UNL     1       4.705   5.077  17.401  0.00  0.00    +0.000 A 
ATOM     24  C   UNL     1       5.914   5.427  18.021  0.00  0.00    +0.000 A 
ATOM     25  C   UNL     1       7.141   5.105  17.434  0.00  0.00    +0.000 A 
ATOM     26  C   UNL     1       7.184   4.417  16.225  0.00  0.00    +0.000 A 
ATOM     27  C   UNL     1       5.996   4.029  15.611  0.00  0.00    +0.000 A 
ATOM     28  C   UNL     1       4.768   4.354  16.195  0.00  0.00    +0.000 A 
ENDBRANCH  22  23
BRANCH  22  29
ATOM     29  C   UNL     1       2.660   4.530  18.883  0.00  0.00    +0.000 A 
ATOM     30  C   UNL     1       1.494   3.865  18.460  0.00  0.00    +0.000 A 
ATOM     31  C   UNL     1       0.743   3.091  19.351  0.00  0.00    +0.000 A 
ATOM     32  C   UNL     1       1.153   2.950  20.672  0.00  0.00    +0.000 A 
ATOM     33  C   UNL     1       2.335   3.554  21.095  0.00  0.00    +0.000 A 
ATOM     34  C   UNL     1       3.084   4.335  20.208  0.00  0.00    +0.000 A 
ENDBRANCH  22  29
ENDBRANCH  21  22
ENDBRANCH   5  21
TORSDOF 10
ENDMDL
MODEL 9
REMARK VINA RESULT:      -8.1      3.710      6.267
REMARK  Name = 
REMARK  10 active torsions:
REMARK  status: ('A' for Active; 'I' for Inactive)
REMARK    1  A    between atoms: C_2  and  O_3
REMARK    2  A    between atoms: C_2  and  C_4
REMARK    3  A    between atoms: C_7  and  O_8
REMARK    4  A    between atoms: O_8  and  C_9
REMARK    5  A    between atoms: C_9  and  C_10
REMARK    6  A    between atoms: C_10  and  N_11
REMARK    7  A    between atoms: N_15  and  C_16
REMARK    8  A    between atoms: C_16  and  C_17
REMARK    9  A    between atoms: C_17  and  C_18
REMARK   10  A    between atoms: C_17  and  C_24
REMARK                            x       y       z     vdW  Elec       q    Type
REMARK                         _______ _______ _______ _____ _____    ______ ____
ROOT
ATOM      1  N   UNL     1       0.900   9.451  19.628  0.00  0.00    +0.000 N 
ATOM      2  C   UNL     1       1.124   8.675  20.712  0.00  0.00    +0.000 A 
ATOM      3  O   UNL     1       0.776   8.887  21.863  0.00  0.00    +0.000 OA
ATOM      4  O   UNL     1       1.858   7.578  20.344  0.00  0.00    +0.000 OA
ATOM      5  N   UNL     1       2.046   7.637  18.929  0.00  0.00    +0.000 N 
ATOM      6  C   UNL     1       1.580   8.911  18.572  0.00  0.00    +0.000 A 
ATOM      7  O   UNL     1       1.811   9.477  17.509  0.00  0.00    +0.000 OA
ENDROOT
BRANCH   1   8
ATOM      8  C   UNL     1       0.320  10.788  19.598  0.00  0.00    +0.000 C 
BRANCH   8   9
ATOM      9  C   UNL     1       1.184  11.921  20.163  0.00  0.00    +0.000 C 
BRANCH   9  10
ATOM     10  O   UNL     1       0.946  12.051  21.571  0.00  0.00    +0.000 OA
BRANCH  10  14
ATOM     11  C   UNL     1      -2.969  12.813  22.822  0.00  0.00    +0.000 A 
ATOM     12  C   UNL     1      -2.258  11.696  23.272  0.00  0.00    +0.000 A 
ATOM     13  C   UNL     1      -0.949  11.473  22.828  0.00  0.00    +0.000 A 
ATOM     14  C   UNL     1      -0.344  12.354  21.927  0.00  0.00    +0.000 A 
ATOM     15  C   UNL     1      -1.046  13.486  21.505  0.00  0.00    +0.000 A 
ATOM     16  C   UNL     1      -2.350  13.722  21.957  0.00  0.00    +0.000 A 
BRANCH  11  18
ATOM     17  O   UNL     1      -5.320  12.452  22.862  0.00  0.00    +0.000 OA
ATOM     18  C   UNL     1      -4.351  13.027  23.321  0.00  0.00    +0.000 C 
BRANCH  18  19
ATOM     19  O   UNL     1      -4.435  13.953  24.300  0.00  0.00    +0.000 OA
ATOM     20  H   UNL     1      -4.516  14.875  23.993  0.00  0.00    +0.000 HD
ENDBRANCH  18  19
ENDBRANCH  11  18
ENDBRANCH  10  14
ENDBRANCH   9  10
ENDBRANCH   8   9
ENDBRANCH   1   8
BRANCH   5  21
ATOM     21  C   UNL     1       3.386   7.218  18.522  0.00  0.00    +0.000 C 
BRANCH  21  22
ATOM     22  C   UNL     1       3.433   5.848  17.789  0.00  0.00    +0.000 C 
BRANCH  22  23
ATOM     23  C   UNL     1       4.836   5.475  17.312  0.00  0.00    +0.000 A 
ATOM     24  C   UNL     1       5.135   5.241  15.962  0.00  0.00    +0.000 A 
ATOM     25  C   UNL     1       6.397   4.782  15.574  0.00  0.00    +0.000 A 
ATOM     26  C   UNL     1       7.388   4.562  16.527  0.00  0.00    +0.000 A 
ATOM     27  C   UNL     1       7.124   4.822  17.869  0.00  0.00    +0.000 A 
ATOM     28  C   UNL     1       5.860   5.277  18.258  0.00  0.00    +0.000 A 
ENDBRANCH  22  23
BRANCH  22  29
ATOM     29  C   UNL     1       2.718   4.773  18.616  0.00  0.00    +0.000 A 
ATOM     30  C   UNL     1       1.695   4.009  18.026  0.00  0.00    +0.000 A 
ATOM     31  C   UNL     1       0.903   3.149  18.794  0.00  0.00    +0.000 A 
ATOM     32  C   UNL     1       1.133   3.020  20.160  0.00  0.00    +0.000 A 
ATOM     33  C   UNL     1       2.178   3.726  20.752  0.00  0.00    +0.000 A 
ATOM     34  C   UNL     1       2.966   4.592  19.988  0.00  0.00    +0.000 A 
ENDBRANCH  22  29
ENDBRANCH  21  22
ENDBRANCH   5  21
TORSDOF 10
ENDMDL
