MODEL 1
REMARK VINA RESULT:      -8.1      0.000      0.000
REMARK  Name = 
REMARK  8 active torsions:
REMARK  status: ('A' for Active; 'I' for Inactive)
REMARK    1  A    between atoms: C_1  and  O_2
REMARK    2  A    between atoms: O_2  and  C_3
REMARK    3  A    between atoms: C_7  and  C_8
REMARK    4  A    between atoms: C_8  and  C_10
REMARK    5  A    between atoms: C_10  and  C_11
REMARK    6  A    between atoms: C_18  and  O_19
REMARK    7  A    between atoms: O_19  and  C_20
REMARK    8  A    between atoms: N_26  and  C_27
REMARK                            x       y       z     vdW  Elec       q    Type
REMARK                         _______ _______ _______ _____ _____    ______ ____
ROOT
ATOM      1  C   UNL     1       5.438   4.488  16.702  0.00  0.00    +0.000 C 
ATOM      2  C   UNL     1       4.319   4.679  17.721  0.00  0.00    +0.000 A 
ATOM      3  C   UNL     1       3.908   6.013  18.015  0.00  0.00    +0.000 A 
ATOM      4  C   UNL     1       2.777   6.261  18.824  0.00  0.00    +0.000 A 
ATOM      5 BR   UNL     1       2.073   8.002  19.092  0.00  0.00    +0.000 Br
ATOM      6  C   UNL     1       2.185   5.191  19.464  0.00  0.00    +0.000 A 
ATOM      7  C   UNL     1       2.716   3.929  19.356  0.00  0.00    +0.000 A 
ATOM      8  C   UNL     1       3.789   3.640  18.513  0.00  0.00    +0.000 A 
ATOM      9  O   UNL     1       2.101   3.044  20.194  0.00  0.00    +0.000 OA
ATOM     10  C   UNL     1       0.971   3.825  20.624  0.00  0.00    +0.000 C 
ATOM     11  O   UNL     1       1.129   5.225  20.330  0.00  0.00    +0.000 OA
ATOM     12  C   UNL     1       4.828   7.128  17.558  0.00  0.00    +0.000 C 
ATOM     13  C   UNL     1       6.317   6.698  17.416  0.00  0.00    +0.000 C 
ATOM     14  N   UNL     1       6.584   5.307  17.071  0.00  0.00    +0.000 NA
ATOM     15  C   UNL     1       7.698   4.631  17.688  0.00  0.00    +0.000 C 
ENDROOT
BRANCH   8  16
ATOM     16  O   UNL     1       4.416   2.451  18.754  0.00  0.00    +0.000 OA
ATOM     17  C   UNL     1       3.828   1.294  18.182  0.00  0.00    +0.000 C 
ENDBRANCH   8  16
BRANCH   1  18
ATOM     18  C   UNL     1       5.245   4.899  15.222  0.00  0.00    +0.000 C 
BRANCH  18  19
ATOM     19  C   UNL     1       6.365   4.616  14.255  0.00  0.00    +0.000 C 
ATOM     20  O   UNL     1       7.464   5.157  14.346  0.00  0.00    +0.000 OA
BRANCH  19  25
ATOM     21  C   UNL     1       4.471   2.990  11.409  0.00  0.00    +0.000 A 
ATOM     22  C   UNL     1       5.462   2.182  10.852  0.00  0.00    +0.000 A 
ATOM     23  C   UNL     1       6.743   2.150  11.407  0.00  0.00    +0.000 A 
ATOM     24  C   UNL     1       7.043   2.939  12.521  0.00  0.00    +0.000 A 
ATOM     25  C   UNL     1       6.057   3.765  13.071  0.00  0.00    +0.000 A 
ATOM     26  C   UNL     1       4.777   3.792  12.507  0.00  0.00    +0.000 A 
BRANCH  21  28
ATOM     27  C   UNL     1       3.009   3.934   9.805  0.00  0.00    +0.000 C 
ATOM     28  O   UNL     1       3.248   2.938  10.797  0.00  0.00    +0.000 OA
ENDBRANCH  21  28
ENDBRANCH  19  25
ENDBRANCH  18  19
ENDBRANCH   1  18
TORSDOF 5
ENDMDL
MODEL 2
REMARK VINA RESULT:      -7.9      0.991      1.637
REMARK  Name = 
REMARK  8 active torsions:
REMARK  status: ('A' for Active; 'I' for Inactive)
REMARK    1  A    between atoms: C_1  and  O_2
REMARK    2  A    between atoms: O_2  and  C_3
REMARK    3  A    between atoms: C_7  and  C_8
REMARK    4  A    between atoms: C_8  and  C_10
REMARK    5  A    between atoms: C_10  and  C_11
REMARK    6  A    between atoms: C_18  and  O_19
REMARK    7  A    between atoms: O_19  and  C_20
REMARK    8  A    between atoms: N_26  and  C_27
REMARK                            x       y       z     vdW  Elec       q    Type
REMARK                         _______ _______ _______ _____ _____    ______ ____
ROOT
ATOM      1  C   UNL     1       5.378   4.412  16.607  0.00  0.00    +0.000 C 
ATOM      2  C   UNL     1       4.292   4.652  17.651  0.00  0.00    +0.000 A 
ATOM      3  C   UNL     1       3.901   6.000  17.906  0.00  0.00    +0.000 A 
ATOM      4  C   UNL     1       2.796   6.288  18.738  0.00  0.00    +0.000 A 
ATOM      5 BR   UNL     1       2.115   8.044  18.962  0.00  0.00    +0.000 Br
ATOM      6  C   UNL     1       2.215   5.249  19.435  0.00  0.00    +0.000 A 
ATOM      7  C   UNL     1       2.732   3.979  19.359  0.00  0.00    +0.000 A 
ATOM      8  C   UNL     1       3.777   3.648  18.496  0.00  0.00    +0.000 A 
ATOM      9  O   UNL     1       2.134   3.132  20.247  0.00  0.00    +0.000 OA
ATOM     10  C   UNL     1       1.025   3.938  20.680  0.00  0.00    +0.000 C 
ATOM     11  O   UNL     1       1.185   5.325  20.329  0.00  0.00    +0.000 OA
ATOM     12  C   UNL     1       4.816   7.089  17.380  0.00  0.00    +0.000 C 
ATOM     13  C   UNL     1       6.297   6.639  17.211  0.00  0.00    +0.000 C 
ATOM     14  N   UNL     1       6.541   5.233  16.911  0.00  0.00    +0.000 NA
ATOM     15  C   UNL     1       7.668   4.571  17.520  0.00  0.00    +0.000 C 
ENDROOT
BRANCH   8  16
ATOM     16  O   UNL     1       4.400   2.463  18.763  0.00  0.00    +0.000 OA
ATOM     17  C   UNL     1       3.825   1.299  18.194  0.00  0.00    +0.000 C 
ENDBRANCH   8  16
BRANCH   1  18
ATOM     18  C   UNL     1       5.144   4.770  15.118  0.00  0.00    +0.000 C 
BRANCH  18  19
ATOM     19  C   UNL     1       6.149   4.283  14.106  0.00  0.00    +0.000 C 
ATOM     20  O   UNL     1       7.337   4.589  14.160  0.00  0.00    +0.000 OA
BRANCH  19  25
ATOM     21  C   UNL     1       5.865   1.723  11.331  0.00  0.00    +0.000 A 
ATOM     22  C   UNL     1       4.675   2.119  10.720  0.00  0.00    +0.000 A 
ATOM     23  C   UNL     1       3.969   3.226  11.196  0.00  0.00    +0.000 A 
ATOM     24  C   UNL     1       4.448   3.939  12.298  0.00  0.00    +0.000 A 
ATOM     25  C   UNL     1       5.631   3.534  12.926  0.00  0.00    +0.000 A 
ATOM     26  C   UNL     1       6.330   2.423  12.443  0.00  0.00    +0.000 A 
BRANCH  21  28
ATOM     27  C   UNL     1       6.137  -0.627  11.344  0.00  0.00    +0.000 C 
ATOM     28  O   UNL     1       6.483   0.635  10.779  0.00  0.00    +0.000 OA
ENDBRANCH  21  28
ENDBRANCH  19  25
ENDBRANCH  18  19
ENDBRANCH   1  18
TORSDOF 5
ENDMDL
MODEL 3
REMARK VINA RESULT:      -7.1      7.252     10.491
REMARK  Name = 
REMARK  8 active torsions:
REMARK  status: ('A' for Active; 'I' for Inactive)
REMARK    1  A    between atoms: C_1  and  O_2
REMARK    2  A    between atoms: O_2  and  C_3
REMARK    3  A    between atoms: C_7  and  C_8
REMARK    4  A    between atoms: C_8  and  C_10
REMARK    5  A    between atoms: C_10  and  C_11
REMARK    6  A    between atoms: C_18  and  O_19
REMARK    7  A    between atoms: O_19  and  C_20
REMARK    8  A    between atoms: N_26  and  C_27
REMARK                            x       y       z     vdW  Elec       q    Type
REMARK                         _______ _______ _______ _____ _____    ______ ____
ROOT
ATOM      1  C   UNL     1      -0.664  12.869  20.656  0.00  0.00    +0.000 C 
ATOM      2  C   UNL     1      -1.932  12.457  19.916  0.00  0.00    +0.000 A 
ATOM      3  C   UNL     1      -1.822  12.157  18.525  0.00  0.00    +0.000 A 
ATOM      4  C   UNL     1      -2.916  11.617  17.812  0.00  0.00    +0.000 A 
ATOM      5 BR   UNL     1      -2.773  11.022  16.017  0.00  0.00    +0.000 Br
ATOM      6  C   UNL     1      -4.139  11.551  18.446  0.00  0.00    +0.000 A 
ATOM      7  C   UNL     1      -4.297  12.046  19.717  0.00  0.00    +0.000 A 
ATOM      8  C   UNL     1      -3.226  12.522  20.472  0.00  0.00    +0.000 A 
ATOM      9  O   UNL     1      -5.607  12.050  20.103  0.00  0.00    +0.000 OA
ATOM     10  C   UNL     1      -6.197  11.265  19.052  0.00  0.00    +0.000 C 
ATOM     11  O   UNL     1      -5.324  11.123  17.917  0.00  0.00    +0.000 OA
ATOM     12  C   UNL     1      -0.546  12.592  17.830  0.00  0.00    +0.000 C 
ATOM     13  C   UNL     1       0.157  13.804  18.508  0.00  0.00    +0.000 C 
ATOM     14  N   UNL     1      -0.013  13.961  19.947  0.00  0.00    +0.000 NA
ATOM     15  C   UNL     1      -0.174  15.285  20.495  0.00  0.00    +0.000 C 
ENDROOT
BRANCH   8  16
ATOM     16  O   UNL     1      -3.566  13.277  21.557  0.00  0.00    +0.000 OA
ATOM     17  C   UNL     1      -3.554  12.625  22.816  0.00  0.00    +0.000 C 
ENDBRANCH   8  16
BRANCH   1  18
ATOM     18  C   UNL     1       0.517  11.880  20.824  0.00  0.00    +0.000 C 
BRANCH  18  19
ATOM     19  C   UNL     1       0.203  10.409  20.907  0.00  0.00    +0.000 C 
ATOM     20  O   UNL     1      -0.537   9.943  21.769  0.00  0.00    +0.000 OA
BRANCH  19  25
ATOM     21  C   UNL     1       2.135   7.408  19.646  0.00  0.00    +0.000 A 
ATOM     22  C   UNL     1       2.342   7.761  18.313  0.00  0.00    +0.000 A 
ATOM     23  C   UNL     1       1.868   8.979  17.822  0.00  0.00    +0.000 A 
ATOM     24  C   UNL     1       1.173   9.850  18.666  0.00  0.00    +0.000 A 
ATOM     25  C   UNL     1       0.948   9.492  19.999  0.00  0.00    +0.000 A 
ATOM     26  C   UNL     1       1.424   8.268  20.481  0.00  0.00    +0.000 A 
BRANCH  21  28
ATOM     27  C   UNL     1       2.500   5.137  19.087  0.00  0.00    +0.000 C 
ATOM     28  O   UNL     1       2.650   6.199  20.027  0.00  0.00    +0.000 OA
ENDBRANCH  21  28
ENDBRANCH  19  25
ENDBRANCH  18  19
ENDBRANCH   1  18
TORSDOF 5
ENDMDL
MODEL 4
REMARK VINA RESULT:      -7.1      8.013     11.081
REMARK  Name = 
REMARK  8 active torsions:
REMARK  status: ('A' for Active; 'I' for Inactive)
REMARK    1  A    between atoms: C_1  and  O_2
REMARK    2  A    between atoms: O_2  and  C_3
REMARK    3  A    between atoms: C_7  and  C_8
REMARK    4  A    between atoms: C_8  and  C_10
REMARK    5  A    between atoms: C_10  and  C_11
REMARK    6  A    between atoms: C_18  and  O_19
REMARK    7  A    between atoms: O_19  and  C_20
REMARK    8  A    between atoms: N_26  and  C_27
REMARK                            x       y       z     vdW  Elec       q    Type
REMARK                         _______ _______ _______ _____ _____    ______ ____
ROOT
ATOM      1  C   UNL     1      -1.358  12.157  20.208  0.00  0.00    +0.000 C 
ATOM      2  C   UNL     1      -2.824  12.576  20.237  0.00  0.00    +0.000 A 
ATOM      3  C   UNL     1      -3.681  12.068  19.216  0.00  0.00    +0.000 A 
ATOM      4  C   UNL     1      -5.076  12.282  19.268  0.00  0.00    +0.000 A 
ATOM      5 BR   UNL     1      -6.282  11.472  18.049  0.00  0.00    +0.000 Br
ATOM      6  C   UNL     1      -5.569  13.140  20.230  0.00  0.00    +0.000 A 
ATOM      7  C   UNL     1      -4.717  13.806  21.077  0.00  0.00    +0.000 A 
ATOM      8  C   UNL     1      -3.344  13.564  21.097  0.00  0.00    +0.000 A 
ATOM      9  O   UNL     1      -5.374  14.733  21.834  0.00  0.00    +0.000 OA
ATOM     10  C   UNL     1      -6.742  14.383  21.559  0.00  0.00    +0.000 C 
ATOM     11  O   UNL     1      -6.867  13.525  20.409  0.00  0.00    +0.000 OA
ATOM     12  C   UNL     1      -3.010  11.437  18.011  0.00  0.00    +0.000 C 
ATOM     13  C   UNL     1      -1.572  11.969  17.741  0.00  0.00    +0.000 C 
ATOM     14  N   UNL     1      -0.797  12.420  18.890  0.00  0.00    +0.000 NA
ATOM     15  C   UNL     1       0.043  13.584  18.758  0.00  0.00    +0.000 C 
ENDROOT
BRANCH   8  16
ATOM     16  O   UNL     1      -2.594  14.513  21.732  0.00  0.00    +0.000 OA
ATOM     17  C   UNL     1      -2.196  15.632  20.958  0.00  0.00    +0.000 C 
ENDBRANCH   8  16
BRANCH   1  18
ATOM     18  C   UNL     1      -0.949  10.677  20.413  0.00  0.00    +0.000 C 
BRANCH  18  19
ATOM     19  C   UNL     1       0.497  10.376  20.711  0.00  0.00    +0.000 C 
ATOM     20  O   UNL     1       1.146  11.019  21.531  0.00  0.00    +0.000 OA
BRANCH  19  25
ATOM     21  C   UNL     1       2.242   7.195  19.630  0.00  0.00    +0.000 A 
ATOM     22  C   UNL     1       2.459   7.452  18.277  0.00  0.00    +0.000 A 
ATOM     23  C   UNL     1       2.053   8.664  17.714  0.00  0.00    +0.000 A 
ATOM     24  C   UNL     1       1.416   9.625  18.504  0.00  0.00    +0.000 A 
ATOM     25  C   UNL     1       1.181   9.363  19.858  0.00  0.00    +0.000 A 
ATOM     26  C   UNL     1       1.588   8.145  20.413  0.00  0.00    +0.000 A 
BRANCH  21  28
ATOM     27  C   UNL     1       3.863   5.479  19.452  0.00  0.00    +0.000 C 
ATOM     28  O   UNL     1       2.688   5.983  20.083  0.00  0.00    +0.000 OA
ENDBRANCH  21  28
ENDBRANCH  19  25
ENDBRANCH  18  19
ENDBRANCH   1  18
TORSDOF 5
ENDMDL
MODEL 5
REMARK VINA RESULT:      -7.0      7.941     11.393
REMARK  Name = 
REMARK  8 active torsions:
REMARK  status: ('A' for Active; 'I' for Inactive)
REMARK    1  A    between atoms: C_1  and  O_2
REMARK    2  A    between atoms: O_2  and  C_3
REMARK    3  A    between atoms: C_7  and  C_8
REMARK    4  A    between atoms: C_8  and  C_10
REMARK    5  A    between atoms: C_10  and  C_11
REMARK    6  A    between atoms: C_18  and  O_19
REMARK    7  A    between atoms: O_19  and  C_20
REMARK    8  A    between atoms: N_26  and  C_27
REMARK                            x       y       z     vdW  Elec       q    Type
REMARK                         _______ _______ _______ _____ _____    ______ ____
ROOT
ATOM      1  C   UNL     1      -1.343  13.656  20.879  0.00  0.00    +0.000 C 
ATOM      2  C   UNL     1      -2.436  12.956  20.077  0.00  0.00    +0.000 A 
ATOM      3  C   UNL     1      -2.084  12.418  18.803  0.00  0.00    +0.000 A 
ATOM      4  C   UNL     1      -2.997  11.620  18.077  0.00  0.00    +0.000 A 
ATOM      5 BR   UNL     1      -2.521  10.723  16.475  0.00  0.00    +0.000 Br
ATOM      6  C   UNL     1      -4.291  11.520  18.544  0.00  0.00    +0.000 A 
ATOM      7  C   UNL     1      -4.690  12.219  19.657  0.00  0.00    +0.000 A 
ATOM      8  C   UNL     1      -3.799  12.959  20.433  0.00  0.00    +0.000 A 
ATOM      9  O   UNL     1      -6.038  12.129  19.858  0.00  0.00    +0.000 OA
ATOM     10  C   UNL     1      -6.380  11.094  18.920  0.00  0.00    +0.000 C 
ATOM     11  O   UNL     1      -5.332  10.854  17.963  0.00  0.00    +0.000 OA
ATOM     12  C   UNL     1      -0.766  12.873  18.208  0.00  0.00    +0.000 C 
ATOM     13  C   UNL     1      -0.298  14.270  18.712  0.00  0.00    +0.000 C 
ATOM     14  N   UNL     1      -0.702  14.670  20.054  0.00  0.00    +0.000 NA
ATOM     15  C   UNL     1      -1.075  16.042  20.296  0.00  0.00    +0.000 C 
ENDROOT
BRANCH   8  16
ATOM     16  O   UNL     1      -4.376  13.855  21.288  0.00  0.00    +0.000 OA
ATOM     17  C   UNL     1      -4.516  13.446  22.639  0.00  0.00    +0.000 C 
ENDBRANCH   8  16
BRANCH   1  18
ATOM     18  C   UNL     1      -0.111  12.874  21.397  0.00  0.00    +0.000 C 
BRANCH  18  19
ATOM     19  C   UNL     1      -0.346  11.542  22.062  0.00  0.00    +0.000 C 
ATOM     20  O   UNL     1      -0.937  11.438  23.134  0.00  0.00    +0.000 OA
BRANCH  19  25
ATOM     21  C   UNL     1       1.154   9.190  19.503  0.00  0.00    +0.000 A 
ATOM     22  C   UNL     1       1.524   8.114  20.310  0.00  0.00    +0.000 A 
ATOM     23  C   UNL     1       1.275   8.142  21.684  0.00  0.00    +0.000 A 
ATOM     24  C   UNL     1       0.661   9.257  22.261  0.00  0.00    +0.000 A 
ATOM     25  C   UNL     1       0.304  10.345  21.458  0.00  0.00    +0.000 A 
ATOM     26  C   UNL     1       0.560  10.310  20.083  0.00  0.00    +0.000 A 
BRANCH  21  28
ATOM     27  C   UNL     1       2.634   8.357  17.855  0.00  0.00    +0.000 C 
ATOM     28  O   UNL     1       1.432   9.056  18.170  0.00  0.00    +0.000 OA
ENDBRANCH  21  28
ENDBRANCH  19  25
ENDBRANCH  18  19
ENDBRANCH   1  18
TORSDOF 5
ENDMDL
MODEL 6
REMARK VINA RESULT:      -7.0      3.399      5.819
REMARK  Name = 
REMARK  8 active torsions:
REMARK  status: ('A' for Active; 'I' for Inactive)
REMARK    1  A    between atoms: C_1  and  O_2
REMARK    2  A    between atoms: O_2  and  C_3
REMARK    3  A    between atoms: C_7  and  C_8
REMARK    4  A    between atoms: C_8  and  C_10
REMARK    5  A    between atoms: C_10  and  C_11
REMARK    6  A    between atoms: C_18  and  O_19
REMARK    7  A    between atoms: O_19  and  C_20
REMARK    8  A    between atoms: N_26  and  C_27
REMARK                            x       y       z     vdW  Elec       q    Type
REMARK                         _______ _______ _______ _____ _____    ______ ____
ROOT
ATOM      1  C   UNL     1       2.941   5.718  18.888  0.00  0.00    +0.000 C 
ATOM      2  C   UNL     1       2.361   7.099  19.181  0.00  0.00    +0.000 A 
ATOM      3  C   UNL     1       1.579   7.254  20.364  0.00  0.00    +0.000 A 
ATOM      4  C   UNL     1       1.145   8.532  20.783  0.00  0.00    +0.000 A 
ATOM      5 BR   UNL     1       0.270   8.822  22.440  0.00  0.00    +0.000 Br
ATOM      6  C   UNL     1       1.342   9.599  19.931  0.00  0.00    +0.000 A 
ATOM      7  C   UNL     1       1.900   9.412  18.690  0.00  0.00    +0.000 A 
ATOM      8  C   UNL     1       2.401   8.178  18.275  0.00  0.00    +0.000 A 
ATOM      9  O   UNL     1       1.852  10.547  17.934  0.00  0.00    +0.000 OA
ATOM     10  C   UNL     1       1.457  11.512  18.925  0.00  0.00    +0.000 C 
ATOM     11  O   UNL     1       0.946  10.893  20.120  0.00  0.00    +0.000 OA
ATOM     12  C   UNL     1       1.111   5.983  21.046  0.00  0.00    +0.000 C 
ATOM     13  C   UNL     1       0.988   4.763  20.088  0.00  0.00    +0.000 C 
ATOM     14  N   UNL     1       1.883   4.720  18.938  0.00  0.00    +0.000 NA
ATOM     15  C   UNL     1       1.382   4.235  17.676  0.00  0.00    +0.000 C 
ENDROOT
BRANCH   8  16
ATOM     16  O   UNL     1       2.611   8.056  16.932  0.00  0.00    +0.000 OA
ATOM     17  C   UNL     1       3.880   7.571  16.527  0.00  0.00    +0.000 C 
ENDBRANCH   8  16
BRANCH   1  18
ATOM     18  C   UNL     1       3.993   5.082  19.830  0.00  0.00    +0.000 C 
BRANCH  18  19
ATOM     19  C   UNL     1       4.969   4.097  19.239  0.00  0.00    +0.000 C 
ATOM     20  O   UNL     1       5.313   3.078  19.832  0.00  0.00    +0.000 OA
BRANCH  19  25
ATOM     21  C   UNL     1       7.114   5.947  16.728  0.00  0.00    +0.000 A 
ATOM     22  C   UNL     1       6.905   5.183  15.580  0.00  0.00    +0.000 A 
ATOM     23  C   UNL     1       6.056   4.075  15.613  0.00  0.00    +0.000 A 
ATOM     24  C   UNL     1       5.418   3.718  16.803  0.00  0.00    +0.000 A 
ATOM     25  C   UNL     1       5.639   4.470  17.962  0.00  0.00    +0.000 A 
ATOM     26  C   UNL     1       6.493   5.577  17.920  0.00  0.00    +0.000 A 
BRANCH  21  28
ATOM     27  C   UNL     1       7.782   8.072  17.529  0.00  0.00    +0.000 C 
ATOM     28  O   UNL     1       7.955   7.017  16.585  0.00  0.00    +0.000 OA
ENDBRANCH  21  28
ENDBRANCH  19  25
ENDBRANCH  18  19
ENDBRANCH   1  18
TORSDOF 5
ENDMDL
MODEL 7
REMARK VINA RESULT:      -7.0      7.479     10.508
REMARK  Name = 
REMARK  8 active torsions:
REMARK  status: ('A' for Active; 'I' for Inactive)
REMARK    1  A    between atoms: C_1  and  O_2
REMARK    2  A    between atoms: O_2  and  C_3
REMARK    3  A    between atoms: C_7  and  C_8
REMARK    4  A    between atoms: C_8  and  C_10
REMARK    5  A    between atoms: C_10  and  C_11
REMARK    6  A    between atoms: C_18  and  O_19
REMARK    7  A    between atoms: O_19  and  C_20
REMARK    8  A    between atoms: N_26  and  C_27
REMARK                            x       y       z     vdW  Elec       q    Type
REMARK                         _______ _______ _______ _____ _____    ______ ____
ROOT
ATOM      1  C   UNL     1      -0.233  11.746  20.506  0.00  0.00    +0.000 C 
ATOM      2  C   UNL     1      -1.212  12.510  21.391  0.00  0.00    +0.000 A 
ATOM      3  C   UNL     1      -2.579  12.561  20.982  0.00  0.00    +0.000 A 
ATOM      4  C   UNL     1      -3.568  13.111  21.828  0.00  0.00    +0.000 A 
ATOM      5 BR   UNL     1      -5.419  13.033  21.421  0.00  0.00    +0.000 Br
ATOM      6  C   UNL     1      -3.159  13.755  22.977  0.00  0.00    +0.000 A 
ATOM      7  C   UNL     1      -1.823  13.899  23.262  0.00  0.00    +0.000 A 
ATOM      8  C   UNL     1      -0.826  13.310  22.486  0.00  0.00    +0.000 A 
ATOM      9  O   UNL     1      -1.618  14.709  24.342  0.00  0.00    +0.000 OA
ATOM     10  C   UNL     1      -2.960  14.826  24.848  0.00  0.00    +0.000 C 
ATOM     11  O   UNL     1      -3.945  14.399  23.889  0.00  0.00    +0.000 OA
ATOM     12  C   UNL     1      -2.880  12.150  19.554  0.00  0.00    +0.000 C 
ATOM     13  C   UNL     1      -1.682  12.339  18.578  0.00  0.00    +0.000 C 
ATOM     14  N   UNL     1      -0.339  12.219  19.133  0.00  0.00    +0.000 NA
ATOM     15  C   UNL     1       0.695  13.108  18.666  0.00  0.00    +0.000 C 
ENDROOT
BRANCH   8  16
ATOM     16  O   UNL     1       0.432  13.803  22.680  0.00  0.00    +0.000 OA
ATOM     17  C   UNL     1       0.788  14.953  21.930  0.00  0.00    +0.000 C 
ENDBRANCH   8  16
BRANCH   1  18
ATOM     18  C   UNL     1      -0.370  10.217  20.303  0.00  0.00    +0.000 C 
BRANCH  18  19
ATOM     19  C   UNL     1       0.703   9.327  20.874  0.00  0.00    +0.000 C 
ATOM     20  O   UNL     1       1.011   9.350  22.063  0.00  0.00    +0.000 OA
BRANCH  19  25
ATOM     21  C   UNL     1       2.797   6.517  19.442  0.00  0.00    +0.000 A 
ATOM     22  C   UNL     1       3.009   6.975  18.142  0.00  0.00    +0.000 A 
ATOM     23  C   UNL     1       2.487   8.202  17.730  0.00  0.00    +0.000 A 
ATOM     24  C   UNL     1       1.736   8.977  18.619  0.00  0.00    +0.000 A 
ATOM     25  C   UNL     1       1.506   8.513  19.919  0.00  0.00    +0.000 A 
ATOM     26  C   UNL     1       2.031   7.281  20.321  0.00  0.00    +0.000 A 
BRANCH  21  28
ATOM     27  C   UNL     1       4.626   5.046  19.142  0.00  0.00    +0.000 C 
ATOM     28  O   UNL     1       3.362   5.308  19.746  0.00  0.00    +0.000 OA
ENDBRANCH  21  28
ENDBRANCH  19  25
ENDBRANCH  18  19
ENDBRANCH   1  18
TORSDOF 5
ENDMDL
MODEL 8
REMARK VINA RESULT:      -6.9      7.654     10.680
REMARK  Name = 
REMARK  8 active torsions:
REMARK  status: ('A' for Active; 'I' for Inactive)
REMARK    1  A    between atoms: C_1  and  O_2
REMARK    2  A    between atoms: O_2  and  C_3
REMARK    3  A    between atoms: C_7  and  C_8
REMARK    4  A    between atoms: C_8  and  C_10
REMARK    5  A    between atoms: C_10  and  C_11
REMARK    6  A    between atoms: C_18  and  O_19
REMARK    7  A    between atoms: O_19  and  C_20
REMARK    8  A    between atoms: N_26  and  C_27
REMARK                            x       y       z     vdW  Elec       q    Type
REMARK                         _______ _______ _______ _____ _____    ______ ____
ROOT
ATOM      1  C   UNL     1      -1.228  11.720  20.719  0.00  0.00    +0.000 C 
ATOM      2  C   UNL     1      -2.673  12.150  20.482  0.00  0.00    +0.000 A 
ATOM      3  C   UNL     1      -3.201  12.007  19.164  0.00  0.00    +0.000 A 
ATOM      4  C   UNL     1      -4.572  12.233  18.905  0.00  0.00    +0.000 A 
ATOM      5 BR   UNL     1      -5.366  11.875  17.221  0.00  0.00    +0.000 Br
ATOM      6  C   UNL     1      -5.348  12.762  19.915  0.00  0.00    +0.000 A 
ATOM      7  C   UNL     1      -4.789  13.107  21.121  0.00  0.00    +0.000 A 
ATOM      8  C   UNL     1      -3.457  12.835  21.432  0.00  0.00    +0.000 A 
ATOM      9  O   UNL     1      -5.674  13.771  21.921  0.00  0.00    +0.000 OA
ATOM     10  C   UNL     1      -6.899  13.561  21.197  0.00  0.00    +0.000 C 
ATOM     11  O   UNL     1      -6.668  13.107  19.850  0.00  0.00    +0.000 OA
ATOM     12  C   UNL     1      -2.202  11.765  18.049  0.00  0.00    +0.000 C 
ATOM     13  C   UNL     1      -0.777  12.315  18.351  0.00  0.00    +0.000 C 
ATOM     14  N   UNL     1      -0.358  12.365  19.746  0.00  0.00    +0.000 NA
ATOM     15  C   UNL     1       0.418  13.489  20.206  0.00  0.00    +0.000 C 
ENDROOT
BRANCH   8  16
ATOM     16  O   UNL     1      -2.957  13.518  22.503  0.00  0.00    +0.000 OA
ATOM     17  C   UNL     1      -3.018  12.865  23.760  0.00  0.00    +0.000 C 
ENDBRANCH   8  16
BRANCH   1  18
ATOM     18  C   UNL     1      -0.802  10.240  20.562  0.00  0.00    +0.000 C 
BRANCH  18  19
ATOM     19  C   UNL     1       0.623   9.874  20.888  0.00  0.00    +0.000 C 
ATOM     20  O   UNL     1       1.234  10.384  21.822  0.00  0.00    +0.000 OA
BRANCH  19  25
ATOM     21  C   UNL     1       2.508   6.898  19.501  0.00  0.00    +0.000 A 
ATOM     22  C   UNL     1       2.680   7.283  18.172  0.00  0.00    +0.000 A 
ATOM     23  C   UNL     1       2.200   8.516  17.725  0.00  0.00    +0.000 A 
ATOM     24  C   UNL     1       1.531   9.368  18.608  0.00  0.00    +0.000 A 
ATOM     25  C   UNL     1       1.339   8.977  19.938  0.00  0.00    +0.000 A 
ATOM     26  C   UNL     1       1.823   7.739  20.376  0.00  0.00    +0.000 A 
BRANCH  21  28
ATOM     27  C   UNL     1       3.154   4.742  18.770  0.00  0.00    +0.000 C 
ATOM     28  O   UNL     1       3.027   5.678  19.838  0.00  0.00    +0.000 OA
ENDBRANCH  21  28
ENDBRANCH  19  25
ENDBRANCH  18  19
ENDBRANCH   1  18
TORSDOF 5
ENDMDL
MODEL 9
REMARK VINA RESULT:      -6.9      7.419     10.558
REMARK  Name = 
REMARK  8 active torsions:
REMARK  status: ('A' for Active; 'I' for Inactive)
REMARK    1  A    between atoms: C_1  and  O_2
REMARK    2  A    between atoms: O_2  and  C_3
REMARK    3  A    between atoms: C_7  and  C_8
REMARK    4  A    between atoms: C_8  and  C_10
REMARK    5  A    between atoms: C_10  and  C_11
REMARK    6  A    between atoms: C_18  and  O_19
REMARK    7  A    between atoms: O_19  and  C_20
REMARK    8  A    between atoms: N_26  and  C_27
REMARK                            x       y       z     vdW  Elec       q    Type
REMARK                         _______ _______ _______ _____ _____    ______ ____
ROOT
ATOM      1  C   UNL     1      -0.174  11.601  20.946  0.00  0.00    +0.000 C 
ATOM      2  C   UNL     1      -1.411  12.418  21.305  0.00  0.00    +0.000 A 
ATOM      3  C   UNL     1      -2.513  12.389  20.398  0.00  0.00    +0.000 A 
ATOM      4  C   UNL     1      -3.746  12.988  20.738  0.00  0.00    +0.000 A 
ATOM      5 BR   UNL     1      -5.298  12.818  19.660  0.00  0.00    +0.000 Br
ATOM      6  C   UNL     1      -3.807  13.750  21.887  0.00  0.00    +0.000 A 
ATOM      7  C   UNL     1      -2.684  13.960  22.648  0.00  0.00    +0.000 A 
ATOM      8  C   UNL     1      -1.470  13.329  22.379  0.00  0.00    +0.000 A 
ATOM      9  O   UNL     1      -2.903  14.875  23.638  0.00  0.00    +0.000 OA
ATOM     10  C   UNL     1      -4.335  15.001  23.573  0.00  0.00    +0.000 C 
ATOM     11  O   UNL     1      -4.878  14.456  22.357  0.00  0.00    +0.000 OA
ATOM     12  C   UNL     1      -2.244  11.835  19.013  0.00  0.00    +0.000 C 
ATOM     13  C   UNL     1      -0.760  11.964  18.561  0.00  0.00    +0.000 C 
ATOM     14  N   UNL     1       0.263  11.938  19.599  0.00  0.00    +0.000 NA
ATOM     15  C   UNL     1       1.406  12.808  19.481  0.00  0.00    +0.000 C 
ENDROOT
BRANCH   8  16
ATOM     16  O   UNL     1      -0.379  13.875  22.993  0.00  0.00    +0.000 OA
ATOM     17  C   UNL     1       0.255  14.953  22.323  0.00  0.00    +0.000 C 
ENDBRANCH   8  16
BRANCH   1  18
ATOM     18  C   UNL     1      -0.238  10.056  20.859  0.00  0.00    +0.000 C 
BRANCH  18  19
ATOM     19  C   UNL     1       0.991   9.273  21.245  0.00  0.00    +0.000 C 
ATOM     20  O   UNL     1       1.597   9.478  22.293  0.00  0.00    +0.000 OA
BRANCH  19  25
ATOM     21  C   UNL     1       2.401   6.133  19.671  0.00  0.00    +0.000 A 
ATOM     22  C   UNL     1       2.611   6.559  18.360  0.00  0.00    +0.000 A 
ATOM     23  C   UNL     1       2.310   7.870  17.986  0.00  0.00    +0.000 A 
ATOM     24  C   UNL     1       1.785   8.762  18.925  0.00  0.00    +0.000 A 
ATOM     25  C   UNL     1       1.556   8.333  20.236  0.00  0.00    +0.000 A 
ATOM     26  C   UNL     1       1.858   7.017  20.601  0.00  0.00    +0.000 A 
BRANCH  21  28
ATOM     27  C   UNL     1       2.163   4.268  21.109  0.00  0.00    +0.000 C 
ATOM     28  O   UNL     1       2.740   4.833  19.935  0.00  0.00    +0.000 OA
ENDBRANCH  21  28
ENDBRANCH  19  25
ENDBRANCH  18  19
ENDBRANCH   1  18
TORSDOF 5
ENDMDL
