MODEL 1
REMARK VINA RESULT:      -8.9      0.000      0.000
REMARK  Name = 
REMARK  9 active torsions:
REMARK  status: ('A' for Active; 'I' for Inactive)
REMARK    1  A    between atoms: C_1  and  C_2
REMARK    2  A    between atoms: C_2  and  C_3
REMARK    3  A    between atoms: C_7  and  C_8
REMARK    4  A    between atoms: C_8  and  C_9
REMARK    5  A    between atoms: C_10  and  N_11
REMARK    6  A    between atoms: N_14  and  C_15
REMARK    7  A    between atoms: C_18  and  C_19
REMARK    8  A    between atoms: C_23  and  C_24
REMARK    9  A    between atoms: C_27  and  C_28
REMARK                            x       y       z     vdW  Elec       q    Type
REMARK                         _______ _______ _______ _____ _____    ______ ____
ROOT
ATOM      1  C   UNL     1       1.507   8.412  20.236  0.00  0.00    +0.000 A 
ATOM      2  C   UNL     1       0.508   8.306  21.207  0.00  0.00    +0.000 A 
ATOM      3  C   UNL     1      -0.408   9.353  21.400  0.00  0.00    +0.000 A 
ATOM      4  C   UNL     1      -0.350  10.510  20.613  0.00  0.00    +0.000 A 
ATOM      5  C   UNL     1       0.700  10.627  19.686  0.00  0.00    +0.000 A 
ATOM      6  C   UNL     1       1.612   9.588  19.494  0.00  0.00    +0.000 A 
ENDROOT
BRANCH   1  10
ATOM      7  N   UNL     1       3.660   5.859  18.799  0.00  0.00    +0.000 N 
ATOM      8  C   UNL     1       2.741   6.903  18.720  0.00  0.00    +0.000 C 
ATOM      9  O   UNL     1       2.290   7.376  17.685  0.00  0.00    +0.000 OA
ATOM     10  N   UNL     1       2.446   7.387  19.993  0.00  0.00    +0.000 N 
ATOM     11  H   UNL     1       4.098   5.737  19.692  0.00  0.00    +0.000 HD
ATOM     12  H   UNL     1       3.213   7.339  20.646  0.00  0.00    +0.000 HD
BRANCH   7  18
ATOM     13  C   UNL     1       3.911   4.052  17.154  0.00  0.00    +0.000 A 
ATOM     14  C   UNL     1       4.582   3.528  16.032  0.00  0.00    +0.000 A 
ATOM     15  C   UNL     1       5.681   4.171  15.484  0.00  0.00    +0.000 A 
ATOM     16  C   UNL     1       6.128   5.356  16.050  0.00  0.00    +0.000 A 
ATOM     17  C   UNL     1       5.480   5.950  17.158  0.00  0.00    +0.000 A 
ATOM     18  C   UNL     1       4.332   5.305  17.686  0.00  0.00    +0.000 A 
BRANCH  13  20
ATOM     19  C   UNL     1       3.170   1.857  18.307  0.00  0.00    +0.000 C 
ATOM     20  C   UNL     1       2.786   3.241  17.781  0.00  0.00    +0.000 C 
ENDBRANCH  13  20
BRANCH  17  21
ATOM     21  C   UNL     1       6.122   7.266  17.568  0.00  0.00    +0.000 C 
ATOM     22  C   UNL     1       7.625   7.476  17.600  0.00  0.00    +0.000 C 
ENDBRANCH  17  21
ENDBRANCH   7  18
ENDBRANCH   1  10
BRANCH   4  23
ATOM     23  C   UNL     1      -1.376  11.559  20.716  0.00  0.00    +0.000 A 
ATOM     24  N   UNL     1      -1.458  12.331  21.810  0.00  0.00    +0.000 NA
ATOM     25  O   UNL     1      -2.486  13.215  21.557  0.00  0.00    +0.000 OA
ATOM     26  N   UNL     1      -3.057  12.997  20.317  0.00  0.00    +0.000 NA
ATOM     27  C   UNL     1      -2.398  11.949  19.801  0.00  0.00    +0.000 A 
BRANCH  27  28
ATOM     28  C   UNL     1      -2.761  11.389  18.495  0.00  0.00    +0.000 A 
ATOM     29  C   UNL     1      -3.949  11.768  17.855  0.00  0.00    +0.000 A 
ATOM     30  C   UNL     1      -4.242  11.301  16.565  0.00  0.00    +0.000 A 
ATOM     31  C   UNL     1      -3.347  10.461  15.895  0.00  0.00    +0.000 A 
ATOM     32  C   UNL     1      -3.617   9.976  14.500  0.00  0.00    +0.000 C 
ATOM     33  C   UNL     1      -2.174  10.063  16.540  0.00  0.00    +0.000 A 
ATOM     34  C   UNL     1      -1.906  10.494  17.839  0.00  0.00    +0.000 A 
ENDBRANCH  27  28
ENDBRANCH   4  23
TORSDOF 6
ENDMDL
MODEL 2
REMARK VINA RESULT:      -8.9      0.707      1.106
REMARK  Name = 
REMARK  9 active torsions:
REMARK  status: ('A' for Active; 'I' for Inactive)
REMARK    1  A    between atoms: C_1  and  C_2
REMARK    2  A    between atoms: C_2  and  C_3
REMARK    3  A    between atoms: C_7  and  C_8
REMARK    4  A    between atoms: C_8  and  C_9
REMARK    5  A    between atoms: C_10  and  N_11
REMARK    6  A    between atoms: N_14  and  C_15
REMARK    7  A    between atoms: C_18  and  C_19
REMARK    8  A    between atoms: C_23  and  C_24
REMARK    9  A    between atoms: C_27  and  C_28
REMARK                            x       y       z     vdW  Elec       q    Type
REMARK                         _______ _______ _______ _____ _____    ______ ____
ROOT
ATOM      1  C   UNL     1       1.915   8.066  19.866  0.00  0.00    +0.000 A 
ATOM      2  C   UNL     1       1.760   9.089  18.927  0.00  0.00    +0.000 A 
ATOM      3  C   UNL     1       0.775  10.073  19.108  0.00  0.00    +0.000 A 
ATOM      4  C   UNL     1      -0.053  10.060  20.238  0.00  0.00    +0.000 A 
ATOM      5  C   UNL     1       0.073   8.988  21.138  0.00  0.00    +0.000 A 
ATOM      6  C   UNL     1       1.051   8.007  20.958  0.00  0.00    +0.000 A 
ENDROOT
BRANCH   1  10
ATOM      7  N   UNL     1       4.280   5.564  18.699  0.00  0.00    +0.000 N 
ATOM      8  C   UNL     1       3.363   6.594  18.511  0.00  0.00    +0.000 C 
ATOM      9  O   UNL     1       3.047   7.075  17.430  0.00  0.00    +0.000 OA
ATOM     10  N   UNL     1       2.894   7.057  19.739  0.00  0.00    +0.000 N 
ATOM     11  H   UNL     1       4.598   5.436  19.640  0.00  0.00    +0.000 HD
ATOM     12  H   UNL     1       3.569   7.012  20.487  0.00  0.00    +0.000 HD
BRANCH   7  18
ATOM     13  C   UNL     1       4.623   3.972  16.858  0.00  0.00    +0.000 A 
ATOM     14  C   UNL     1       5.451   3.473  15.835  0.00  0.00    +0.000 A 
ATOM     15  C   UNL     1       6.742   3.946  15.658  0.00  0.00    +0.000 A 
ATOM     16  C   UNL     1       7.228   4.932  16.504  0.00  0.00    +0.000 A 
ATOM     17  C   UNL     1       6.436   5.496  17.532  0.00  0.00    +0.000 A 
ATOM     18  C   UNL     1       5.103   5.034  17.678  0.00  0.00    +0.000 A 
BRANCH  13  20
ATOM     19  C   UNL     1       3.250   2.033  17.886  0.00  0.00    +0.000 C 
ATOM     20  C   UNL     1       3.259   3.331  17.077  0.00  0.00    +0.000 C 
ENDBRANCH  13  20
BRANCH  17  21
ATOM     21  C   UNL     1       7.167   6.590  18.293  0.00  0.00    +0.000 C 
ATOM     22  C   UNL     1       7.753   7.816  17.614  0.00  0.00    +0.000 C 
ENDBRANCH  17  21
ENDBRANCH   7  18
ENDBRANCH   1  10
BRANCH   4  23
ATOM     23  C   UNL     1      -1.002  11.151  20.505  0.00  0.00    +0.000 A 
ATOM     24  N   UNL     1      -0.939  11.849  21.649  0.00  0.00    +0.000 NA
ATOM     25  O   UNL     1      -1.932  12.801  21.551  0.00  0.00    +0.000 OA
ATOM     26  N   UNL     1      -2.625  12.700  20.360  0.00  0.00    +0.000 NA
ATOM     27  C   UNL     1      -2.079  11.657  19.718  0.00  0.00    +0.000 A 
BRANCH  27  28
ATOM     28  C   UNL     1      -2.590  11.209  18.418  0.00  0.00    +0.000 A 
ATOM     29  C   UNL     1      -3.809  11.691  17.920  0.00  0.00    +0.000 A 
ATOM     30  C   UNL     1      -4.245  11.332  16.637  0.00  0.00    +0.000 A 
ATOM     31  C   UNL     1      -3.464  10.496  15.831  0.00  0.00    +0.000 A 
ATOM     32  C   UNL     1      -3.888  10.125  14.440  0.00  0.00    +0.000 C 
ATOM     33  C   UNL     1      -2.261   9.996  16.334  0.00  0.00    +0.000 A 
ATOM     34  C   UNL     1      -1.851  10.321  17.627  0.00  0.00    +0.000 A 
ENDBRANCH  27  28
ENDBRANCH   4  23
TORSDOF 6
ENDMDL
MODEL 3
REMARK VINA RESULT:      -8.8      6.457     10.101
REMARK  Name = 
REMARK  9 active torsions:
REMARK  status: ('A' for Active; 'I' for Inactive)
REMARK    1  A    between atoms: C_1  and  C_2
REMARK    2  A    between atoms: C_2  and  C_3
REMARK    3  A    between atoms: C_7  and  C_8
REMARK    4  A    between atoms: C_8  and  C_9
REMARK    5  A    between atoms: C_10  and  N_11
REMARK    6  A    between atoms: N_14  and  C_15
REMARK    7  A    between atoms: C_18  and  C_19
REMARK    8  A    between atoms: C_23  and  C_24
REMARK    9  A    between atoms: C_27  and  C_28
REMARK                            x       y       z     vdW  Elec       q    Type
REMARK                         _______ _______ _______ _____ _____    ______ ____
ROOT
ATOM      1  C   UNL     1       8.337   7.772  18.743  0.00  0.00    +0.000 A 
ATOM      2  C   UNL     1       8.161   6.409  18.992  0.00  0.00    +0.000 A 
ATOM      3  C   UNL     1       7.490   5.600  18.061  0.00  0.00    +0.000 A 
ATOM      4  C   UNL     1       7.004   6.139  16.862  0.00  0.00    +0.000 A 
ATOM      5  C   UNL     1       7.133   7.523  16.658  0.00  0.00    +0.000 A 
ATOM      6  C   UNL     1       7.799   8.329  17.585  0.00  0.00    +0.000 A 
ENDROOT
BRANCH   1  10
ATOM      7  N   UNL     1       9.899  10.573  20.458  0.00  0.00    +0.000 N 
ATOM      8  C   UNL     1       9.137  10.003  19.441  0.00  0.00    +0.000 C 
ATOM      9  O   UNL     1       8.598  10.615  18.529  0.00  0.00    +0.000 OA
ATOM     10  N   UNL     1       9.013   8.629  19.640  0.00  0.00    +0.000 N 
ATOM     11  H   UNL     1      10.080   9.980  21.245  0.00  0.00    +0.000 HD
ATOM     12  H   UNL     1       8.990   8.347  20.608  0.00  0.00    +0.000 HD
BRANCH   7  18
ATOM     13  C   UNL     1      11.024  12.705  19.983  0.00  0.00    +0.000 A 
ATOM     14  C   UNL     1      11.118  14.093  20.198  0.00  0.00    +0.000 A 
ATOM     15  C   UNL     1      10.303  14.735  21.118  0.00  0.00    +0.000 A 
ATOM     16  C   UNL     1       9.377  13.997  21.839  0.00  0.00    +0.000 A 
ATOM     17  C   UNL     1       9.213  12.604  21.647  0.00  0.00    +0.000 A 
ATOM     18  C   UNL     1      10.022  11.964  20.675  0.00  0.00    +0.000 A 
BRANCH  13  20
ATOM     19  C   UNL     1      11.717  12.145  17.553  0.00  0.00    +0.000 C 
ATOM     20  C   UNL     1      12.024  12.039  19.048  0.00  0.00    +0.000 C 
ENDBRANCH  13  20
BRANCH  17  21
ATOM     21  C   UNL     1       8.105  12.026  22.514  0.00  0.00    +0.000 C 
ATOM     22  C   UNL     1       6.931  12.852  23.011  0.00  0.00    +0.000 C 
ENDBRANCH  17  21
ENDBRANCH   7  18
ENDBRANCH   1  10
BRANCH   4  23
ATOM     23  C   UNL     1       6.412   5.283  15.823  0.00  0.00    +0.000 A 
ATOM     24  N   UNL     1       6.987   5.174  14.615  0.00  0.00    +0.000 NA
ATOM     25  O   UNL     1       6.204   4.279  13.917  0.00  0.00    +0.000 OA
ATOM     26  N   UNL     1       5.136   3.832  14.673  0.00  0.00    +0.000 NA
ATOM     27  C   UNL     1       5.236   4.476  15.845  0.00  0.00    +0.000 A 
BRANCH  27  28
ATOM     28  C   UNL     1       4.238   4.291  16.903  0.00  0.00    +0.000 A 
ATOM     29  C   UNL     1       3.556   5.388  17.448  0.00  0.00    +0.000 A 
ATOM     30  C   UNL     1       2.536   5.194  18.391  0.00  0.00    +0.000 A 
ATOM     31  C   UNL     1       2.177   3.904  18.792  0.00  0.00    +0.000 A 
ATOM     32  C   UNL     1       1.064   3.665  19.771  0.00  0.00    +0.000 C 
ATOM     33  C   UNL     1       2.870   2.811  18.268  0.00  0.00    +0.000 A 
ATOM     34  C   UNL     1       3.913   3.008  17.363  0.00  0.00    +0.000 A 
ENDBRANCH  27  28
ENDBRANCH   4  23
TORSDOF 6
ENDMDL
MODEL 4
REMARK VINA RESULT:      -8.8      5.105      9.347
REMARK  Name = 
REMARK  9 active torsions:
REMARK  status: ('A' for Active; 'I' for Inactive)
REMARK    1  A    between atoms: C_1  and  C_2
REMARK    2  A    between atoms: C_2  and  C_3
REMARK    3  A    between atoms: C_7  and  C_8
REMARK    4  A    between atoms: C_8  and  C_9
REMARK    5  A    between atoms: C_10  and  N_11
REMARK    6  A    between atoms: N_14  and  C_15
REMARK    7  A    between atoms: C_18  and  C_19
REMARK    8  A    between atoms: C_23  and  C_24
REMARK    9  A    between atoms: C_27  and  C_28
REMARK                            x       y       z     vdW  Elec       q    Type
REMARK                         _______ _______ _______ _____ _____    ______ ____
ROOT
ATOM      1  C   UNL     1       8.173   7.775  18.556  0.00  0.00    +0.000 A 
ATOM      2  C   UNL     1       7.310   8.108  17.509  0.00  0.00    +0.000 A 
ATOM      3  C   UNL     1       6.391   7.165  17.021  0.00  0.00    +0.000 A 
ATOM      4  C   UNL     1       6.308   5.886  17.587  0.00  0.00    +0.000 A 
ATOM      5  C   UNL     1       7.226   5.547  18.594  0.00  0.00    +0.000 A 
ATOM      6  C   UNL     1       8.142   6.483  19.079  0.00  0.00    +0.000 A 
ENDROOT
BRANCH   1  10
ATOM      7  N   UNL     1      10.117  10.699  19.500  0.00  0.00    +0.000 N 
ATOM      8  C   UNL     1       9.028  10.065  18.906  0.00  0.00    +0.000 C 
ATOM      9  O   UNL     1       8.097  10.629  18.346  0.00  0.00    +0.000 OA
ATOM     10  N   UNL     1       9.108   8.686  19.091  0.00  0.00    +0.000 N 
ATOM     11  H   UNL     1      10.672  10.125  20.105  0.00  0.00    +0.000 HD
ATOM     12  H   UNL     1       9.538   8.407  19.960  0.00  0.00    +0.000 HD
BRANCH   7  18
ATOM     13  C   UNL     1       9.707  12.693  20.876  0.00  0.00    +0.000 A 
ATOM     14  C   UNL     1       9.837  14.084  21.051  0.00  0.00    +0.000 A 
ATOM     15  C   UNL     1      10.387  14.886  20.063  0.00  0.00    +0.000 A 
ATOM     16  C   UNL     1      10.820  14.308  18.880  0.00  0.00    +0.000 A 
ATOM     17  C   UNL     1      10.746  12.913  18.654  0.00  0.00    +0.000 A 
ATOM     18  C   UNL     1      10.219  12.096  19.687  0.00  0.00    +0.000 A 
BRANCH  13  20
ATOM     19  C   UNL     1       8.444  12.677  23.135  0.00  0.00    +0.000 C 
ATOM     20  C   UNL     1       8.988  11.883  21.946  0.00  0.00    +0.000 C 
ENDBRANCH  13  20
BRANCH  17  21
ATOM     21  C   UNL     1      11.326  12.511  17.308  0.00  0.00    +0.000 C 
ATOM     22  C   UNL     1      12.332  13.365  16.556  0.00  0.00    +0.000 C 
ENDBRANCH  17  21
ENDBRANCH   7  18
ENDBRANCH   1  10
BRANCH   4  23
ATOM     23  C   UNL     1       5.268   4.932  17.173  0.00  0.00    +0.000 A 
ATOM     24  N   UNL     1       5.543   3.958  16.292  0.00  0.00    +0.000 NA
ATOM     25  O   UNL     1       4.372   3.239  16.165  0.00  0.00    +0.000 OA
ATOM     26  N   UNL     1       3.362   3.761  16.951  0.00  0.00    +0.000 NA
ATOM     27  C   UNL     1       3.897   4.832  17.554  0.00  0.00    +0.000 A 
BRANCH  27  28
ATOM     28  C   UNL     1       3.100   5.683  18.444  0.00  0.00    +0.000 A 
ATOM     29  C   UNL     1       2.605   5.187  19.659  0.00  0.00    +0.000 A 
ATOM     30  C   UNL     1       1.926   6.033  20.548  0.00  0.00    +0.000 A 
ATOM     31  C   UNL     1       1.742   7.385  20.240  0.00  0.00    +0.000 A 
ATOM     32  C   UNL     1       1.052   8.320  21.189  0.00  0.00    +0.000 C 
ATOM     33  C   UNL     1       2.214   7.875  19.020  0.00  0.00    +0.000 A 
ATOM     34  C   UNL     1       2.851   7.022  18.119  0.00  0.00    +0.000 A 
ENDBRANCH  27  28
ENDBRANCH   4  23
TORSDOF 6
ENDMDL
MODEL 5
REMARK VINA RESULT:      -8.8      2.133      9.675
REMARK  Name = 
REMARK  9 active torsions:
REMARK  status: ('A' for Active; 'I' for Inactive)
REMARK    1  A    between atoms: C_1  and  C_2
REMARK    2  A    between atoms: C_2  and  C_3
REMARK    3  A    between atoms: C_7  and  C_8
REMARK    4  A    between atoms: C_8  and  C_9
REMARK    5  A    between atoms: C_10  and  N_11
REMARK    6  A    between atoms: N_14  and  C_15
REMARK    7  A    between atoms: C_18  and  C_19
REMARK    8  A    between atoms: C_23  and  C_24
REMARK    9  A    between atoms: C_27  and  C_28
REMARK                            x       y       z     vdW  Elec       q    Type
REMARK                         _______ _______ _______ _____ _____    ______ ____
ROOT
ATOM      1  C   UNL     1       1.636   8.468  19.313  0.00  0.00    +0.000 A 
ATOM      2  C   UNL     1       2.275   7.860  18.230  0.00  0.00    +0.000 A 
ATOM      3  C   UNL     1       2.855   6.589  18.372  0.00  0.00    +0.000 A 
ATOM      4  C   UNL     1       2.786   5.902  19.592  0.00  0.00    +0.000 A 
ATOM      5  C   UNL     1       2.197   6.556  20.687  0.00  0.00    +0.000 A 
ATOM      6  C   UNL     1       1.622   7.821  20.547  0.00  0.00    +0.000 A 
ENDROOT
BRANCH   1  10
ATOM      7  N   UNL     1      -0.638  11.305  19.288  0.00  0.00    +0.000 N 
ATOM      8  C   UNL     1      -0.313   9.972  19.522  0.00  0.00    +0.000 C 
ATOM      9  O   UNL     1      -1.069   9.126  19.981  0.00  0.00    +0.000 OA
ATOM     10  N   UNL     1       1.028   9.739  19.222  0.00  0.00    +0.000 N 
ATOM     11  H   UNL     1       0.138  11.917  19.127  0.00  0.00    +0.000 HD
ATOM     12  H   UNL     1       1.637  10.524  19.398  0.00  0.00    +0.000 HD
BRANCH   7  18
ATOM     13  C   UNL     1      -1.951  12.464  21.011  0.00  0.00    +0.000 A 
ATOM     14  C   UNL     1      -3.155  13.083  21.396  0.00  0.00    +0.000 A 
ATOM     15  C   UNL     1      -4.255  13.105  20.552  0.00  0.00    +0.000 A 
ATOM     16  C   UNL     1      -4.168  12.507  19.304  0.00  0.00    +0.000 A 
ATOM     17  C   UNL     1      -2.977  11.895  18.847  0.00  0.00    +0.000 A 
ATOM     18  C   UNL     1      -1.845  11.914  19.701  0.00  0.00    +0.000 A 
BRANCH  13  20
ATOM     19  C   UNL     1      -0.871  11.174  22.978  0.00  0.00    +0.000 C 
ATOM     20  C   UNL     1      -0.819  12.369  22.025  0.00  0.00    +0.000 C 
ENDBRANCH  13  20
BRANCH  17  21
ATOM     21  C   UNL     1      -3.110  11.354  17.432  0.00  0.00    +0.000 C 
ATOM     22  C   UNL     1      -3.170   9.869  17.119  0.00  0.00    +0.000 C 
ENDBRANCH  17  21
ENDBRANCH   7  18
ENDBRANCH   1  10
BRANCH   4  23
ATOM     23  C   UNL     1       3.276   4.522  19.722  0.00  0.00    +0.000 A 
ATOM     24  N   UNL     1       2.851   3.735  20.722  0.00  0.00    +0.000 NA
ATOM     25  O   UNL     1       3.471   2.520  20.521  0.00  0.00    +0.000 OA
ATOM     26  N   UNL     1       4.290   2.540  19.407  0.00  0.00    +0.000 NA
ATOM     27  C   UNL     1       4.203   3.788  18.924  0.00  0.00    +0.000 A 
BRANCH  27  28
ATOM     28  C   UNL     1       4.982   4.208  17.754  0.00  0.00    +0.000 A 
ATOM     29  C   UNL     1       6.268   4.745  17.901  0.00  0.00    +0.000 A 
ATOM     30  C   UNL     1       7.043   5.056  16.774  0.00  0.00    +0.000 A 
ATOM     31  C   UNL     1       6.547   4.822  15.487  0.00  0.00    +0.000 A 
ATOM     32  C   UNL     1       7.368   5.111  14.264  0.00  0.00    +0.000 C 
ATOM     33  C   UNL     1       5.257   4.309  15.338  0.00  0.00    +0.000 A 
ATOM     34  C   UNL     1       4.472   4.042  16.460  0.00  0.00    +0.000 A 
ENDBRANCH  27  28
ENDBRANCH   4  23
TORSDOF 6
ENDMDL
MODEL 6
REMARK VINA RESULT:      -8.8      3.046      9.386
REMARK  Name = 
REMARK  9 active torsions:
REMARK  status: ('A' for Active; 'I' for Inactive)
REMARK    1  A    between atoms: C_1  and  C_2
REMARK    2  A    between atoms: C_2  and  C_3
REMARK    3  A    between atoms: C_7  and  C_8
REMARK    4  A    between atoms: C_8  and  C_9
REMARK    5  A    between atoms: C_10  and  N_11
REMARK    6  A    between atoms: N_14  and  C_15
REMARK    7  A    between atoms: C_18  and  C_19
REMARK    8  A    between atoms: C_23  and  C_24
REMARK    9  A    between atoms: C_27  and  C_28
REMARK                            x       y       z     vdW  Elec       q    Type
REMARK                         _______ _______ _______ _____ _____    ______ ____
ROOT
ATOM      1  C   UNL     1       1.675   9.038  18.642  0.00  0.00    +0.000 A 
ATOM      2  C   UNL     1       2.435   8.197  17.826  0.00  0.00    +0.000 A 
ATOM      3  C   UNL     1       2.834   6.932  18.287  0.00  0.00    +0.000 A 
ATOM      4  C   UNL     1       2.460   6.484  19.561  0.00  0.00    +0.000 A 
ATOM      5  C   UNL     1       1.751   7.367  20.391  0.00  0.00    +0.000 A 
ATOM      6  C   UNL     1       1.356   8.627  19.934  0.00  0.00    +0.000 A 
ENDROOT
BRANCH   1  10
ATOM      7  N   UNL     1       0.546  12.486  18.410  0.00  0.00    +0.000 N 
ATOM      8  C   UNL     1       1.023  11.375  19.101  0.00  0.00    +0.000 C 
ATOM      9  O   UNL     1       1.275  11.338  20.299  0.00  0.00    +0.000 OA
ATOM     10  N   UNL     1       1.240  10.314  18.224  0.00  0.00    +0.000 N 
ATOM     11  H   UNL     1       0.603  12.430  17.412  0.00  0.00    +0.000 HD
ATOM     12  H   UNL     1       1.533  10.591  17.299  0.00  0.00    +0.000 HD
BRANCH   7  18
ATOM     13  C   UNL     1      -0.741  14.162  19.664  0.00  0.00    +0.000 A 
ATOM     14  C   UNL     1      -0.817  15.451  20.225  0.00  0.00    +0.000 A 
ATOM     15  C   UNL     1       0.202  16.375  20.049  0.00  0.00    +0.000 A 
ATOM     16  C   UNL     1       1.319  16.022  19.307  0.00  0.00    +0.000 A 
ATOM     17  C   UNL     1       1.470  14.733  18.743  0.00  0.00    +0.000 A 
ATOM     18  C   UNL     1       0.441  13.783  18.964  0.00  0.00    +0.000 A 
BRANCH  13  20
ATOM     19  C   UNL     1      -2.327  12.831  21.217  0.00  0.00    +0.000 C 
ATOM     20  C   UNL     1      -1.941  13.234  19.793  0.00  0.00    +0.000 C 
ENDBRANCH  13  20
BRANCH  17  21
ATOM     21  C   UNL     1       2.797  14.569  18.019  0.00  0.00    +0.000 C 
ATOM     22  C   UNL     1       3.530  15.728  17.368  0.00  0.00    +0.000 C 
ENDBRANCH  17  21
ENDBRANCH   7  18
ENDBRANCH   1  10
BRANCH   4  23
ATOM     23  C   UNL     1       2.761   5.116  20.010  0.00  0.00    +0.000 A 
ATOM     24  N   UNL     1       2.176   4.611  21.106  0.00  0.00    +0.000 NA
ATOM     25  O   UNL     1       2.648   3.318  21.210  0.00  0.00    +0.000 OA
ATOM     26  N   UNL     1       3.532   3.012  20.194  0.00  0.00    +0.000 NA
ATOM     27  C   UNL     1       3.637   4.132  19.463  0.00  0.00    +0.000 A 
BRANCH  27  28
ATOM     28  C   UNL     1       4.536   4.206  18.307  0.00  0.00    +0.000 A 
ATOM     29  C   UNL     1       4.088   3.862  17.024  0.00  0.00    +0.000 A 
ATOM     30  C   UNL     1       4.925   4.026  15.911  0.00  0.00    +0.000 A 
ATOM     31  C   UNL     1       6.214   4.547  16.063  0.00  0.00    +0.000 A 
ATOM     32  C   UNL     1       7.117   4.768  14.885  0.00  0.00    +0.000 C 
ATOM     33  C   UNL     1       6.670   4.869  17.343  0.00  0.00    +0.000 A 
ATOM     34  C   UNL     1       5.852   4.665  18.454  0.00  0.00    +0.000 A 
ENDBRANCH  27  28
ENDBRANCH   4  23
TORSDOF 6
ENDMDL
MODEL 7
REMARK VINA RESULT:      -8.7      6.405      9.974
REMARK  Name = 
REMARK  9 active torsions:
REMARK  status: ('A' for Active; 'I' for Inactive)
REMARK    1  A    between atoms: C_1  and  C_2
REMARK    2  A    between atoms: C_2  and  C_3
REMARK    3  A    between atoms: C_7  and  C_8
REMARK    4  A    between atoms: C_8  and  C_9
REMARK    5  A    between atoms: C_10  and  N_11
REMARK    6  A    between atoms: N_14  and  C_15
REMARK    7  A    between atoms: C_18  and  C_19
REMARK    8  A    between atoms: C_23  and  C_24
REMARK    9  A    between atoms: C_27  and  C_28
REMARK                            x       y       z     vdW  Elec       q    Type
REMARK                         _______ _______ _______ _____ _____    ______ ____
ROOT
ATOM      1  C   UNL     1       8.404   7.903  18.786  0.00  0.00    +0.000 A 
ATOM      2  C   UNL     1       8.228   6.541  19.043  0.00  0.00    +0.000 A 
ATOM      3  C   UNL     1       7.549   5.727  18.121  0.00  0.00    +0.000 A 
ATOM      4  C   UNL     1       7.056   6.260  16.923  0.00  0.00    +0.000 A 
ATOM      5  C   UNL     1       7.186   7.642  16.710  0.00  0.00    +0.000 A 
ATOM      6  C   UNL     1       7.859   8.453  17.627  0.00  0.00    +0.000 A 
ENDROOT
BRANCH   1  10
ATOM      7  N   UNL     1       9.966  10.714  20.482  0.00  0.00    +0.000 N 
ATOM      8  C   UNL     1       9.191  10.139  19.477  0.00  0.00    +0.000 C 
ATOM      9  O   UNL     1       8.629  10.749  18.577  0.00  0.00    +0.000 OA
ATOM     10  N   UNL     1       9.087   8.763  19.672  0.00  0.00    +0.000 N 
ATOM     11  H   UNL     1      10.169  10.120  21.263  0.00  0.00    +0.000 HD
ATOM     12  H   UNL     1       9.085   8.478  20.640  0.00  0.00    +0.000 HD
BRANCH   7  18
ATOM     13  C   UNL     1       9.231  12.745  21.652  0.00  0.00    +0.000 A 
ATOM     14  C   UNL     1       9.373  14.129  21.870  0.00  0.00    +0.000 A 
ATOM     15  C   UNL     1      10.268  14.886  21.131  0.00  0.00    +0.000 A 
ATOM     16  C   UNL     1      11.041  14.270  20.158  0.00  0.00    +0.000 A 
ATOM     17  C   UNL     1      10.967  12.878  19.911  0.00  0.00    +0.000 A 
ATOM     18  C   UNL     1      10.078  12.106  20.701  0.00  0.00    +0.000 A 
BRANCH  13  20
ATOM     19  C   UNL     1       8.317  11.930  23.932  0.00  0.00    +0.000 C 
ATOM     20  C   UNL     1       8.150  11.990  22.413  0.00  0.00    +0.000 C 
ENDBRANCH  13  20
BRANCH  17  21
ATOM     21  C   UNL     1      11.943  12.427  18.836  0.00  0.00    +0.000 C 
ATOM     22  C   UNL     1      11.562  12.318  17.370  0.00  0.00    +0.000 C 
ENDBRANCH  17  21
ENDBRANCH   7  18
ENDBRANCH   1  10
BRANCH   4  23
ATOM     23  C   UNL     1       6.456   5.399  15.892  0.00  0.00    +0.000 A 
ATOM     24  N   UNL     1       7.033   5.267  14.688  0.00  0.00    +0.000 NA
ATOM     25  O   UNL     1       6.240   4.374  13.998  0.00  0.00    +0.000 OA
ATOM     26  N   UNL     1       5.165   3.951  14.757  0.00  0.00    +0.000 NA
ATOM     27  C   UNL     1       5.270   4.607  15.921  0.00  0.00    +0.000 A 
BRANCH  27  28
ATOM     28  C   UNL     1       4.266   4.449  16.978  0.00  0.00    +0.000 A 
ATOM     29  C   UNL     1       3.652   5.566  17.561  0.00  0.00    +0.000 A 
ATOM     30  C   UNL     1       2.626   5.404  18.503  0.00  0.00    +0.000 A 
ATOM     31  C   UNL     1       2.192   4.125  18.866  0.00  0.00    +0.000 A 
ATOM     32  C   UNL     1       1.071   3.922  19.843  0.00  0.00    +0.000 C 
ATOM     33  C   UNL     1       2.818   3.010  18.304  0.00  0.00    +0.000 A 
ATOM     34  C   UNL     1       3.867   3.174  17.400  0.00  0.00    +0.000 A 
ENDBRANCH  27  28
ENDBRANCH   4  23
TORSDOF 6
ENDMDL
MODEL 8
REMARK VINA RESULT:      -8.7      3.038      9.584
REMARK  Name = 
REMARK  9 active torsions:
REMARK  status: ('A' for Active; 'I' for Inactive)
REMARK    1  A    between atoms: C_1  and  C_2
REMARK    2  A    between atoms: C_2  and  C_3
REMARK    3  A    between atoms: C_7  and  C_8
REMARK    4  A    between atoms: C_8  and  C_9
REMARK    5  A    between atoms: C_10  and  N_11
REMARK    6  A    between atoms: N_14  and  C_15
REMARK    7  A    between atoms: C_18  and  C_19
REMARK    8  A    between atoms: C_23  and  C_24
REMARK    9  A    between atoms: C_27  and  C_28
REMARK                            x       y       z     vdW  Elec       q    Type
REMARK                         _______ _______ _______ _____ _____    ______ ____
ROOT
ATOM      1  C   UNL     1       1.723   9.075  18.560  0.00  0.00    +0.000 A 
ATOM      2  C   UNL     1       2.534   8.254  17.774  0.00  0.00    +0.000 A 
ATOM      3  C   UNL     1       2.931   6.991  18.244  0.00  0.00    +0.000 A 
ATOM      4  C   UNL     1       2.505   6.525  19.494  0.00  0.00    +0.000 A 
ATOM      5  C   UNL     1       1.743   7.390  20.298  0.00  0.00    +0.000 A 
ATOM      6  C   UNL     1       1.350   8.647  19.833  0.00  0.00    +0.000 A 
ENDROOT
BRANCH   1  10
ATOM      7  N   UNL     1       0.602  12.525  18.304  0.00  0.00    +0.000 N 
ATOM      8  C   UNL     1       1.082  11.419  19.002  0.00  0.00    +0.000 C 
ATOM      9  O   UNL     1       1.345  11.393  20.197  0.00  0.00    +0.000 OA
ATOM     10  N   UNL     1       1.288  10.349  18.134  0.00  0.00    +0.000 N 
ATOM     11  H   UNL     1       0.649  12.458  17.306  0.00  0.00    +0.000 HD
ATOM     12  H   UNL     1       1.572  10.615  17.204  0.00  0.00    +0.000 HD
BRANCH   7  18
ATOM     13  C   UNL     1       1.587  14.741  18.693  0.00  0.00    +0.000 A 
ATOM     14  C   UNL     1       1.463  16.040  19.222  0.00  0.00    +0.000 A 
ATOM     15  C   UNL     1       0.342  16.418  19.945  0.00  0.00    +0.000 A 
ATOM     16  C   UNL     1      -0.678  15.502  20.149  0.00  0.00    +0.000 A 
ATOM     17  C   UNL     1      -0.627  14.191  19.617  0.00  0.00    +0.000 A 
ATOM     18  C   UNL     1       0.505  13.827  18.845  0.00  0.00    +0.000 A 
BRANCH  13  20
ATOM     19  C   UNL     1       4.054  15.330  18.173  0.00  0.00    +0.000 C 
ATOM     20  C   UNL     1       2.891  14.349  18.011  0.00  0.00    +0.000 C 
ENDBRANCH  13  20
BRANCH  17  21
ATOM     21  C   UNL     1      -1.880  13.389  19.931  0.00  0.00    +0.000 C 
ATOM     22  C   UNL     1      -1.958  12.395  21.076  0.00  0.00    +0.000 C 
ENDBRANCH  17  21
ENDBRANCH   7  18
ENDBRANCH   1  10
BRANCH   4  23
ATOM     23  C   UNL     1       2.806   5.158  19.945  0.00  0.00    +0.000 A 
ATOM     24  N   UNL     1       2.225   4.656  21.045  0.00  0.00    +0.000 NA
ATOM     25  O   UNL     1       2.696   3.364  21.150  0.00  0.00    +0.000 OA
ATOM     26  N   UNL     1       3.576   3.054  20.130  0.00  0.00    +0.000 NA
ATOM     27  C   UNL     1       3.679   4.172  19.397  0.00  0.00    +0.000 A 
BRANCH  27  28
ATOM     28  C   UNL     1       4.574   4.243  18.237  0.00  0.00    +0.000 A 
ATOM     29  C   UNL     1       4.113   3.921  16.953  0.00  0.00    +0.000 A 
ATOM     30  C   UNL     1       4.947   4.082  15.837  0.00  0.00    +0.000 A 
ATOM     31  C   UNL     1       6.246   4.578  15.989  0.00  0.00    +0.000 A 
ATOM     32  C   UNL     1       7.148   4.796  14.808  0.00  0.00    +0.000 C 
ATOM     33  C   UNL     1       6.715   4.878  17.270  0.00  0.00    +0.000 A 
ATOM     34  C   UNL     1       5.898   4.675  18.382  0.00  0.00    +0.000 A 
ENDBRANCH  27  28
ENDBRANCH   4  23
TORSDOF 6
ENDMDL
MODEL 9
REMARK VINA RESULT:      -8.6      6.322     10.100
REMARK  Name = 
REMARK  9 active torsions:
REMARK  status: ('A' for Active; 'I' for Inactive)
REMARK    1  A    between atoms: C_1  and  C_2
REMARK    2  A    between atoms: C_2  and  C_3
REMARK    3  A    between atoms: C_7  and  C_8
REMARK    4  A    between atoms: C_8  and  C_9
REMARK    5  A    between atoms: C_10  and  N_11
REMARK    6  A    between atoms: N_14  and  C_15
REMARK    7  A    between atoms: C_18  and  C_19
REMARK    8  A    between atoms: C_23  and  C_24
REMARK    9  A    between atoms: C_27  and  C_28
REMARK                            x       y       z     vdW  Elec       q    Type
REMARK                         _______ _______ _______ _____ _____    ______ ____
ROOT
ATOM      1  C   UNL     1       8.354   7.871  18.618  0.00  0.00    +0.000 A 
ATOM      2  C   UNL     1       8.208   6.531  18.984  0.00  0.00    +0.000 A 
ATOM      3  C   UNL     1       7.511   5.641  18.151  0.00  0.00    +0.000 A 
ATOM      4  C   UNL     1       6.968   6.074  16.934  0.00  0.00    +0.000 A 
ATOM      5  C   UNL     1       7.069   7.438  16.613  0.00  0.00    +0.000 A 
ATOM      6  C   UNL     1       7.760   8.324  17.442  0.00  0.00    +0.000 A 
ENDROOT
BRANCH   1  10
ATOM      7  N   UNL     1       9.928  10.823  20.041  0.00  0.00    +0.000 N 
ATOM      8  C   UNL     1       9.129  10.164  19.111  0.00  0.00    +0.000 C 
ATOM      9  O   UNL     1       8.525  10.696  18.189  0.00  0.00    +0.000 OA
ATOM     10  N   UNL     1       9.053   8.805  19.413  0.00  0.00    +0.000 N 
ATOM     11  H   UNL     1      10.168  10.293  20.857  0.00  0.00    +0.000 HD
ATOM     12  H   UNL     1       9.090   8.594  20.399  0.00  0.00    +0.000 HD
BRANCH   7  18
ATOM     13  C   UNL     1      10.799  12.964  19.207  0.00  0.00    +0.000 A 
ATOM     14  C   UNL     1      10.866  14.365  19.323  0.00  0.00    +0.000 A 
ATOM     15  C   UNL     1      10.256  15.031  20.375  0.00  0.00    +0.000 A 
ATOM     16  C   UNL     1       9.563  14.303  21.331  0.00  0.00    +0.000 A 
ATOM     17  C   UNL     1       9.433  12.896  21.254  0.00  0.00    +0.000 A 
ATOM     18  C   UNL     1      10.026  12.229  20.152  0.00  0.00    +0.000 A 
BRANCH  13  20
ATOM     19  C   UNL     1      11.843  13.120  16.843  0.00  0.00    +0.000 C 
ATOM     20  C   UNL     1      11.587  12.281  18.097  0.00  0.00    +0.000 C 
ENDBRANCH  13  20
BRANCH  17  21
ATOM     21  C   UNL     1       8.590  12.329  22.385  0.00  0.00    +0.000 C 
ATOM     22  C   UNL     1       7.214  12.868  22.738  0.00  0.00    +0.000 C 
ENDBRANCH  17  21
ENDBRANCH   7  18
ENDBRANCH   1  10
BRANCH   4  23
ATOM     23  C   UNL     1       6.347   5.130  15.993  0.00  0.00    +0.000 A 
ATOM     24  N   UNL     1       6.943   4.828  14.830  0.00  0.00    +0.000 NA
ATOM     25  O   UNL     1       6.120   3.901  14.226  0.00  0.00    +0.000 OA
ATOM     26  N   UNL     1       5.005   3.626  14.996  0.00  0.00    +0.000 NA
ATOM     27  C   UNL     1       5.118   4.409  16.079  0.00  0.00    +0.000 A 
BRANCH  27  28
ATOM     28  C   UNL     1       4.083   4.428  17.117  0.00  0.00    +0.000 A 
ATOM     29  C   UNL     1       3.570   3.234  17.643  0.00  0.00    +0.000 A 
ATOM     30  C   UNL     1       2.650   3.260  18.701  0.00  0.00    +0.000 A 
ATOM     31  C   UNL     1       2.240   4.478  19.255  0.00  0.00    +0.000 A 
ATOM     32  C   UNL     1       1.286   4.534  20.412  0.00  0.00    +0.000 C 
ATOM     33  C   UNL     1       2.733   5.669  18.717  0.00  0.00    +0.000 A 
ATOM     34  C   UNL     1       3.614   5.642  17.637  0.00  0.00    +0.000 A 
ENDBRANCH  27  28
ENDBRANCH   4  23
TORSDOF 6
ENDMDL
