MODEL 1
REMARK VINA RESULT:      -7.6      0.000      0.000
REMARK  Name = 
REMARK  8 active torsions:
REMARK  status: ('A' for Active; 'I' for Inactive)
REMARK    1  A    between atoms: C_1  and  C_2
REMARK    2  A    between atoms: C_6  and  C_7
REMARK    3  A    between atoms: N_9  and  C_10
REMARK    4  A    between atoms: N_9  and  C_17
REMARK    5  A    between atoms: C_10  and  C_11
REMARK    6  A    between atoms: C_14  and  C_15
REMARK    7  A    between atoms: C_17  and  C_18
REMARK    8  A    between atoms: C_17  and  C_19
REMARK                            x       y       z     vdW  Elec       q    Type
REMARK                         _______ _______ _______ _____ _____    ______ ____
ROOT
ATOM      1  C   UNL     1       4.795   5.192  17.695  0.00  0.00    +0.000 C 
ATOM      2  O   UNL     1       4.302   4.173  17.197  0.00  0.00    +0.000 OA
ATOM      3  N   UNL     1       6.193   5.400  17.647  0.00  0.00    +0.000 N 
ENDROOT
BRANCH   1   9
ATOM      4  C   UNL     1       1.863   9.359  17.684  0.00  0.00    +0.000 C 
ATOM      5  C   UNL     1       2.391   8.162  18.413  0.00  0.00    +0.000 A 
ATOM      6  C   UNL     1       1.862   7.692  19.595  0.00  0.00    +0.000 A 
ATOM      7  N   UNL     1       2.272   6.546  20.182  0.00  0.00    +0.000 NA
ATOM      8  C   UNL     1       3.215   5.808  19.522  0.00  0.00    +0.000 A 
ATOM      9  C   UNL     1       3.804   6.158  18.308  0.00  0.00    +0.000 A 
ATOM     10  C   UNL     1       3.396   7.398  17.810  0.00  0.00    +0.000 A 
ENDBRANCH   1   9
BRANCH   3  11
ATOM     11  C   UNL     1       6.923   6.482  18.334  0.00  0.00    +0.000 C 
ATOM     12  C   UNL     1       7.998   5.879  19.253  0.00  0.00    +0.000 C 
ATOM     13  C   UNL     1       7.564   7.590  17.496  0.00  0.00    +0.000 C 
ENDBRANCH   3  11
BRANCH   3  14
ATOM     14  C   UNL     1       6.997   4.322  17.024  0.00  0.00    +0.000 C 
BRANCH  14  15
ATOM     15  C   UNL     1       6.980   4.377  15.526  0.00  0.00    +0.000 A 
ATOM     16  N   UNL     1       7.558   5.390  14.860  0.00  0.00    +0.000 NA
ATOM     17  O   UNL     1       7.183   5.167  13.536  0.00  0.00    +0.000 OA
ATOM     18  C   UNL     1       6.414   4.042  13.535  0.00  0.00    +0.000 A 
ATOM     19  C   UNL     1       5.796   3.659  12.253  0.00  0.00    +0.000 C 
ATOM     20  N   UNL     1       6.272   3.504  14.726  0.00  0.00    +0.000 NA
ENDBRANCH  14  15
ENDBRANCH   3  14
TORSDOF 4
ENDMDL
MODEL 2
REMARK VINA RESULT:      -7.3      0.771      1.107
REMARK  Name = 
REMARK  8 active torsions:
REMARK  status: ('A' for Active; 'I' for Inactive)
REMARK    1  A    between atoms: C_1  and  C_2
REMARK    2  A    between atoms: C_6  and  C_7
REMARK    3  A    between atoms: N_9  and  C_10
REMARK    4  A    between atoms: N_9  and  C_17
REMARK    5  A    between atoms: C_10  and  C_11
REMARK    6  A    between atoms: C_14  and  C_15
REMARK    7  A    between atoms: C_17  and  C_18
REMARK    8  A    between atoms: C_17  and  C_19
REMARK                            x       y       z     vdW  Elec       q    Type
REMARK                         _______ _______ _______ _____ _____    ______ ____
ROOT
ATOM      1  C   UNL     1       4.540   5.269  17.569  0.00  0.00    +0.000 C 
ATOM      2  O   UNL     1       3.979   4.313  17.022  0.00  0.00    +0.000 OA
ATOM      3  N   UNL     1       5.949   5.387  17.522  0.00  0.00    +0.000 N 
ENDROOT
BRANCH   1   9
ATOM      4  C   UNL     1       1.776   9.546  17.747  0.00  0.00    +0.000 C 
ATOM      5  C   UNL     1       2.291   8.320  18.436  0.00  0.00    +0.000 A 
ATOM      6  C   UNL     1       1.800   7.855  19.636  0.00  0.00    +0.000 A 
ATOM      7  N   UNL     1       2.193   6.686  20.189  0.00  0.00    +0.000 NA
ATOM      8  C   UNL     1       3.074   5.921  19.477  0.00  0.00    +0.000 A 
ATOM      9  C   UNL     1       3.618   6.264  18.239  0.00  0.00    +0.000 A 
ATOM     10  C   UNL     1       3.235   7.526  17.777  0.00  0.00    +0.000 A 
ENDBRANCH   1   9
BRANCH   3  11
ATOM     11  C   UNL     1       6.751   6.380  18.260  0.00  0.00    +0.000 C 
ATOM     12  C   UNL     1       7.847   5.665  19.067  0.00  0.00    +0.000 C 
ATOM     13  C   UNL     1       7.392   7.535  17.487  0.00  0.00    +0.000 C 
ENDBRANCH   3  11
BRANCH   3  14
ATOM     14  C   UNL     1       6.677   4.294  16.836  0.00  0.00    +0.000 C 
BRANCH  14  15
ATOM     15  C   UNL     1       6.745   4.483  15.350  0.00  0.00    +0.000 A 
ATOM     16  N   UNL     1       6.107   3.649  14.513  0.00  0.00    +0.000 NA
ATOM     17  O   UNL     1       6.550   4.050  13.253  0.00  0.00    +0.000 OA
ATOM     18  C   UNL     1       7.412   5.086  13.456  0.00  0.00    +0.000 A 
ATOM     19  C   UNL     1       8.108   5.615  12.269  0.00  0.00    +0.000 C 
ATOM     20  N   UNL     1       7.554   5.407  14.723  0.00  0.00    +0.000 NA
ENDBRANCH  14  15
ENDBRANCH   3  14
TORSDOF 4
ENDMDL
MODEL 3
REMARK VINA RESULT:      -7.2      0.890      1.445
REMARK  Name = 
REMARK  8 active torsions:
REMARK  status: ('A' for Active; 'I' for Inactive)
REMARK    1  A    between atoms: C_1  and  C_2
REMARK    2  A    between atoms: C_6  and  C_7
REMARK    3  A    between atoms: N_9  and  C_10
REMARK    4  A    between atoms: N_9  and  C_17
REMARK    5  A    between atoms: C_10  and  C_11
REMARK    6  A    between atoms: C_14  and  C_15
REMARK    7  A    between atoms: C_17  and  C_18
REMARK    8  A    between atoms: C_17  and  C_19
REMARK                            x       y       z     vdW  Elec       q    Type
REMARK                         _______ _______ _______ _____ _____    ______ ____
ROOT
ATOM      1  C   UNL     1       4.614   5.408  17.500  0.00  0.00    +0.000 C 
ATOM      2  O   UNL     1       4.101   4.395  17.011  0.00  0.00    +0.000 OA
ATOM      3  N   UNL     1       6.021   5.542  17.541  0.00  0.00    +0.000 N 
ENDROOT
BRANCH   1   9
ATOM      4  C   UNL     1       1.540   7.497  20.986  0.00  0.00    +0.000 C 
ATOM      5  C   UNL     1       2.103   7.507  19.598  0.00  0.00    +0.000 A 
ATOM      6  C   UNL     1       1.983   8.574  18.734  0.00  0.00    +0.000 A 
ATOM      7  N   UNL     1       2.593   8.617  17.529  0.00  0.00    +0.000 NA
ATOM      8  C   UNL     1       3.408   7.570  17.202  0.00  0.00    +0.000 A 
ATOM      9  C   UNL     1       3.637   6.450  18.001  0.00  0.00    +0.000 A 
ATOM     10  C   UNL     1       2.901   6.435  19.188  0.00  0.00    +0.000 A 
ENDBRANCH   1   9
BRANCH   3  11
ATOM     11  C   UNL     1       6.760   6.615  18.233  0.00  0.00    +0.000 C 
ATOM     12  C   UNL     1       7.824   5.999  19.156  0.00  0.00    +0.000 C 
ATOM     13  C   UNL     1       7.418   7.716  17.398  0.00  0.00    +0.000 C 
ENDBRANCH   3  11
BRANCH   3  14
ATOM     14  C   UNL     1       6.805   4.398  17.020  0.00  0.00    +0.000 C 
BRANCH  14  15
ATOM     15  C   UNL     1       6.921   4.405  15.525  0.00  0.00    +0.000 A 
ATOM     16  N   UNL     1       7.588   5.379  14.884  0.00  0.00    +0.000 NA
ATOM     17  O   UNL     1       7.322   5.125  13.539  0.00  0.00    +0.000 OA
ATOM     18  C   UNL     1       6.520   4.023  13.503  0.00  0.00    +0.000 A 
ATOM     19  C   UNL     1       6.004   3.618  12.183  0.00  0.00    +0.000 C 
ATOM     20  N   UNL     1       6.258   3.528  14.692  0.00  0.00    +0.000 NA
ENDBRANCH  14  15
ENDBRANCH   3  14
TORSDOF 4
ENDMDL
MODEL 4
REMARK VINA RESULT:      -7.0      1.537      1.934
REMARK  Name = 
REMARK  8 active torsions:
REMARK  status: ('A' for Active; 'I' for Inactive)
REMARK    1  A    between atoms: C_1  and  C_2
REMARK    2  A    between atoms: C_6  and  C_7
REMARK    3  A    between atoms: N_9  and  C_10
REMARK    4  A    between atoms: N_9  and  C_17
REMARK    5  A    between atoms: C_10  and  C_11
REMARK    6  A    between atoms: C_14  and  C_15
REMARK    7  A    between atoms: C_17  and  C_18
REMARK    8  A    between atoms: C_17  and  C_19
REMARK                            x       y       z     vdW  Elec       q    Type
REMARK                         _______ _______ _______ _____ _____    ______ ____
ROOT
ATOM      1  C   UNL     1       5.175   4.351  18.617  0.00  0.00    +0.000 C 
ATOM      2  O   UNL     1       5.620   3.220  18.847  0.00  0.00    +0.000 OA
ATOM      3  N   UNL     1       5.851   5.210  17.720  0.00  0.00    +0.000 N 
ENDROOT
BRANCH   1   9
ATOM      4  C   UNL     1       1.661   7.578  20.405  0.00  0.00    +0.000 C 
ATOM      5  C   UNL     1       2.163   6.174  20.266  0.00  0.00    +0.000 A 
ATOM      6  C   UNL     1       1.406   5.060  20.555  0.00  0.00    +0.000 A 
ATOM      7  N   UNL     1       1.830   3.800  20.316  0.00  0.00    +0.000 NA
ATOM      8  C   UNL     1       3.043   3.653  19.704  0.00  0.00    +0.000 A 
ATOM      9  C   UNL     1       3.888   4.698  19.333  0.00  0.00    +0.000 A 
ATOM     10  C   UNL     1       3.423   5.965  19.696  0.00  0.00    +0.000 A 
ENDBRANCH   1   9
BRANCH   3  11
ATOM     11  C   UNL     1       5.522   6.628  17.479  0.00  0.00    +0.000 C 
ATOM     12  C   UNL     1       6.807   7.471  17.515  0.00  0.00    +0.000 C 
ATOM     13  C   UNL     1       4.731   6.999  16.223  0.00  0.00    +0.000 C 
ENDBRANCH   3  11
BRANCH   3  14
ATOM     14  C   UNL     1       7.111   4.692  17.138  0.00  0.00    +0.000 C 
BRANCH  14  15
ATOM     15  C   UNL     1       7.044   4.541  15.648  0.00  0.00    +0.000 A 
ATOM     16  N   UNL     1       7.698   5.386  14.833  0.00  0.00    +0.000 NA
ATOM     17  O   UNL     1       7.252   5.023  13.562  0.00  0.00    +0.000 OA
ATOM     18  C   UNL     1       6.373   3.996  13.738  0.00  0.00    +0.000 A 
ATOM     19  C   UNL     1       5.672   3.507  12.537  0.00  0.00    +0.000 C 
ATOM     20  N   UNL     1       6.223   3.646  14.996  0.00  0.00    +0.000 NA
ENDBRANCH  14  15
ENDBRANCH   3  14
TORSDOF 4
ENDMDL
MODEL 5
REMARK VINA RESULT:      -7.0      2.444      3.735
REMARK  Name = 
REMARK  8 active torsions:
REMARK  status: ('A' for Active; 'I' for Inactive)
REMARK    1  A    between atoms: C_1  and  C_2
REMARK    2  A    between atoms: C_6  and  C_7
REMARK    3  A    between atoms: N_9  and  C_10
REMARK    4  A    between atoms: N_9  and  C_17
REMARK    5  A    between atoms: C_10  and  C_11
REMARK    6  A    between atoms: C_14  and  C_15
REMARK    7  A    between atoms: C_17  and  C_18
REMARK    8  A    between atoms: C_17  and  C_19
REMARK                            x       y       z     vdW  Elec       q    Type
REMARK                         _______ _______ _______ _____ _____    ______ ____
ROOT
ATOM      1  C   UNL     1       4.527   4.265  18.713  0.00  0.00    +0.000 C 
ATOM      2  O   UNL     1       5.577   3.645  18.919  0.00  0.00    +0.000 OA
ATOM      3  N   UNL     1       4.564   5.543  18.108  0.00  0.00    +0.000 N 
ENDROOT
BRANCH   1   9
ATOM      4  C   UNL     1       1.180   2.487  22.119  0.00  0.00    +0.000 C 
ATOM      5  C   UNL     1       1.612   2.620  20.691  0.00  0.00    +0.000 A 
ATOM      6  C   UNL     1       0.802   2.323  19.617  0.00  0.00    +0.000 A 
ATOM      7  N   UNL     1       1.162   2.556  18.336  0.00  0.00    +0.000 NA
ATOM      8  C   UNL     1       2.366   3.170  18.126  0.00  0.00    +0.000 A 
ATOM      9  C   UNL     1       3.260   3.548  19.127  0.00  0.00    +0.000 A 
ATOM     10  C   UNL     1       2.859   3.192  20.417  0.00  0.00    +0.000 A 
ENDBRANCH   1   9
BRANCH   3  11
ATOM     11  C   UNL     1       3.412   6.451  17.951  0.00  0.00    +0.000 C 
ATOM     12  C   UNL     1       2.781   6.729  19.325  0.00  0.00    +0.000 C 
ATOM     13  C   UNL     1       3.616   7.785  17.230  0.00  0.00    +0.000 C 
ENDBRANCH   3  11
BRANCH   3  14
ATOM     14  C   UNL     1       5.908   6.084  17.798  0.00  0.00    +0.000 C 
BRANCH  14  15
ATOM     15  C   UNL     1       6.457   5.569  16.502  0.00  0.00    +0.000 A 
ATOM     16  N   UNL     1       7.564   6.099  15.955  0.00  0.00    +0.000 NA
ATOM     17  O   UNL     1       7.642   5.480  14.709  0.00  0.00    +0.000 OA
ATOM     18  C   UNL     1       6.572   4.638  14.626  0.00  0.00    +0.000 A 
ATOM     19  C   UNL     1       6.368   3.945  13.342  0.00  0.00    +0.000 C 
ATOM     20  N   UNL     1       5.823   4.638  15.706  0.00  0.00    +0.000 NA
ENDBRANCH  14  15
ENDBRANCH   3  14
TORSDOF 4
ENDMDL
MODEL 6
REMARK VINA RESULT:      -6.9      2.532      4.307
REMARK  Name = 
REMARK  8 active torsions:
REMARK  status: ('A' for Active; 'I' for Inactive)
REMARK    1  A    between atoms: C_1  and  C_2
REMARK    2  A    between atoms: C_6  and  C_7
REMARK    3  A    between atoms: N_9  and  C_10
REMARK    4  A    between atoms: N_9  and  C_17
REMARK    5  A    between atoms: C_10  and  C_11
REMARK    6  A    between atoms: C_14  and  C_15
REMARK    7  A    between atoms: C_17  and  C_18
REMARK    8  A    between atoms: C_17  and  C_19
REMARK                            x       y       z     vdW  Elec       q    Type
REMARK                         _______ _______ _______ _____ _____    ______ ____
ROOT
ATOM      1  C   UNL     1       5.102   4.377  18.735  0.00  0.00    +0.000 C 
ATOM      2  O   UNL     1       5.915   3.994  19.585  0.00  0.00    +0.000 OA
ATOM      3  N   UNL     1       5.554   4.837  17.477  0.00  0.00    +0.000 N 
ENDROOT
BRANCH   1   9
ATOM      4  C   UNL     1       0.503   2.185  18.834  0.00  0.00    +0.000 C 
ATOM      5  C   UNL     1       1.389   3.329  19.218  0.00  0.00    +0.000 A 
ATOM      6  C   UNL     1       1.050   4.274  20.161  0.00  0.00    +0.000 A 
ATOM      7  N   UNL     1       1.903   5.234  20.582  0.00  0.00    +0.000 NA
ATOM      8  C   UNL     1       3.173   5.208  20.078  0.00  0.00    +0.000 A 
ATOM      9  C   UNL     1       3.648   4.287  19.145  0.00  0.00    +0.000 A 
ATOM     10  C   UNL     1       2.683   3.385  18.690  0.00  0.00    +0.000 A 
ENDBRANCH   1   9
BRANCH   3  11
ATOM     11  C   UNL     1       4.713   5.465  16.441  0.00  0.00    +0.000 C 
ATOM     12  C   UNL     1       4.258   6.855  16.916  0.00  0.00    +0.000 C 
ATOM     13  C   UNL     1       5.263   5.593  15.019  0.00  0.00    +0.000 C 
ENDBRANCH   3  11
BRANCH   3  14
ATOM     14  C   UNL     1       7.022   4.870  17.278  0.00  0.00    +0.000 C 
BRANCH  14  15
ATOM     15  C   UNL     1       7.641   6.158  17.734  0.00  0.00    +0.000 A 
ATOM     16  N   UNL     1       8.189   6.271  18.955  0.00  0.00    +0.000 NA
ATOM     17  O   UNL     1       8.488   7.630  19.054  0.00  0.00    +0.000 OA
ATOM     18  C   UNL     1       8.089   8.201  17.882  0.00  0.00    +0.000 A 
ATOM     19  C   UNL     1       8.197   9.667  17.786  0.00  0.00    +0.000 C 
ATOM     20  N   UNL     1       7.580   7.340  17.028  0.00  0.00    +0.000 NA
ENDBRANCH  14  15
ENDBRANCH   3  14
TORSDOF 4
ENDMDL
MODEL 7
REMARK VINA RESULT:      -6.8      2.851      4.487
REMARK  Name = 
REMARK  8 active torsions:
REMARK  status: ('A' for Active; 'I' for Inactive)
REMARK    1  A    between atoms: C_1  and  C_2
REMARK    2  A    between atoms: C_6  and  C_7
REMARK    3  A    between atoms: N_9  and  C_10
REMARK    4  A    between atoms: N_9  and  C_17
REMARK    5  A    between atoms: C_10  and  C_11
REMARK    6  A    between atoms: C_14  and  C_15
REMARK    7  A    between atoms: C_17  and  C_18
REMARK    8  A    between atoms: C_17  and  C_19
REMARK                            x       y       z     vdW  Elec       q    Type
REMARK                         _______ _______ _______ _____ _____    ______ ____
ROOT
ATOM      1  C   UNL     1       5.687   4.343  19.019  0.00  0.00    +0.000 C 
ATOM      2  O   UNL     1       6.373   4.694  19.986  0.00  0.00    +0.000 OA
ATOM      3  N   UNL     1       6.220   4.408  17.710  0.00  0.00    +0.000 N 
ENDROOT
BRANCH   1   9
ATOM      4  C   UNL     1       0.820   4.923  20.409  0.00  0.00    +0.000 C 
ATOM      5  C   UNL     1       1.956   4.012  20.059  0.00  0.00    +0.000 A 
ATOM      6  C   UNL     1       1.802   2.672  19.780  0.00  0.00    +0.000 A 
ATOM      7  N   UNL     1       2.817   1.888  19.355  0.00  0.00    +0.000 NA
ATOM      8  C   UNL     1       4.026   2.488  19.143  0.00  0.00    +0.000 A 
ATOM      9  C   UNL     1       4.301   3.838  19.357  0.00  0.00    +0.000 A 
ATOM     10  C   UNL     1       3.229   4.564  19.883  0.00  0.00    +0.000 A 
ENDBRANCH   1   9
BRANCH   3  11
ATOM     11  C   UNL     1       5.466   4.174  16.465  0.00  0.00    +0.000 C 
ATOM     12  C   UNL     1       4.437   5.298  16.263  0.00  0.00    +0.000 C 
ATOM     13  C   UNL     1       6.238   3.980  15.158  0.00  0.00    +0.000 C 
ENDBRANCH   3  11
BRANCH   3  14
ATOM     14  C   UNL     1       7.592   4.954  17.586  0.00  0.00    +0.000 C 
BRANCH  14  15
ATOM     15  C   UNL     1       7.633   6.450  17.683  0.00  0.00    +0.000 A 
ATOM     16  N   UNL     1       7.119   7.225  16.714  0.00  0.00    +0.000 NA
ATOM     17  O   UNL     1       7.501   8.512  17.088  0.00  0.00    +0.000 OA
ATOM     18  C   UNL     1       8.209   8.386  18.246  0.00  0.00    +0.000 A 
ATOM     19  C   UNL     1       8.824   9.611  18.787  0.00  0.00    +0.000 C 
ATOM     20  N   UNL     1       8.305   7.145  18.667  0.00  0.00    +0.000 NA
ENDBRANCH  14  15
ENDBRANCH   3  14
TORSDOF 4
ENDMDL
MODEL 8
REMARK VINA RESULT:      -6.7      2.546      4.428
REMARK  Name = 
REMARK  8 active torsions:
REMARK  status: ('A' for Active; 'I' for Inactive)
REMARK    1  A    between atoms: C_1  and  C_2
REMARK    2  A    between atoms: C_6  and  C_7
REMARK    3  A    between atoms: N_9  and  C_10
REMARK    4  A    between atoms: N_9  and  C_17
REMARK    5  A    between atoms: C_10  and  C_11
REMARK    6  A    between atoms: C_14  and  C_15
REMARK    7  A    between atoms: C_17  and  C_18
REMARK    8  A    between atoms: C_17  and  C_19
REMARK                            x       y       z     vdW  Elec       q    Type
REMARK                         _______ _______ _______ _____ _____    ______ ____
ROOT
ATOM      1  C   UNL     1       3.717   6.307  17.797  0.00  0.00    +0.000 C 
ATOM      2  O   UNL     1       3.561   7.533  17.747  0.00  0.00    +0.000 OA
ATOM      3  N   UNL     1       4.801   5.702  17.119  0.00  0.00    +0.000 N 
ENDROOT
BRANCH   1   9
ATOM      4  C   UNL     1       0.625   2.388  18.818  0.00  0.00    +0.000 C 
ATOM      5  C   UNL     1       1.156   3.737  19.193  0.00  0.00    +0.000 A 
ATOM      6  C   UNL     1       0.964   4.317  20.427  0.00  0.00    +0.000 A 
ATOM      7  N   UNL     1       1.543   5.482  20.792  0.00  0.00    +0.000 NA
ATOM      8  C   UNL     1       2.401   6.061  19.899  0.00  0.00    +0.000 A 
ATOM      9  C   UNL     1       2.703   5.559  18.634  0.00  0.00    +0.000 A 
ATOM     10  C   UNL     1       1.996   4.403  18.294  0.00  0.00    +0.000 A 
ENDBRANCH   1   9
BRANCH   3  11
ATOM     11  C   UNL     1       5.013   4.250  16.965  0.00  0.00    +0.000 C 
ATOM     12  C   UNL     1       5.974   3.988  15.794  0.00  0.00    +0.000 C 
ATOM     13  C   UNL     1       5.485   3.440  18.174  0.00  0.00    +0.000 C 
ENDBRANCH   3  11
BRANCH   3  14
ATOM     14  C   UNL     1       5.672   6.606  16.332  0.00  0.00    +0.000 C 
BRANCH  14  15
ATOM     15  C   UNL     1       6.822   7.145  17.129  0.00  0.00    +0.000 A 
ATOM     16  N   UNL     1       7.467   6.378  18.024  0.00  0.00    +0.000 NA
ATOM     17  O   UNL     1       8.330   7.273  18.658  0.00  0.00    +0.000 OA
ATOM     18  C   UNL     1       8.118   8.490  18.082  0.00  0.00    +0.000 A 
ATOM     19  C   UNL     1       8.839   9.636  18.664  0.00  0.00    +0.000 C 
ATOM     20  N   UNL     1       7.217   8.466  17.124  0.00  0.00    +0.000 NA
ENDBRANCH  14  15
ENDBRANCH   3  14
TORSDOF 4
ENDMDL
MODEL 9
REMARK VINA RESULT:      -6.7      2.706      4.730
REMARK  Name = 
REMARK  8 active torsions:
REMARK  status: ('A' for Active; 'I' for Inactive)
REMARK    1  A    between atoms: C_1  and  C_2
REMARK    2  A    between atoms: C_6  and  C_7
REMARK    3  A    between atoms: N_9  and  C_10
REMARK    4  A    between atoms: N_9  and  C_17
REMARK    5  A    between atoms: C_10  and  C_11
REMARK    6  A    between atoms: C_14  and  C_15
REMARK    7  A    between atoms: C_17  and  C_18
REMARK    8  A    between atoms: C_17  and  C_19
REMARK                            x       y       z     vdW  Elec       q    Type
REMARK                         _______ _______ _______ _____ _____    ______ ____
ROOT
ATOM      1  C   UNL     1       3.575   5.807  17.823  0.00  0.00    +0.000 C 
ATOM      2  O   UNL     1       3.384   6.949  18.257  0.00  0.00    +0.000 OA
ATOM      3  N   UNL     1       4.545   5.583  16.818  0.00  0.00    +0.000 N 
ENDROOT
BRANCH   1   9
ATOM      4  C   UNL     1       2.032   2.898  21.711  0.00  0.00    +0.000 C 
ATOM      5  C   UNL     1       1.950   3.249  20.258  0.00  0.00    +0.000 A 
ATOM      6  C   UNL     1       0.953   2.801  19.420  0.00  0.00    +0.000 A 
ATOM      7  N   UNL     1       0.824   3.216  18.140  0.00  0.00    +0.000 NA
ATOM      8  C   UNL     1       1.701   4.169  17.700  0.00  0.00    +0.000 A 
ATOM      9  C   UNL     1       2.731   4.724  18.458  0.00  0.00    +0.000 A 
ATOM     10  C   UNL     1       2.857   4.178  19.738  0.00  0.00    +0.000 A 
ENDBRANCH   1   9
BRANCH   3  11
ATOM     11  C   UNL     1       4.762   4.310  16.105  0.00  0.00    +0.000 C 
ATOM     12  C   UNL     1       5.488   4.578  14.777  0.00  0.00    +0.000 C 
ATOM     13  C   UNL     1       5.477   3.169  16.830  0.00  0.00    +0.000 C 
ENDBRANCH   3  11
BRANCH   3  14
ATOM     14  C   UNL     1       5.252   6.781  16.308  0.00  0.00    +0.000 C 
BRANCH  14  15
ATOM     15  C   UNL     1       6.482   7.111  17.099  0.00  0.00    +0.000 A 
ATOM     16  N   UNL     1       7.021   6.222  17.951  0.00  0.00    +0.000 NA
ATOM     17  O   UNL     1       8.017   6.952  18.598  0.00  0.00    +0.000 OA
ATOM     18  C   UNL     1       7.979   8.210  18.073  0.00  0.00    +0.000 A 
ATOM     19  C   UNL     1       8.873   9.212  18.681  0.00  0.00    +0.000 C 
ATOM     20  N   UNL     1       7.070   8.358  17.135  0.00  0.00    +0.000 NA
ENDBRANCH  14  15
ENDBRANCH   3  14
TORSDOF 4
ENDMDL
