MODEL 1
REMARK VINA RESULT:      -7.8      0.000      0.000
REMARK  Name = 
REMARK  7 active torsions:
REMARK  status: ('A' for Active; 'I' for Inactive)
REMARK    1  A    between atoms: C_1  and  S_2
REMARK    2  A    between atoms: S_2  and  C_3
REMARK    3  A    between atoms: C_6  and  S_7
REMARK    4  A    between atoms: S_7  and  N_10
REMARK    5  A    between atoms: C_13  and  C_14
REMARK    6  A    between atoms: N_16  and  C_17
REMARK    7  A    between atoms: C_17  and  C_18
REMARK                            x       y       z     vdW  Elec       q    Type
REMARK                         _______ _______ _______ _____ _____    ______ ____
ROOT
ATOM      1  N   UNL     1       5.209   4.246  18.380  0.00  0.00    +0.000 NA
ATOM      2  C   UNL     1       5.835   4.487  17.045  0.00  0.00    +0.000 C 
ATOM      3  C   UNL     1       7.355   4.609  17.166  0.00  0.00    +0.000 C 
ATOM      4  C   UNL     1       7.766   5.700  18.160  0.00  0.00    +0.000 C 
ATOM      5  C   UNL     1       7.124   5.381  19.512  0.00  0.00    +0.000 C 
ATOM      6  C   UNL     1       5.608   5.261  19.404  0.00  0.00    +0.000 C 
ENDROOT
BRANCH   4   7
ATOM      7  C   UNL     1       7.411   7.093  17.631  0.00  0.00    +0.000 C 
ATOM      8  O   UNL     1       6.566   7.272  16.759  0.00  0.00    +0.000 OA
ATOM      9  N   UNL     1       8.140   8.125  18.169  0.00  0.00    +0.000 N 
ATOM     10  H   UNL     1       8.932   7.944  18.772  0.00  0.00    +0.000 HD
BRANCH   9  11
ATOM     11  C   UNL     1       7.911   9.515  17.795  0.00  0.00    +0.000 C 
BRANCH  11  12
ATOM     12  C   UNL     1       9.071  10.432  18.187  0.00  0.00    +0.000 C 
ATOM     13  C   UNL     1       9.398  10.468  19.670  0.00  0.00    +0.000 C 
ATOM     14  C   UNL     1      10.049  11.821  19.809  0.00  0.00    +0.000 C 
ATOM     15  C   UNL     1       9.256  12.666  18.833  0.00  0.00    +0.000 C 
ATOM     16  O   UNL     1       8.774  11.793  17.804  0.00  0.00    +0.000 OA
ENDBRANCH  11  12
ENDBRANCH   9  11
ENDBRANCH   4   7
BRANCH   1  17
ATOM     17  S   UNL     1       3.479   4.116  18.313  0.00  0.00    +0.000 S 
ATOM     18  O   UNL     1       3.068   3.273  19.417  0.00  0.00    +0.000 OA
ATOM     19  O   UNL     1       3.113   3.794  16.949  0.00  0.00    +0.000 OA
BRANCH  17  23
ATOM     20  C   UNL     1       2.003   8.351  19.150  0.00  0.00    +0.000 A 
ATOM     21  C   UNL     1       1.851   7.345  20.114  0.00  0.00    +0.000 A 
ATOM     22  C   UNL     1       2.314   6.051  19.859  0.00  0.00    +0.000 A 
ATOM     23  C   UNL     1       2.919   5.769  18.633  0.00  0.00    +0.000 A 
ATOM     24  C   UNL     1       3.079   6.763  17.665  0.00  0.00    +0.000 A 
ATOM     25  C   UNL     1       2.614   8.053  17.927  0.00  0.00    +0.000 A 
BRANCH  20  27
ATOM     26  C   UNL     1      -0.019  10.002  18.277  0.00  0.00    +0.000 C 
ATOM     27  S   UNL     1       1.375   9.997  19.435  0.00  0.00    +0.000 S 
ENDBRANCH  20  27
ENDBRANCH  17  23
ENDBRANCH   1  17
TORSDOF 6
ENDMDL
MODEL 2
REMARK VINA RESULT:      -7.6      0.448      1.044
REMARK  Name = 
REMARK  7 active torsions:
REMARK  status: ('A' for Active; 'I' for Inactive)
REMARK    1  A    between atoms: C_1  and  S_2
REMARK    2  A    between atoms: S_2  and  C_3
REMARK    3  A    between atoms: C_6  and  S_7
REMARK    4  A    between atoms: S_7  and  N_10
REMARK    5  A    between atoms: C_13  and  C_14
REMARK    6  A    between atoms: N_16  and  C_17
REMARK    7  A    between atoms: C_17  and  C_18
REMARK                            x       y       z     vdW  Elec       q    Type
REMARK                         _______ _______ _______ _____ _____    ______ ____
ROOT
ATOM      1  N   UNL     1       5.226   4.250  18.531  0.00  0.00    +0.000 NA
ATOM      2  C   UNL     1       5.747   4.494  17.152  0.00  0.00    +0.000 C 
ATOM      3  C   UNL     1       7.273   4.592  17.153  0.00  0.00    +0.000 C 
ATOM      4  C   UNL     1       7.779   5.668  18.120  0.00  0.00    +0.000 C 
ATOM      5  C   UNL     1       7.242   5.346  19.515  0.00  0.00    +0.000 C 
ATOM      6  C   UNL     1       5.721   5.249  19.528  0.00  0.00    +0.000 C 
ENDROOT
BRANCH   4   7
ATOM      7  C   UNL     1       7.404   7.071  17.631  0.00  0.00    +0.000 C 
ATOM      8  O   UNL     1       6.554   7.264  16.768  0.00  0.00    +0.000 OA
ATOM      9  N   UNL     1       8.122   8.096  18.196  0.00  0.00    +0.000 N 
ATOM     10  H   UNL     1       8.919   7.908  18.791  0.00  0.00    +0.000 HD
BRANCH   9  11
ATOM     11  C   UNL     1       7.875   9.493  17.863  0.00  0.00    +0.000 C 
BRANCH  11  12
ATOM     12  C   UNL     1       9.054  10.403  18.210  0.00  0.00    +0.000 C 
ATOM     13  C   UNL     1       9.425  10.452  19.684  0.00  0.00    +0.000 C 
ATOM     14  C   UNL     1      10.093  11.800  19.788  0.00  0.00    +0.000 C 
ATOM     15  C   UNL     1       9.279  12.642  18.827  0.00  0.00    +0.000 C 
ATOM     16  O   UNL     1       8.759  11.763  17.822  0.00  0.00    +0.000 OA
ENDBRANCH  11  12
ENDBRANCH   9  11
ENDBRANCH   4   7
BRANCH   1  17
ATOM     17  S   UNL     1       3.494   4.146  18.600  0.00  0.00    +0.000 S 
ATOM     18  O   UNL     1       3.151   3.553  19.877  0.00  0.00    +0.000 OA
ATOM     19  O   UNL     1       3.036   3.561  17.357  0.00  0.00    +0.000 OA
BRANCH  17  23
ATOM     20  C   UNL     1       2.184   8.516  18.612  0.00  0.00    +0.000 A 
ATOM     21  C   UNL     1       2.819   7.970  17.488  0.00  0.00    +0.000 A 
ATOM     22  C   UNL     1       3.209   6.628  17.483  0.00  0.00    +0.000 A 
ATOM     23  C   UNL     1       2.970   5.840  18.611  0.00  0.00    +0.000 A 
ATOM     24  C   UNL     1       2.337   6.372  19.737  0.00  0.00    +0.000 A 
ATOM     25  C   UNL     1       1.950   7.713  19.734  0.00  0.00    +0.000 A 
BRANCH  20  27
ATOM     26  C   UNL     1       0.360  10.162  19.852  0.00  0.00    +0.000 C 
ATOM     27  S   UNL     1       1.722  10.239  18.659  0.00  0.00    +0.000 S 
ENDBRANCH  20  27
ENDBRANCH  17  23
ENDBRANCH   1  17
TORSDOF 6
ENDMDL
MODEL 3
REMARK VINA RESULT:      -7.5      0.958      1.207
REMARK  Name = 
REMARK  7 active torsions:
REMARK  status: ('A' for Active; 'I' for Inactive)
REMARK    1  A    between atoms: C_1  and  S_2
REMARK    2  A    between atoms: S_2  and  C_3
REMARK    3  A    between atoms: C_6  and  S_7
REMARK    4  A    between atoms: S_7  and  N_10
REMARK    5  A    between atoms: C_13  and  C_14
REMARK    6  A    between atoms: N_16  and  C_17
REMARK    7  A    between atoms: C_17  and  C_18
REMARK                            x       y       z     vdW  Elec       q    Type
REMARK                         _______ _______ _______ _____ _____    ______ ____
ROOT
ATOM      1  N   UNL     1       5.331   4.155  18.393  0.00  0.00    +0.000 NA
ATOM      2  C   UNL     1       5.998   4.398  17.078  0.00  0.00    +0.000 C 
ATOM      3  C   UNL     1       7.501   4.617  17.258  0.00  0.00    +0.000 C 
ATOM      4  C   UNL     1       7.802   5.759  18.235  0.00  0.00    +0.000 C 
ATOM      5  C   UNL     1       7.122   5.437  19.568  0.00  0.00    +0.000 C 
ATOM      6  C   UNL     1       5.623   5.220  19.401  0.00  0.00    +0.000 C 
ENDROOT
BRANCH   4   7
ATOM      7  C   UNL     1       7.386   7.111  17.650  0.00  0.00    +0.000 C 
ATOM      8  O   UNL     1       6.462   7.229  16.851  0.00  0.00    +0.000 OA
ATOM      9  N   UNL     1       8.153   8.179  18.048  0.00  0.00    +0.000 N 
ATOM     10  H   UNL     1       8.999   8.042  18.585  0.00  0.00    +0.000 HD
BRANCH   9  11
ATOM     11  C   UNL     1       7.877   9.540  17.605  0.00  0.00    +0.000 C 
BRANCH  11  12
ATOM     12  C   UNL     1       8.433  10.598  18.561  0.00  0.00    +0.000 C 
ATOM     13  C   UNL     1       9.048  11.817  17.893  0.00  0.00    +0.000 C 
ATOM     14  C   UNL     1      10.009  12.295  18.952  0.00  0.00    +0.000 C 
ATOM     15  C   UNL     1      10.508  10.995  19.549  0.00  0.00    +0.000 C 
ATOM     16  O   UNL     1       9.468  10.022  19.386  0.00  0.00    +0.000 OA
ENDBRANCH  11  12
ENDBRANCH   9  11
ENDBRANCH   4   7
BRANCH   1  17
ATOM     17  S   UNL     1       3.616   3.917  18.257  0.00  0.00    +0.000 S 
ATOM     18  O   UNL     1       3.252   2.877  19.198  0.00  0.00    +0.000 OA
ATOM     19  O   UNL     1       3.296   3.798  16.850  0.00  0.00    +0.000 OA
BRANCH  17  23
ATOM     20  C   UNL     1       1.819   7.842  19.734  0.00  0.00    +0.000 A 
ATOM     21  C   UNL     1       1.763   6.692  20.534  0.00  0.00    +0.000 A 
ATOM     22  C   UNL     1       2.325   5.494  20.084  0.00  0.00    +0.000 A 
ATOM     23  C   UNL     1       2.931   5.451  18.827  0.00  0.00    +0.000 A 
ATOM     24  C   UNL     1       2.995   6.590  18.021  0.00  0.00    +0.000 A 
ATOM     25  C   UNL     1       2.432   7.782  18.477  0.00  0.00    +0.000 A 
BRANCH  20  27
ATOM     26  C   UNL     1       1.030   9.089  22.057  0.00  0.00    +0.000 C 
ATOM     27  S   UNL     1       1.065   9.369  20.267  0.00  0.00    +0.000 S 
ENDBRANCH  20  27
ENDBRANCH  17  23
ENDBRANCH   1  17
TORSDOF 6
ENDMDL
MODEL 4
REMARK VINA RESULT:      -7.2      3.143      4.950
REMARK  Name = 
REMARK  7 active torsions:
REMARK  status: ('A' for Active; 'I' for Inactive)
REMARK    1  A    between atoms: C_1  and  S_2
REMARK    2  A    between atoms: S_2  and  C_3
REMARK    3  A    between atoms: C_6  and  S_7
REMARK    4  A    between atoms: S_7  and  N_10
REMARK    5  A    between atoms: C_13  and  C_14
REMARK    6  A    between atoms: N_16  and  C_17
REMARK    7  A    between atoms: C_17  and  C_18
REMARK                            x       y       z     vdW  Elec       q    Type
REMARK                         _______ _______ _______ _____ _____    ______ ____
ROOT
ATOM      1  N   UNL     1       4.564   6.282  19.007  0.00  0.00    +0.000 NA
ATOM      2  C   UNL     1       5.410   5.133  19.449  0.00  0.00    +0.000 C 
ATOM      3  C   UNL     1       6.894   5.499  19.413  0.00  0.00    +0.000 C 
ATOM      4  C   UNL     1       7.330   5.989  18.028  0.00  0.00    +0.000 C 
ATOM      5  C   UNL     1       6.453   7.183  17.646  0.00  0.00    +0.000 C 
ATOM      6  C   UNL     1       4.972   6.829  17.676  0.00  0.00    +0.000 C 
ENDROOT
BRANCH   4   7
ATOM      7  C   UNL     1       7.293   4.852  17.002  0.00  0.00    +0.000 C 
ATOM      8  O   UNL     1       8.231   4.078  16.841  0.00  0.00    +0.000 OA
ATOM      9  N   UNL     1       6.151   4.790  16.241  0.00  0.00    +0.000 N 
ATOM     10  H   UNL     1       5.457   5.525  16.284  0.00  0.00    +0.000 HD
BRANCH   9  11
ATOM     11  C   UNL     1       5.942   3.755  15.238  0.00  0.00    +0.000 C 
BRANCH  11  12
ATOM     12  C   UNL     1       6.051   4.285  13.807  0.00  0.00    +0.000 C 
ATOM     13  C   UNL     1       6.314   3.233  12.742  0.00  0.00    +0.000 C 
ATOM     14  C   UNL     1       6.978   4.048  11.662  0.00  0.00    +0.000 C 
ATOM     15  C   UNL     1       7.800   5.039  12.460  0.00  0.00    +0.000 C 
ATOM     16  O   UNL     1       7.135   5.235  13.714  0.00  0.00    +0.000 OA
ENDBRANCH  11  12
ENDBRANCH   9  11
ENDBRANCH   4   7
BRANCH   1  17
ATOM     17  S   UNL     1       2.865   5.923  19.009  0.00  0.00    +0.000 S 
ATOM     18  O   UNL     1       2.581   5.202  20.232  0.00  0.00    +0.000 OA
ATOM     19  O   UNL     1       2.529   5.364  17.716  0.00  0.00    +0.000 OA
BRANCH  17  23
ATOM     20  C   UNL     1       0.858  10.011  19.289  0.00  0.00    +0.000 A 
ATOM     21  C   UNL     1       1.025   9.223  20.437  0.00  0.00    +0.000 A 
ATOM     22  C   UNL     1       1.650   7.977  20.350  0.00  0.00    +0.000 A 
ATOM     23  C   UNL     1       2.097   7.519  19.109  0.00  0.00    +0.000 A 
ATOM     24  C   UNL     1       1.939   8.295  17.958  0.00  0.00    +0.000 A 
ATOM     25  C   UNL     1       1.314   9.539  18.053  0.00  0.00    +0.000 A 
BRANCH  20  27
ATOM     26  C   UNL     1       1.329  12.666  18.739  0.00  0.00    +0.000 C 
ATOM     27  S   UNL     1       0.019  11.584  19.369  0.00  0.00    +0.000 S 
ENDBRANCH  20  27
ENDBRANCH  17  23
ENDBRANCH   1  17
TORSDOF 6
ENDMDL
MODEL 5
REMARK VINA RESULT:      -7.2      0.896      1.440
REMARK  Name = 
REMARK  7 active torsions:
REMARK  status: ('A' for Active; 'I' for Inactive)
REMARK    1  A    between atoms: C_1  and  S_2
REMARK    2  A    between atoms: S_2  and  C_3
REMARK    3  A    between atoms: C_6  and  S_7
REMARK    4  A    between atoms: S_7  and  N_10
REMARK    5  A    between atoms: C_13  and  C_14
REMARK    6  A    between atoms: N_16  and  C_17
REMARK    7  A    between atoms: C_17  and  C_18
REMARK                            x       y       z     vdW  Elec       q    Type
REMARK                         _______ _______ _______ _____ _____    ______ ____
ROOT
ATOM      1  N   UNL     1       5.411   4.229  18.434  0.00  0.00    +0.000 NA
ATOM      2  C   UNL     1       6.086   4.454  17.121  0.00  0.00    +0.000 C 
ATOM      3  C   UNL     1       7.584   4.700  17.310  0.00  0.00    +0.000 C 
ATOM      4  C   UNL     1       7.858   5.867  18.264  0.00  0.00    +0.000 C 
ATOM      5  C   UNL     1       7.172   5.564  19.598  0.00  0.00    +0.000 C 
ATOM      6  C   UNL     1       5.678   5.320  19.422  0.00  0.00    +0.000 C 
ENDROOT
BRANCH   4   7
ATOM      7  C   UNL     1       7.427   7.200  17.647  0.00  0.00    +0.000 C 
ATOM      8  O   UNL     1       6.525   7.284  16.819  0.00  0.00    +0.000 OA
ATOM      9  N   UNL     1       8.155   8.293  18.052  0.00  0.00    +0.000 N 
ATOM     10  H   UNL     1       8.988   8.184  18.616  0.00  0.00    +0.000 HD
BRANCH   9  11
ATOM     11  C   UNL     1       7.859   9.640  17.581  0.00  0.00    +0.000 C 
BRANCH  11  12
ATOM     12  C   UNL     1       8.664  10.714  18.315  0.00  0.00    +0.000 C 
ATOM     13  C   UNL     1       8.525  12.123  17.761  0.00  0.00    +0.000 C 
ATOM     14  C   UNL     1       9.817  12.758  18.209  0.00  0.00    +0.000 C 
ATOM     15  C   UNL     1      10.803  11.615  18.083  0.00  0.00    +0.000 C 
ATOM     16  O   UNL     1      10.071  10.396  18.266  0.00  0.00    +0.000 OA
ENDBRANCH  11  12
ENDBRANCH   9  11
ENDBRANCH   4   7
BRANCH   1  17
ATOM     17  S   UNL     1       3.702   3.961  18.289  0.00  0.00    +0.000 S 
ATOM     18  O   UNL     1       3.326   3.019  19.323  0.00  0.00    +0.000 OA
ATOM     19  O   UNL     1       3.413   3.696  16.895  0.00  0.00    +0.000 OA
BRANCH  17  23
ATOM     20  C   UNL     1       1.913   8.037  19.291  0.00  0.00    +0.000 A 
ATOM     21  C   UNL     1       2.549   7.826  18.060  0.00  0.00    +0.000 A 
ATOM     22  C   UNL     1       3.086   6.574  17.751  0.00  0.00    +0.000 A 
ATOM     23  C   UNL     1       2.993   5.538  18.684  0.00  0.00    +0.000 A 
ATOM     24  C   UNL     1       2.360   5.735  19.913  0.00  0.00    +0.000 A 
ATOM     25  C   UNL     1       1.826   6.989  20.214  0.00  0.00    +0.000 A 
BRANCH  20  27
ATOM     26  C   UNL     1       0.499   9.244  21.320  0.00  0.00    +0.000 C 
ATOM     27  S   UNL     1       1.264   9.641  19.727  0.00  0.00    +0.000 S 
ENDBRANCH  20  27
ENDBRANCH  17  23
ENDBRANCH   1  17
TORSDOF 6
ENDMDL
MODEL 6
REMARK VINA RESULT:      -7.2      3.007      5.489
REMARK  Name = 
REMARK  7 active torsions:
REMARK  status: ('A' for Active; 'I' for Inactive)
REMARK    1  A    between atoms: C_1  and  S_2
REMARK    2  A    between atoms: S_2  and  C_3
REMARK    3  A    between atoms: C_6  and  S_7
REMARK    4  A    between atoms: S_7  and  N_10
REMARK    5  A    between atoms: C_13  and  C_14
REMARK    6  A    between atoms: N_16  and  C_17
REMARK    7  A    between atoms: C_17  and  C_18
REMARK                            x       y       z     vdW  Elec       q    Type
REMARK                         _______ _______ _______ _____ _____    ______ ____
ROOT
ATOM      1  N   UNL     1       4.727   5.434  18.565  0.00  0.00    +0.000 NA
ATOM      2  C   UNL     1       5.412   4.299  17.875  0.00  0.00    +0.000 C 
ATOM      3  C   UNL     1       6.897   4.600  17.667  0.00  0.00    +0.000 C 
ATOM      4  C   UNL     1       7.115   5.909  16.901  0.00  0.00    +0.000 C 
ATOM      5  C   UNL     1       6.422   7.034  17.671  0.00  0.00    +0.000 C 
ATOM      6  C   UNL     1       4.941   6.747  17.881  0.00  0.00    +0.000 C 
ENDROOT
BRANCH   4   7
ATOM      7  C   UNL     1       6.645   5.784  15.449  0.00  0.00    +0.000 C 
ATOM      8  O   UNL     1       5.595   6.279  15.050  0.00  0.00    +0.000 OA
ATOM      9  N   UNL     1       7.461   5.039  14.633  0.00  0.00    +0.000 N 
ATOM     10  H   UNL     1       8.240   4.516  15.013  0.00  0.00    +0.000 HD
BRANCH   9  11
ATOM     11  C   UNL     1       7.175   4.844  13.217  0.00  0.00    +0.000 C 
BRANCH  11  12
ATOM     12  C   UNL     1       6.345   3.587  12.949  0.00  0.00    +0.000 C 
ATOM     13  C   UNL     1       6.797   2.751  11.762  0.00  0.00    +0.000 C 
ATOM     14  C   UNL     1       5.522   2.043  11.381  0.00  0.00    +0.000 C 
ATOM     15  C   UNL     1       4.470   3.099  11.650  0.00  0.00    +0.000 C 
ATOM     16  O   UNL     1       4.971   3.948  12.690  0.00  0.00    +0.000 OA
ENDBRANCH  11  12
ENDBRANCH   9  11
ENDBRANCH   4   7
BRANCH   1  17
ATOM     17  S   UNL     1       3.030   5.161  18.814  0.00  0.00    +0.000 S 
ATOM     18  O   UNL     1       2.892   4.436  20.061  0.00  0.00    +0.000 OA
ATOM     19  O   UNL     1       2.480   4.639  17.580  0.00  0.00    +0.000 OA
BRANCH  17  23
ATOM     20  C   UNL     1       1.298   9.339  19.414  0.00  0.00    +0.000 A 
ATOM     21  C   UNL     1       1.435   8.465  20.502  0.00  0.00    +0.000 A 
ATOM     22  C   UNL     1       1.976   7.191  20.317  0.00  0.00    +0.000 A 
ATOM     23  C   UNL     1       2.369   6.791  19.038  0.00  0.00    +0.000 A 
ATOM     24  C   UNL     1       2.240   7.653  17.946  0.00  0.00    +0.000 A 
ATOM     25  C   UNL     1       1.699   8.924  18.139  0.00  0.00    +0.000 A 
BRANCH  20  27
ATOM     26  C   UNL     1       1.741  11.950  18.668  0.00  0.00    +0.000 C 
ATOM     27  S   UNL     1       0.564  10.952  19.618  0.00  0.00    +0.000 S 
ENDBRANCH  20  27
ENDBRANCH  17  23
ENDBRANCH   1  17
TORSDOF 6
ENDMDL
MODEL 7
REMARK VINA RESULT:      -7.1      2.997      5.536
REMARK  Name = 
REMARK  7 active torsions:
REMARK  status: ('A' for Active; 'I' for Inactive)
REMARK    1  A    between atoms: C_1  and  S_2
REMARK    2  A    between atoms: S_2  and  C_3
REMARK    3  A    between atoms: C_6  and  S_7
REMARK    4  A    between atoms: S_7  and  N_10
REMARK    5  A    between atoms: C_13  and  C_14
REMARK    6  A    between atoms: N_16  and  C_17
REMARK    7  A    between atoms: C_17  and  C_18
REMARK                            x       y       z     vdW  Elec       q    Type
REMARK                         _______ _______ _______ _____ _____    ______ ____
ROOT
ATOM      1  N   UNL     1       4.800   5.325  18.542  0.00  0.00    +0.000 NA
ATOM      2  C   UNL     1       5.545   4.233  17.847  0.00  0.00    +0.000 C 
ATOM      3  C   UNL     1       7.007   4.622  17.624  0.00  0.00    +0.000 C 
ATOM      4  C   UNL     1       7.140   5.940  16.855  0.00  0.00    +0.000 C 
ATOM      5  C   UNL     1       6.388   7.023  17.631  0.00  0.00    +0.000 C 
ATOM      6  C   UNL     1       4.928   6.648  17.855  0.00  0.00    +0.000 C 
ENDROOT
BRANCH   4   7
ATOM      7  C   UNL     1       6.665   5.786  15.407  0.00  0.00    +0.000 C 
ATOM      8  O   UNL     1       5.590   6.230  15.014  0.00  0.00    +0.000 OA
ATOM      9  N   UNL     1       7.507   5.074  14.589  0.00  0.00    +0.000 N 
ATOM     10  H   UNL     1       8.312   4.589  14.965  0.00  0.00    +0.000 HD
BRANCH   9  11
ATOM     11  C   UNL     1       7.219   4.857  13.177  0.00  0.00    +0.000 C 
BRANCH  11  12
ATOM     12  C   UNL     1       6.383   3.600  12.929  0.00  0.00    +0.000 C 
ATOM     13  C   UNL     1       6.810   2.761  11.737  0.00  0.00    +0.000 C 
ATOM     14  C   UNL     1       5.527   2.052  11.384  0.00  0.00    +0.000 C 
ATOM     15  C   UNL     1       4.481   3.110  11.670  0.00  0.00    +0.000 C 
ATOM     16  O   UNL     1       5.004   3.963  12.697  0.00  0.00    +0.000 OA
ENDBRANCH  11  12
ENDBRANCH   9  11
ENDBRANCH   4   7
BRANCH   1  17
ATOM     17  S   UNL     1       3.125   4.951  18.807  0.00  0.00    +0.000 S 
ATOM     18  O   UNL     1       3.059   4.082  19.964  0.00  0.00    +0.000 OA
ATOM     19  O   UNL     1       2.555   4.552  17.538  0.00  0.00    +0.000 OA
BRANCH  17  23
ATOM     20  C   UNL     1       1.309   8.991  19.899  0.00  0.00    +0.000 A 
ATOM     21  C   UNL     1       1.731   8.736  18.587  0.00  0.00    +0.000 A 
ATOM     22  C   UNL     1       2.277   7.494  18.253  0.00  0.00    +0.000 A 
ATOM     23  C   UNL     1       2.407   6.514  19.240  0.00  0.00    +0.000 A 
ATOM     24  C   UNL     1       1.989   6.755  20.550  0.00  0.00    +0.000 A 
ATOM     25  C   UNL     1       1.445   7.999  20.876  0.00  0.00    +0.000 A 
BRANCH  20  27
ATOM     26  C   UNL     1       0.255  11.243  18.719  0.00  0.00    +0.000 C 
ATOM     27  S   UNL     1       0.656  10.587  20.359  0.00  0.00    +0.000 S 
ENDBRANCH  20  27
ENDBRANCH  17  23
ENDBRANCH   1  17
TORSDOF 6
ENDMDL
MODEL 8
REMARK VINA RESULT:      -6.9      3.232      5.684
REMARK  Name = 
REMARK  7 active torsions:
REMARK  status: ('A' for Active; 'I' for Inactive)
REMARK    1  A    between atoms: C_1  and  S_2
REMARK    2  A    between atoms: S_2  and  C_3
REMARK    3  A    between atoms: C_6  and  S_7
REMARK    4  A    between atoms: S_7  and  N_10
REMARK    5  A    between atoms: C_13  and  C_14
REMARK    6  A    between atoms: N_16  and  C_17
REMARK    7  A    between atoms: C_17  and  C_18
REMARK                            x       y       z     vdW  Elec       q    Type
REMARK                         _______ _______ _______ _____ _____    ______ ____
ROOT
ATOM      1  N   UNL     1       4.649   6.398  18.501  0.00  0.00    +0.000 NA
ATOM      2  C   UNL     1       5.808   5.618  19.032  0.00  0.00    +0.000 C 
ATOM      3  C   UNL     1       7.134   6.226  18.573  0.00  0.00    +0.000 C 
ATOM      4  C   UNL     1       7.215   6.341  17.047  0.00  0.00    +0.000 C 
ATOM      5  C   UNL     1       6.025   7.175  16.568  0.00  0.00    +0.000 C 
ATOM      6  C   UNL     1       4.698   6.577  17.017  0.00  0.00    +0.000 C 
ENDROOT
BRANCH   4   7
ATOM      7  C   UNL     1       7.294   4.959  16.391  0.00  0.00    +0.000 C 
ATOM      8  O   UNL     1       8.003   4.059  16.831  0.00  0.00    +0.000 OA
ATOM      9  N   UNL     1       6.548   4.813  15.247  0.00  0.00    +0.000 N 
ATOM     10  H   UNL     1       6.091   5.608  14.818  0.00  0.00    +0.000 HD
BRANCH   9  11
ATOM     11  C   UNL     1       6.490   3.555  14.514  0.00  0.00    +0.000 C 
BRANCH  11  12
ATOM     12  C   UNL     1       6.033   3.734  13.065  0.00  0.00    +0.000 C 
ATOM     13  C   UNL     1       4.528   3.703  12.850  0.00  0.00    +0.000 C 
ATOM     14  C   UNL     1       4.433   3.265  11.411  0.00  0.00    +0.000 C 
ATOM     15  C   UNL     1       5.585   2.289  11.290  0.00  0.00    +0.000 C 
ATOM     16  O   UNL     1       6.582   2.684  12.241  0.00  0.00    +0.000 OA
ENDBRANCH  11  12
ENDBRANCH   9  11
ENDBRANCH   4   7
BRANCH   1  17
ATOM     17  S   UNL     1       3.110   5.746  18.973  0.00  0.00    +0.000 S 
ATOM     18  O   UNL     1       3.339   4.900  20.126  0.00  0.00    +0.000 OA
ATOM     19  O   UNL     1       2.465   5.231  17.784  0.00  0.00    +0.000 OA
BRANCH  17  23
ATOM     20  C   UNL     1       0.718   9.384  20.335  0.00  0.00    +0.000 A 
ATOM     21  C   UNL     1       0.895   8.291  21.194  0.00  0.00    +0.000 A 
ATOM     22  C   UNL     1       1.638   7.183  20.778  0.00  0.00    +0.000 A 
ATOM     23  C   UNL     1       2.192   7.170  19.497  0.00  0.00    +0.000 A 
ATOM     24  C   UNL     1       2.025   8.254  18.632  0.00  0.00    +0.000 A 
ATOM     25  C   UNL     1       1.282   9.358  19.055  0.00  0.00    +0.000 A 
BRANCH  20  27
ATOM     26  C   UNL     1       0.619  12.108  19.958  0.00  0.00    +0.000 C 
ATOM     27  S   UNL     1      -0.268  10.788  20.826  0.00  0.00    +0.000 S 
ENDBRANCH  20  27
ENDBRANCH  17  23
ENDBRANCH   1  17
TORSDOF 6
ENDMDL
MODEL 9
REMARK VINA RESULT:      -6.8      5.691     10.081
REMARK  Name = 
REMARK  7 active torsions:
REMARK  status: ('A' for Active; 'I' for Inactive)
REMARK    1  A    between atoms: C_1  and  S_2
REMARK    2  A    between atoms: S_2  and  C_3
REMARK    3  A    between atoms: C_6  and  S_7
REMARK    4  A    between atoms: S_7  and  N_10
REMARK    5  A    between atoms: C_13  and  C_14
REMARK    6  A    between atoms: N_16  and  C_17
REMARK    7  A    between atoms: C_17  and  C_18
REMARK                            x       y       z     vdW  Elec       q    Type
REMARK                         _______ _______ _______ _____ _____    ______ ____
ROOT
ATOM      1  N   UNL     1       0.511  10.152  20.007  0.00  0.00    +0.000 NA
ATOM      2  C   UNL     1      -0.855  10.085  19.406  0.00  0.00    +0.000 C 
ATOM      3  C   UNL     1      -1.070  11.220  18.404  0.00  0.00    +0.000 C 
ATOM      4  C   UNL     1      -0.824  12.595  19.033  0.00  0.00    +0.000 C 
ATOM      5  C   UNL     1       0.597  12.614  19.599  0.00  0.00    +0.000 C 
ATOM      6  C   UNL     1       0.821  11.489  20.602  0.00  0.00    +0.000 C 
ENDROOT
BRANCH   4   7
ATOM      7  C   UNL     1      -1.899  12.928  20.072  0.00  0.00    +0.000 C 
ATOM      8  O   UNL     1      -1.628  13.389  21.177  0.00  0.00    +0.000 OA
ATOM      9  N   UNL     1      -3.186  12.629  19.697  0.00  0.00    +0.000 N 
ATOM     10  H   UNL     1      -3.374  12.113  18.848  0.00  0.00    +0.000 HD
BRANCH   9  11
ATOM     11  C   UNL     1      -4.329  12.907  20.557  0.00  0.00    +0.000 C 
BRANCH  11  12
ATOM     12  C   UNL     1      -5.661  12.503  19.921  0.00  0.00    +0.000 C 
ATOM     13  C   UNL     1      -6.682  11.907  20.876  0.00  0.00    +0.000 C 
ATOM     14  C   UNL     1      -7.525  11.074  19.943  0.00  0.00    +0.000 C 
ATOM     15  C   UNL     1      -6.500  10.551  18.957  0.00  0.00    +0.000 C 
ATOM     16  O   UNL     1      -5.437  11.511  18.895  0.00  0.00    +0.000 OA
ENDBRANCH  11  12
ENDBRANCH   9  11
ENDBRANCH   4   7
BRANCH   1  17
ATOM     17  S   UNL     1       0.811   8.898  21.170  0.00  0.00    +0.000 S 
ATOM     18  O   UNL     1      -0.478   8.384  21.587  0.00  0.00    +0.000 OA
ATOM     19  O   UNL     1       1.761   9.408  22.136  0.00  0.00    +0.000 OA
BRANCH  17  23
ATOM     20  C   UNL     1       2.916   5.677  18.718  0.00  0.00    +0.000 A 
ATOM     21  C   UNL     1       2.841   6.994  18.242  0.00  0.00    +0.000 A 
ATOM     22  C   UNL     1       2.205   7.980  19.001  0.00  0.00    +0.000 A 
ATOM     23  C   UNL     1       1.637   7.641  20.230  0.00  0.00    +0.000 A 
ATOM     24  C   UNL     1       1.706   6.333  20.716  0.00  0.00    +0.000 A 
ATOM     25  C   UNL     1       2.343   5.353  19.953  0.00  0.00    +0.000 A 
BRANCH  20  27
ATOM     26  C   UNL     1       2.387   3.123  17.839  0.00  0.00    +0.000 C 
ATOM     27  S   UNL     1       3.678   4.391  17.745  0.00  0.00    +0.000 S 
ENDBRANCH  20  27
ENDBRANCH  17  23
ENDBRANCH   1  17
TORSDOF 6
ENDMDL
