MODEL 1
REMARK VINA RESULT:      -7.4      0.000      0.000
REMARK  Name = 
REMARK  8 active torsions:
REMARK  status: ('A' for Active; 'I' for Inactive)
REMARK    1  A    between atoms: C_1  and  O_2
REMARK    2  A    between atoms: O_2  and  C_3
REMARK    3  A    between atoms: C_6  and  C_7
REMARK    4  A    between atoms: N_9  and  C_10
REMARK    5  A    between atoms: C_12  and  C_13
REMARK    6  A    between atoms: C_17  and  N_18
REMARK    7  A    between atoms: C_21  and  O_22
REMARK    8  A    between atoms: O_22  and  C_23
REMARK                            x       y       z     vdW  Elec       q    Type
REMARK                         _______ _______ _______ _____ _____    ______ ____
ROOT
ATOM      1  C   UNL     1      -0.053  14.096  19.003  0.00  0.00    +0.000 A 
ATOM      2  C   UNL     1       0.105  15.464  18.739  0.00  0.00    +0.000 A 
ATOM      3  C   UNL     1       1.373  16.042  18.679  0.00  0.00    +0.000 A 
ATOM      4  C   UNL     1       2.495  15.264  18.938  0.00  0.00    +0.000 A 
ATOM      5  C   UNL     1       2.345  13.911  19.255  0.00  0.00    +0.000 A 
ATOM      6  C   UNL     1       1.081  13.286  19.277  0.00  0.00    +0.000 A 
ENDROOT
BRANCH   6   7
ATOM      7  N   UNL     1       0.967  11.896  19.414  0.00  0.00    +0.000 N 
ATOM      8  C   UNL     1       1.596  11.064  18.384  0.00  0.00    +0.000 C 
ATOM      9  C   UNL     1       0.751   9.812  18.231  0.00  0.00    +0.000 C 
ATOM     10  C   UNL     1       0.639   9.046  19.558  0.00  0.00    +0.000 C 
ATOM     11  C   UNL     1       0.147   9.995  20.669  0.00  0.00    +0.000 C 
ATOM     12  C   UNL     1       1.000  11.272  20.746  0.00  0.00    +0.000 C 
BRANCH  10  13
ATOM     13  O   UNL     1       1.907   8.517  19.974  0.00  0.00    +0.000 OA
BRANCH  13  14
ATOM     14  C   UNL     1       2.139   7.179  19.796  0.00  0.00    +0.000 A 
ATOM     15  C   UNL     1       1.707   6.167  20.659  0.00  0.00    +0.000 A 
ATOM     16  C   UNL     1       1.927   4.827  20.342  0.00  0.00    +0.000 A 
ATOM     17  C   UNL     1       2.607   4.497  19.178  0.00  0.00    +0.000 A 
ATOM     18  F   UNL     1       2.822   3.207  18.887  0.00  0.00    +0.000 F 
ATOM     19  C   UNL     1       3.066   5.480  18.316  0.00  0.00    +0.000 A 
ATOM     20  C   UNL     1       2.819   6.815  18.626  0.00  0.00    +0.000 A 
ATOM     21  F   UNL     1       3.256   7.760  17.779  0.00  0.00    +0.000 F 
ENDBRANCH  13  14
ENDBRANCH  10  13
ENDBRANCH   6   7
BRANCH   1  24
ATOM     22  C   UNL     1      -2.167  13.156  19.979  0.00  0.00    +0.000 C 
ATOM     23  O   UNL     1      -2.007  13.433  21.165  0.00  0.00    +0.000 OA
ATOM     24  N   UNL     1      -1.325  13.482  18.938  0.00  0.00    +0.000 N 
ATOM     25  H   UNL     1      -1.690  13.344  18.000  0.00  0.00    +0.000 HD
BRANCH  22  29
ATOM     26  C   UNL     1      -5.689  11.180  18.892  0.00  0.00    +0.000 A 
ATOM     27  C   UNL     1      -4.574  10.967  18.104  0.00  0.00    +0.000 A 
ATOM     28  C   UNL     1      -3.396  11.610  18.453  0.00  0.00    +0.000 A 
ATOM     29  C   UNL     1      -3.392  12.405  19.587  0.00  0.00    +0.000 A 
ATOM     30  N   UNL     1      -4.492  12.569  20.366  0.00  0.00    +0.000 NA
ATOM     31  N   UNL     1      -5.657  11.949  20.007  0.00  0.00    +0.000 NA
BRANCH  26  33
ATOM     32  C   UNL     1      -7.164   9.442  19.350  0.00  0.00    +0.000 C 
ATOM     33  O   UNL     1      -6.852  10.548  18.508  0.00  0.00    +0.000 OA
ENDBRANCH  26  33
ENDBRANCH  22  29
ENDBRANCH   1  24
BRANCH   3  34
ATOM     34  C   UNL     1       1.517  17.423  18.327  0.00  0.00    +0.000 C 
ATOM     35  N   UNL     1       1.635  18.536  18.025  0.00  0.00    +0.000 NA
ENDBRANCH   3  34
TORSDOF 7
ENDMDL
MODEL 2
REMARK VINA RESULT:      -7.1      1.043      1.376
REMARK  Name = 
REMARK  8 active torsions:
REMARK  status: ('A' for Active; 'I' for Inactive)
REMARK    1  A    between atoms: C_1  and  O_2
REMARK    2  A    between atoms: O_2  and  C_3
REMARK    3  A    between atoms: C_6  and  C_7
REMARK    4  A    between atoms: N_9  and  C_10
REMARK    5  A    between atoms: C_12  and  C_13
REMARK    6  A    between atoms: C_17  and  N_18
REMARK    7  A    between atoms: C_21  and  O_22
REMARK    8  A    between atoms: O_22  and  C_23
REMARK                            x       y       z     vdW  Elec       q    Type
REMARK                         _______ _______ _______ _____ _____    ______ ____
ROOT
ATOM      1  C   UNL     1      -0.181  14.234  19.219  0.00  0.00    +0.000 A 
ATOM      2  C   UNL     1      -0.026  15.596  18.927  0.00  0.00    +0.000 A 
ATOM      3  C   UNL     1       1.237  16.144  18.703  0.00  0.00    +0.000 A 
ATOM      4  C   UNL     1       2.365  15.342  18.826  0.00  0.00    +0.000 A 
ATOM      5  C   UNL     1       2.225  13.994  19.170  0.00  0.00    +0.000 A 
ATOM      6  C   UNL     1       0.960  13.399  19.356  0.00  0.00    +0.000 A 
ENDROOT
BRANCH   6   7
ATOM      7  N   UNL     1       0.833  12.013  19.517  0.00  0.00    +0.000 N 
ATOM      8  C   UNL     1       1.399  11.158  18.469  0.00  0.00    +0.000 C 
ATOM      9  C   UNL     1       0.529   9.917  18.374  0.00  0.00    +0.000 C 
ATOM     10  C   UNL     1       0.470   9.171  19.715  0.00  0.00    +0.000 C 
ATOM     11  C   UNL     1       0.046  10.141  20.836  0.00  0.00    +0.000 C 
ATOM     12  C   UNL     1       0.921  11.406  20.854  0.00  0.00    +0.000 C 
BRANCH  10  13
ATOM     13  O   UNL     1       1.749   8.627  20.077  0.00  0.00    +0.000 OA
BRANCH  13  14
ATOM     14  C   UNL     1       2.230   7.569  19.354  0.00  0.00    +0.000 A 
ATOM     15  C   UNL     1       2.968   7.673  18.171  0.00  0.00    +0.000 A 
ATOM     16  C   UNL     1       3.482   6.533  17.555  0.00  0.00    +0.000 A 
ATOM     17  C   UNL     1       3.231   5.283  18.103  0.00  0.00    +0.000 A 
ATOM     18  F   UNL     1       3.720   4.191  17.499  0.00  0.00    +0.000 F 
ATOM     19  C   UNL     1       2.484   5.147  19.262  0.00  0.00    +0.000 A 
ATOM     20  C   UNL     1       1.997   6.294  19.887  0.00  0.00    +0.000 A 
ATOM     21  F   UNL     1       1.285   6.155  21.015  0.00  0.00    +0.000 F 
ENDBRANCH  13  14
ENDBRANCH  10  13
ENDBRANCH   6   7
BRANCH   1  24
ATOM     22  C   UNL     1      -2.293  13.599  20.419  0.00  0.00    +0.000 C 
ATOM     23  O   UNL     1      -2.106  14.146  21.504  0.00  0.00    +0.000 OA
ATOM     24  N   UNL     1      -1.465  13.649  19.319  0.00  0.00    +0.000 N 
ATOM     25  H   UNL     1      -1.848  13.301  18.446  0.00  0.00    +0.000 HD
BRANCH  22  29
ATOM     26  C   UNL     1      -5.872  11.488  19.948  0.00  0.00    +0.000 A 
ATOM     27  C   UNL     1      -4.977  11.459  18.896  0.00  0.00    +0.000 A 
ATOM     28  C   UNL     1      -3.782  12.149  19.038  0.00  0.00    +0.000 A 
ATOM     29  C   UNL     1      -3.538  12.803  20.234  0.00  0.00    +0.000 A 
ATOM     30  N   UNL     1      -4.419  12.786  21.267  0.00  0.00    +0.000 NA
ATOM     31  N   UNL     1      -5.604  12.121  21.116  0.00  0.00    +0.000 NA
BRANCH  26  33
ATOM     32  C   UNL     1      -7.809  10.721  20.979  0.00  0.00    +0.000 C 
ATOM     33  O   UNL     1      -7.061  10.814  19.772  0.00  0.00    +0.000 OA
ENDBRANCH  26  33
ENDBRANCH  22  29
ENDBRANCH   1  24
BRANCH   3  34
ATOM     34  C   UNL     1       1.367  17.519  18.325  0.00  0.00    +0.000 C 
ATOM     35  N   UNL     1       1.467  18.629  18.002  0.00  0.00    +0.000 NA
ENDBRANCH   3  34
TORSDOF 7
ENDMDL
MODEL 3
REMARK VINA RESULT:      -7.0      2.119      2.391
REMARK  Name = 
REMARK  8 active torsions:
REMARK  status: ('A' for Active; 'I' for Inactive)
REMARK    1  A    between atoms: C_1  and  O_2
REMARK    2  A    between atoms: O_2  and  C_3
REMARK    3  A    between atoms: C_6  and  C_7
REMARK    4  A    between atoms: N_9  and  C_10
REMARK    5  A    between atoms: C_12  and  C_13
REMARK    6  A    between atoms: C_17  and  N_18
REMARK    7  A    between atoms: C_21  and  O_22
REMARK    8  A    between atoms: O_22  and  C_23
REMARK                            x       y       z     vdW  Elec       q    Type
REMARK                         _______ _______ _______ _____ _____    ______ ____
ROOT
ATOM      1  C   UNL     1       0.005  13.465  18.693  0.00  0.00    +0.000 A 
ATOM      2  C   UNL     1       0.040  14.866  18.719  0.00  0.00    +0.000 A 
ATOM      3  C   UNL     1       1.019  15.547  19.443  0.00  0.00    +0.000 A 
ATOM      4  C   UNL     1       1.940  14.828  20.195  0.00  0.00    +0.000 A 
ATOM      5  C   UNL     1       1.881  13.432  20.219  0.00  0.00    +0.000 A 
ATOM      6  C   UNL     1       0.934  12.713  19.460  0.00  0.00    +0.000 A 
ENDROOT
BRANCH   6   7
ATOM      7  N   UNL     1       1.008  11.318  19.352  0.00  0.00    +0.000 N 
ATOM      8  C   UNL     1       2.009  10.765  18.435  0.00  0.00    +0.000 C 
ATOM      9  C   UNL     1       1.442   9.478  17.863  0.00  0.00    +0.000 C 
ATOM     10  C   UNL     1       1.104   8.472  18.973  0.00  0.00    +0.000 C 
ATOM     11  C   UNL     1       0.193   9.139  20.024  0.00  0.00    +0.000 C 
ATOM     12  C   UNL     1       0.784  10.465  20.530  0.00  0.00    +0.000 C 
BRANCH  10  13
ATOM     13  O   UNL     1       2.284   8.017  19.654  0.00  0.00    +0.000 OA
BRANCH  13  14
ATOM     14  C   UNL     1       2.502   6.667  19.737  0.00  0.00    +0.000 A 
ATOM     15  C   UNL     1       1.909   5.814  20.673  0.00  0.00    +0.000 A 
ATOM     16  C   UNL     1       2.137   4.439  20.619  0.00  0.00    +0.000 A 
ATOM     17  C   UNL     1       2.984   3.919  19.651  0.00  0.00    +0.000 A 
ATOM     18  F   UNL     1       3.205   2.598  19.614  0.00  0.00    +0.000 F 
ATOM     19  C   UNL     1       3.603   4.744  18.725  0.00  0.00    +0.000 A 
ATOM     20  C   UNL     1       3.349   6.113  18.768  0.00  0.00    +0.000 A 
ATOM     21  F   UNL     1       3.942   6.903  17.860  0.00  0.00    +0.000 F 
ENDBRANCH  13  14
ENDBRANCH  10  13
ENDBRANCH   6   7
BRANCH   1  24
ATOM     22  C   UNL     1      -1.982  12.000  18.233  0.00  0.00    +0.000 C 
ATOM     23  O   UNL     1      -2.416  11.850  19.372  0.00  0.00    +0.000 OA
ATOM     24  N   UNL     1      -0.904  12.772  17.859  0.00  0.00    +0.000 N 
ATOM     25  H   UNL     1      -0.788  12.939  16.864  0.00  0.00    +0.000 HD
BRANCH  22  29
ATOM     26  C   UNL     1      -3.957  10.182  15.026  0.00  0.00    +0.000 A 
ATOM     27  C   UNL     1      -2.730   9.662  15.391  0.00  0.00    +0.000 A 
ATOM     28  C   UNL     1      -2.064  10.249  16.457  0.00  0.00    +0.000 A 
ATOM     29  C   UNL     1      -2.676  11.303  17.114  0.00  0.00    +0.000 A 
ATOM     30  N   UNL     1      -3.898  11.773  16.758  0.00  0.00    +0.000 NA
ATOM     31  N   UNL     1      -4.544  11.204  15.695  0.00  0.00    +0.000 NA
BRANCH  26  33
ATOM     32  C   UNL     1      -3.919   9.874  12.722  0.00  0.00    +0.000 C 
ATOM     33  O   UNL     1      -4.586   9.595  13.949  0.00  0.00    +0.000 OA
ENDBRANCH  26  33
ENDBRANCH  22  29
ENDBRANCH   1  24
BRANCH   3  34
ATOM     34  C   UNL     1       1.087  16.976  19.390  0.00  0.00    +0.000 C 
ATOM     35  N   UNL     1       1.132  18.135  19.361  0.00  0.00    +0.000 NA
ENDBRANCH   3  34
TORSDOF 7
ENDMDL
MODEL 4
REMARK VINA RESULT:      -7.0      1.276      1.557
REMARK  Name = 
REMARK  8 active torsions:
REMARK  status: ('A' for Active; 'I' for Inactive)
REMARK    1  A    between atoms: C_1  and  O_2
REMARK    2  A    between atoms: O_2  and  C_3
REMARK    3  A    between atoms: C_6  and  C_7
REMARK    4  A    between atoms: N_9  and  C_10
REMARK    5  A    between atoms: C_12  and  C_13
REMARK    6  A    between atoms: C_17  and  N_18
REMARK    7  A    between atoms: C_21  and  O_22
REMARK    8  A    between atoms: O_22  and  C_23
REMARK                            x       y       z     vdW  Elec       q    Type
REMARK                         _______ _______ _______ _____ _____    ______ ____
ROOT
ATOM      1  C   UNL     1      -0.188  13.799  19.292  0.00  0.00    +0.000 A 
ATOM      2  C   UNL     1      -0.081  15.177  19.059  0.00  0.00    +0.000 A 
ATOM      3  C   UNL     1       1.163  15.781  18.877  0.00  0.00    +0.000 A 
ATOM      4  C   UNL     1       2.319  15.017  18.984  0.00  0.00    +0.000 A 
ATOM      5  C   UNL     1       2.227  13.652  19.270  0.00  0.00    +0.000 A 
ATOM      6  C   UNL     1       0.983  13.002  19.411  0.00  0.00    +0.000 A 
ENDROOT
BRANCH   6   7
ATOM      7  N   UNL     1       0.907  11.607  19.513  0.00  0.00    +0.000 N 
ATOM      8  C   UNL     1       1.527  10.819  18.444  0.00  0.00    +0.000 C 
ATOM      9  C   UNL     1       0.709   9.550  18.279  0.00  0.00    +0.000 C 
ATOM     10  C   UNL     1       0.652   8.747  19.587  0.00  0.00    +0.000 C 
ATOM     11  C   UNL     1       0.168   9.653  20.737  0.00  0.00    +0.000 C 
ATOM     12  C   UNL     1       0.991  10.949  20.826  0.00  0.00    +0.000 C 
BRANCH  10  13
ATOM     13  O   UNL     1       1.943   8.238  19.955  0.00  0.00    +0.000 OA
BRANCH  13  14
ATOM     14  C   UNL     1       2.427   7.151  19.277  0.00  0.00    +0.000 A 
ATOM     15  C   UNL     1       3.208   7.208  18.119  0.00  0.00    +0.000 A 
ATOM     16  C   UNL     1       3.718   6.040  17.553  0.00  0.00    +0.000 A 
ATOM     17  C   UNL     1       3.421   4.811  18.125  0.00  0.00    +0.000 A 
ATOM     18  F   UNL     1       3.908   3.693  17.568  0.00  0.00    +0.000 F 
ATOM     19  C   UNL     1       2.631   4.723  19.260  0.00  0.00    +0.000 A 
ATOM     20  C   UNL     1       2.148   5.896  19.836  0.00  0.00    +0.000 A 
ATOM     21  F   UNL     1       1.394   5.803  20.942  0.00  0.00    +0.000 F 
ENDBRANCH  13  14
ENDBRANCH  10  13
ENDBRANCH   6   7
BRANCH   1  24
ATOM     22  C   UNL     1      -2.053  12.385  18.384  0.00  0.00    +0.000 C 
ATOM     23  O   UNL     1      -1.557  12.017  17.322  0.00  0.00    +0.000 OA
ATOM     24  N   UNL     1      -1.449  13.162  19.348  0.00  0.00    +0.000 N 
ATOM     25  H   UNL     1      -1.922  13.222  20.245  0.00  0.00    +0.000 HD
BRANCH  22  29
ATOM     26  C   UNL     1      -5.995  11.324  19.291  0.00  0.00    +0.000 A 
ATOM     27  C   UNL     1      -5.416  10.725  18.189  0.00  0.00    +0.000 A 
ATOM     28  C   UNL     1      -4.107  11.061  17.877  0.00  0.00    +0.000 A 
ATOM     29  C   UNL     1      -3.443  11.954  18.702  0.00  0.00    +0.000 A 
ATOM     30  N   UNL     1      -4.023  12.502  19.800  0.00  0.00    +0.000 NA
ATOM     31  N   UNL     1      -5.320  12.183  20.093  0.00  0.00    +0.000 NA
BRANCH  26  33
ATOM     32  C   UNL     1      -7.595  11.055  20.956  0.00  0.00    +0.000 C 
ATOM     33  O   UNL     1      -7.305  10.991  19.564  0.00  0.00    +0.000 OA
ENDBRANCH  26  33
ENDBRANCH  22  29
ENDBRANCH   1  24
BRANCH   3  34
ATOM     34  C   UNL     1       1.245  17.175  18.558  0.00  0.00    +0.000 C 
ATOM     35  N   UNL     1       1.294  18.304  18.297  0.00  0.00    +0.000 NA
ENDBRANCH   3  34
TORSDOF 7
ENDMDL
MODEL 5
REMARK VINA RESULT:      -7.0      1.340      1.402
REMARK  Name = 
REMARK  8 active torsions:
REMARK  status: ('A' for Active; 'I' for Inactive)
REMARK    1  A    between atoms: C_1  and  O_2
REMARK    2  A    between atoms: O_2  and  C_3
REMARK    3  A    between atoms: C_6  and  C_7
REMARK    4  A    between atoms: N_9  and  C_10
REMARK    5  A    between atoms: C_12  and  C_13
REMARK    6  A    between atoms: C_17  and  N_18
REMARK    7  A    between atoms: C_21  and  O_22
REMARK    8  A    between atoms: O_22  and  C_23
REMARK                            x       y       z     vdW  Elec       q    Type
REMARK                         _______ _______ _______ _____ _____    ______ ____
ROOT
ATOM      1  C   UNL     1      -0.256  14.432  19.376  0.00  0.00    +0.000 A 
ATOM      2  C   UNL     1      -0.108  15.755  18.936  0.00  0.00    +0.000 A 
ATOM      3  C   UNL     1       1.114  16.218  18.448  0.00  0.00    +0.000 A 
ATOM      4  C   UNL     1       2.217  15.373  18.448  0.00  0.00    +0.000 A 
ATOM      5  C   UNL     1       2.094  14.068  18.933  0.00  0.00    +0.000 A 
ATOM      6  C   UNL     1       0.862  13.555  19.389  0.00  0.00    +0.000 A 
ENDROOT
BRANCH   6   7
ATOM      7  N   UNL     1       0.717  12.196  19.696  0.00  0.00    +0.000 N 
ATOM      8  C   UNL     1       1.076  11.228  18.655  0.00  0.00    +0.000 C 
ATOM      9  C   UNL     1       0.162  10.025  18.817  0.00  0.00    +0.000 C 
ATOM     10  C   UNL     1       0.299   9.402  20.214  0.00  0.00    +0.000 C 
ATOM     11  C   UNL     1       0.097  10.485  21.293  0.00  0.00    +0.000 C 
ATOM     12  C   UNL     1       1.003  11.703  21.053  0.00  0.00    +0.000 C 
BRANCH  10  13
ATOM     13  O   UNL     1       1.601   8.832  20.415  0.00  0.00    +0.000 OA
BRANCH  13  14
ATOM     14  C   UNL     1       1.791   7.518  20.079  0.00  0.00    +0.000 A 
ATOM     15  C   UNL     1       1.423   6.424  20.868  0.00  0.00    +0.000 A 
ATOM     16  C   UNL     1       1.588   5.123  20.395  0.00  0.00    +0.000 A 
ATOM     17  C   UNL     1       2.151   4.912  19.144  0.00  0.00    +0.000 A 
ATOM     18  F   UNL     1       2.315   3.658  18.702  0.00  0.00    +0.000 F 
ATOM     19  C   UNL     1       2.547   5.976  18.350  0.00  0.00    +0.000 A 
ATOM     20  C   UNL     1       2.354   7.274  18.818  0.00  0.00    +0.000 A 
ATOM     21  F   UNL     1       2.728   8.299  18.037  0.00  0.00    +0.000 F 
ENDBRANCH  13  14
ENDBRANCH  10  13
ENDBRANCH   6   7
BRANCH   1  24
ATOM     22  C   UNL     1      -2.377  14.400  20.718  0.00  0.00    +0.000 C 
ATOM     23  O   UNL     1      -2.240  15.428  21.377  0.00  0.00    +0.000 OA
ATOM     24  N   UNL     1      -1.521  13.923  19.749  0.00  0.00    +0.000 N 
ATOM     25  H   UNL     1      -1.868  13.164  19.170  0.00  0.00    +0.000 HD
BRANCH  22  29
ATOM     26  C   UNL     1      -5.821  12.157  21.492  0.00  0.00    +0.000 A 
ATOM     27  C   UNL     1      -5.568  12.495  20.177  0.00  0.00    +0.000 A 
ATOM     28  C   UNL     1      -4.427  13.235  19.901  0.00  0.00    +0.000 A 
ATOM     29  C   UNL     1      -3.589  13.567  20.953  0.00  0.00    +0.000 A 
ATOM     30  N   UNL     1      -3.841  13.191  22.232  0.00  0.00    +0.000 NA
ATOM     31  N   UNL     1      -4.977  12.478  22.503  0.00  0.00    +0.000 NA
BRANCH  26  33
ATOM     32  C   UNL     1      -7.652  11.086  20.541  0.00  0.00    +0.000 C 
ATOM     33  O   UNL     1      -6.974  11.443  21.741  0.00  0.00    +0.000 OA
ENDBRANCH  26  33
ENDBRANCH  22  29
ENDBRANCH   1  24
BRANCH   3  34
ATOM     34  C   UNL     1       1.223  17.548  17.928  0.00  0.00    +0.000 C 
ATOM     35  N   UNL     1       1.293  18.628  17.511  0.00  0.00    +0.000 NA
ENDBRANCH   3  34
TORSDOF 7
ENDMDL
MODEL 6
REMARK VINA RESULT:      -6.9      1.180      1.284
REMARK  Name = 
REMARK  8 active torsions:
REMARK  status: ('A' for Active; 'I' for Inactive)
REMARK    1  A    between atoms: C_1  and  O_2
REMARK    2  A    between atoms: O_2  and  C_3
REMARK    3  A    between atoms: C_6  and  C_7
REMARK    4  A    between atoms: N_9  and  C_10
REMARK    5  A    between atoms: C_12  and  C_13
REMARK    6  A    between atoms: C_17  and  N_18
REMARK    7  A    between atoms: C_21  and  O_22
REMARK    8  A    between atoms: O_22  and  C_23
REMARK                            x       y       z     vdW  Elec       q    Type
REMARK                         _______ _______ _______ _____ _____    ______ ____
ROOT
ATOM      1  C   UNL     1      -0.077  13.979  19.256  0.00  0.00    +0.000 A 
ATOM      2  C   UNL     1       0.072  15.332  18.923  0.00  0.00    +0.000 A 
ATOM      3  C   UNL     1       1.323  15.860  18.606  0.00  0.00    +0.000 A 
ATOM      4  C   UNL     1       2.448  15.048  18.674  0.00  0.00    +0.000 A 
ATOM      5  C   UNL     1       2.318  13.711  19.058  0.00  0.00    +0.000 A 
ATOM      6  C   UNL     1       1.062  13.134  19.338  0.00  0.00    +0.000 A 
ENDROOT
BRANCH   6   7
ATOM      7  N   UNL     1       0.932  11.754  19.539  0.00  0.00    +0.000 N 
ATOM      8  C   UNL     1       1.495  10.868  18.516  0.00  0.00    +0.000 C 
ATOM      9  C   UNL     1       0.623   9.626  18.457  0.00  0.00    +0.000 C 
ATOM     10  C   UNL     1       0.563   8.919  19.819  0.00  0.00    +0.000 C 
ATOM     11  C   UNL     1       0.142   9.922  20.912  0.00  0.00    +0.000 C 
ATOM     12  C   UNL     1       1.020  11.185  20.893  0.00  0.00    +0.000 C 
BRANCH  10  13
ATOM     13  O   UNL     1       1.841   8.383  20.196  0.00  0.00    +0.000 OA
BRANCH  13  14
ATOM     14  C   UNL     1       2.098   7.067  19.918  0.00  0.00    +0.000 A 
ATOM     15  C   UNL     1       1.651   5.983  20.679  0.00  0.00    +0.000 A 
ATOM     16  C   UNL     1       1.900   4.676  20.262  0.00  0.00    +0.000 A 
ATOM     17  C   UNL     1       2.626   4.451  19.100  0.00  0.00    +0.000 A 
ATOM     18  F   UNL     1       2.870   3.191  18.713  0.00  0.00    +0.000 F 
ATOM     19  C   UNL     1       3.102   5.506  18.339  0.00  0.00    +0.000 A 
ATOM     20  C   UNL     1       2.825   6.809  18.748  0.00  0.00    +0.000 A 
ATOM     21  F   UNL     1       3.278   7.825  17.998  0.00  0.00    +0.000 F 
ENDBRANCH  13  14
ENDBRANCH  10  13
ENDBRANCH   6   7
BRANCH   1  24
ATOM     22  C   UNL     1      -2.059  12.583  18.603  0.00  0.00    +0.000 C 
ATOM     23  O   UNL     1      -1.654  12.101  17.548  0.00  0.00    +0.000 OA
ATOM     24  N   UNL     1      -1.358  13.411  19.452  0.00  0.00    +0.000 N 
ATOM     25  H   UNL     1      -1.764  13.571  20.368  0.00  0.00    +0.000 HD
BRANCH  22  29
ATOM     26  C   UNL     1      -5.906  11.493  19.830  0.00  0.00    +0.000 A 
ATOM     27  C   UNL     1      -5.206  12.366  20.641  0.00  0.00    +0.000 A 
ATOM     28  C   UNL     1      -3.931  12.743  20.246  0.00  0.00    +0.000 A 
ATOM     29  C   UNL     1      -3.440  12.249  19.048  0.00  0.00    +0.000 A 
ATOM     30  N   UNL     1      -4.162  11.420  18.252  0.00  0.00    +0.000 NA
ATOM     31  N   UNL     1      -5.412  11.036  18.654  0.00  0.00    +0.000 NA
BRANCH  26  33
ATOM     32  C   UNL     1      -7.645  11.955  21.302  0.00  0.00    +0.000 C 
ATOM     33  O   UNL     1      -7.161  11.117  20.259  0.00  0.00    +0.000 OA
ENDBRANCH  26  33
ENDBRANCH  22  29
ENDBRANCH   1  24
BRANCH   3  34
ATOM     34  C   UNL     1       1.442  17.225  18.188  0.00  0.00    +0.000 C 
ATOM     35  N   UNL     1       1.555  18.328  17.846  0.00  0.00    +0.000 NA
ENDBRANCH   3  34
TORSDOF 7
ENDMDL
MODEL 7
REMARK VINA RESULT:      -6.9      2.845      4.247
REMARK  Name = 
REMARK  8 active torsions:
REMARK  status: ('A' for Active; 'I' for Inactive)
REMARK    1  A    between atoms: C_1  and  O_2
REMARK    2  A    between atoms: O_2  and  C_3
REMARK    3  A    between atoms: C_6  and  C_7
REMARK    4  A    between atoms: N_9  and  C_10
REMARK    5  A    between atoms: C_12  and  C_13
REMARK    6  A    between atoms: C_17  and  N_18
REMARK    7  A    between atoms: C_21  and  O_22
REMARK    8  A    between atoms: O_22  and  C_23
REMARK                            x       y       z     vdW  Elec       q    Type
REMARK                         _______ _______ _______ _____ _____    ______ ____
ROOT
ATOM      1  C   UNL     1      -3.090  13.555  21.136  0.00  0.00    +0.000 A 
ATOM      2  C   UNL     1      -3.997  14.583  21.427  0.00  0.00    +0.000 A 
ATOM      3  C   UNL     1      -3.924  15.285  22.631  0.00  0.00    +0.000 A 
ATOM      4  C   UNL     1      -2.976  14.925  23.579  0.00  0.00    +0.000 A 
ATOM      5  C   UNL     1      -2.101  13.866  23.321  0.00  0.00    +0.000 A 
ATOM      6  C   UNL     1      -2.117  13.167  22.096  0.00  0.00    +0.000 A 
ENDROOT
BRANCH   6   7
ATOM      7  N   UNL     1      -1.117  12.237  21.784  0.00  0.00    +0.000 N 
ATOM      8  C   UNL     1      -1.345  10.844  22.182  0.00  0.00    +0.000 C 
ATOM      9  C   UNL     1       0.008  10.237  22.509  0.00  0.00    +0.000 C 
ATOM     10  C   UNL     1       0.962  10.313  21.308  0.00  0.00    +0.000 C 
ATOM     11  C   UNL     1       1.041  11.764  20.794  0.00  0.00    +0.000 C 
ATOM     12  C   UNL     1      -0.355  12.353  20.531  0.00  0.00    +0.000 C 
BRANCH  10  13
ATOM     13  O   UNL     1       0.509   9.495  20.218  0.00  0.00    +0.000 OA
BRANCH  13  14
ATOM     14  C   UNL     1       1.393   8.606  19.666  0.00  0.00    +0.000 A 
ATOM     15  C   UNL     1       1.841   7.432  20.280  0.00  0.00    +0.000 A 
ATOM     16  C   UNL     1       2.680   6.553  19.596  0.00  0.00    +0.000 A 
ATOM     17  C   UNL     1       3.099   6.862  18.309  0.00  0.00    +0.000 A 
ATOM     18  F   UNL     1       3.913   6.015  17.664  0.00  0.00    +0.000 F 
ATOM     19  C   UNL     1       2.689   8.029  17.685  0.00  0.00    +0.000 A 
ATOM     20  C   UNL     1       1.829   8.889  18.364  0.00  0.00    +0.000 A 
ATOM     21  F   UNL     1       1.426  10.010  17.748  0.00  0.00    +0.000 F 
ENDBRANCH  13  14
ENDBRANCH  10  13
ENDBRANCH   6   7
BRANCH   1  24
ATOM     22  C   UNL     1      -4.028  12.092  19.323  0.00  0.00    +0.000 C 
ATOM     23  O   UNL     1      -5.122  11.811  19.807  0.00  0.00    +0.000 OA
ATOM     24  N   UNL     1      -3.078  12.928  19.868  0.00  0.00    +0.000 N 
ATOM     25  H   UNL     1      -2.312  13.202  19.260  0.00  0.00    +0.000 HD
BRANCH  22  29
ATOM     26  C   UNL     1      -3.025  10.564  15.562  0.00  0.00    +0.000 A 
ATOM     27  C   UNL     1      -2.185  10.256  16.614  0.00  0.00    +0.000 A 
ATOM     28  C   UNL     1      -2.506  10.749  17.871  0.00  0.00    +0.000 A 
ATOM     29  C   UNL     1      -3.663  11.498  18.007  0.00  0.00    +0.000 A 
ATOM     30  N   UNL     1      -4.491  11.757  16.963  0.00  0.00    +0.000 NA
ATOM     31  N   UNL     1      -4.161  11.284  15.722  0.00  0.00    +0.000 NA
BRANCH  26  33
ATOM     32  C   UNL     1      -3.795   9.928  13.462  0.00  0.00    +0.000 C 
ATOM     33  O   UNL     1      -2.670  10.081  14.320  0.00  0.00    +0.000 OA
ENDBRANCH  26  33
ENDBRANCH  22  29
ENDBRANCH   1  24
BRANCH   3  34
ATOM     34  C   UNL     1      -4.808  16.386  22.874  0.00  0.00    +0.000 C 
ATOM     35  N   UNL     1      -5.530  17.269  23.084  0.00  0.00    +0.000 NA
ENDBRANCH   3  34
TORSDOF 7
ENDMDL
MODEL 8
REMARK VINA RESULT:      -6.8      2.852      4.118
REMARK  Name = 
REMARK  8 active torsions:
REMARK  status: ('A' for Active; 'I' for Inactive)
REMARK    1  A    between atoms: C_1  and  O_2
REMARK    2  A    between atoms: O_2  and  C_3
REMARK    3  A    between atoms: C_6  and  C_7
REMARK    4  A    between atoms: N_9  and  C_10
REMARK    5  A    between atoms: C_12  and  C_13
REMARK    6  A    between atoms: C_17  and  N_18
REMARK    7  A    between atoms: C_21  and  O_22
REMARK    8  A    between atoms: O_22  and  C_23
REMARK                            x       y       z     vdW  Elec       q    Type
REMARK                         _______ _______ _______ _____ _____    ______ ____
ROOT
ATOM      1  C   UNL     1      -2.639  13.681  21.255  0.00  0.00    +0.000 A 
ATOM      2  C   UNL     1      -3.427  14.806  21.537  0.00  0.00    +0.000 A 
ATOM      3  C   UNL     1      -3.242  15.536  22.712  0.00  0.00    +0.000 A 
ATOM      4  C   UNL     1      -2.302  15.112  23.642  0.00  0.00    +0.000 A 
ATOM      5  C   UNL     1      -1.548  13.961  23.395  0.00  0.00    +0.000 A 
ATOM      6  C   UNL     1      -1.677  13.228  22.197  0.00  0.00    +0.000 A 
ENDROOT
BRANCH   6   7
ATOM      7  N   UNL     1      -0.787  12.191  21.888  0.00  0.00    +0.000 N 
ATOM      8  C   UNL     1      -1.167  10.834  22.295  0.00  0.00    +0.000 C 
ATOM      9  C   UNL     1       0.112  10.082  22.622  0.00  0.00    +0.000 C 
ATOM     10  C   UNL     1       1.064  10.046  21.417  0.00  0.00    +0.000 C 
ATOM     11  C   UNL     1       1.302  11.477  20.895  0.00  0.00    +0.000 C 
ATOM     12  C   UNL     1      -0.022  12.214  20.632  0.00  0.00    +0.000 C 
BRANCH  10  13
ATOM     13  O   UNL     1       0.519   9.277  20.333  0.00  0.00    +0.000 OA
BRANCH  13  14
ATOM     14  C   UNL     1       1.386   8.571  19.541  0.00  0.00    +0.000 A 
ATOM     15  C   UNL     1       1.881   9.005  18.308  0.00  0.00    +0.000 A 
ATOM     16  C   UNL     1       2.824   8.244  17.618  0.00  0.00    +0.000 A 
ATOM     17  C   UNL     1       3.250   7.033  18.146  0.00  0.00    +0.000 A 
ATOM     18  F   UNL     1       4.150   6.303  17.471  0.00  0.00    +0.000 F 
ATOM     19  C   UNL     1       2.759   6.567  19.355  0.00  0.00    +0.000 A 
ATOM     20  C   UNL     1       1.838   7.347  20.051  0.00  0.00    +0.000 A 
ATOM     21  F   UNL     1       1.377   6.895  21.228  0.00  0.00    +0.000 F 
ENDBRANCH  13  14
ENDBRANCH  10  13
ENDBRANCH   6   7
BRANCH   1  24
ATOM     22  C   UNL     1      -3.785  12.271  19.522  0.00  0.00    +0.000 C 
ATOM     23  O   UNL     1      -4.888  12.128  20.045  0.00  0.00    +0.000 OA
ATOM     24  N   UNL     1      -2.734  13.016  20.010  0.00  0.00    +0.000 N 
ATOM     25  H   UNL     1      -1.962  13.184  19.373  0.00  0.00    +0.000 HD
BRANCH  22  29
ATOM     26  C   UNL     1      -3.085  10.517  15.791  0.00  0.00    +0.000 A 
ATOM     27  C   UNL     1      -2.184  10.240  16.800  0.00  0.00    +0.000 A 
ATOM     28  C   UNL     1      -2.403  10.808  18.046  0.00  0.00    +0.000 A 
ATOM     29  C   UNL     1      -3.528  11.598  18.219  0.00  0.00    +0.000 A 
ATOM     30  N   UNL     1      -4.419  11.827  17.220  0.00  0.00    +0.000 NA
ATOM     31  N   UNL     1      -4.188  11.279  15.988  0.00  0.00    +0.000 NA
BRANCH  26  33
ATOM     32  C   UNL     1      -3.984   9.945  13.725  0.00  0.00    +0.000 C 
ATOM     33  O   UNL     1      -2.829   9.958  14.557  0.00  0.00    +0.000 OA
ENDBRANCH  26  33
ENDBRANCH  22  29
ENDBRANCH   1  24
BRANCH   3  34
ATOM     34  C   UNL     1      -4.001  16.728  22.942  0.00  0.00    +0.000 C 
ATOM     35  N   UNL     1      -4.600  17.703  23.134  0.00  0.00    +0.000 NA
ENDBRANCH   3  34
TORSDOF 7
ENDMDL
MODEL 9
REMARK VINA RESULT:      -6.7      3.960      8.248
REMARK  Name = 
REMARK  8 active torsions:
REMARK  status: ('A' for Active; 'I' for Inactive)
REMARK    1  A    between atoms: C_1  and  O_2
REMARK    2  A    between atoms: O_2  and  C_3
REMARK    3  A    between atoms: C_6  and  C_7
REMARK    4  A    between atoms: N_9  and  C_10
REMARK    5  A    between atoms: C_12  and  C_13
REMARK    6  A    between atoms: C_17  and  N_18
REMARK    7  A    between atoms: C_21  and  O_22
REMARK    8  A    between atoms: O_22  and  C_23
REMARK                            x       y       z     vdW  Elec       q    Type
REMARK                         _______ _______ _______ _____ _____    ______ ____
ROOT
ATOM      1  C   UNL     1      -0.493  12.106  21.994  0.00  0.00    +0.000 A 
ATOM      2  C   UNL     1      -1.644  11.752  22.713  0.00  0.00    +0.000 A 
ATOM      3  C   UNL     1      -2.439  12.725  23.320  0.00  0.00    +0.000 A 
ATOM      4  C   UNL     1      -2.057  14.059  23.260  0.00  0.00    +0.000 A 
ATOM      5  C   UNL     1      -0.883  14.417  22.592  0.00  0.00    +0.000 A 
ATOM      6  C   UNL     1      -0.083  13.464  21.927  0.00  0.00    +0.000 A 
ENDROOT
BRANCH   6   7
ATOM      7  N   UNL     1       0.984  13.863  21.111  0.00  0.00    +0.000 N 
ATOM      8  C   UNL     1       0.660  14.327  19.758  0.00  0.00    +0.000 C 
ATOM      9  C   UNL     1       1.816  13.937  18.854  0.00  0.00    +0.000 C 
ATOM     10  C   UNL     1       3.138  14.549  19.340  0.00  0.00    +0.000 C 
ATOM     11  C   UNL     1       3.365  14.196  20.823  0.00  0.00    +0.000 C 
ATOM     12  C   UNL     1       2.145  14.558  21.687  0.00  0.00    +0.000 C 
BRANCH  10  13
ATOM     13  O   UNL     1       3.131  15.981  19.235  0.00  0.00    +0.000 OA
BRANCH  13  14
ATOM     14  C   UNL     1       4.299  16.654  19.477  0.00  0.00    +0.000 A 
ATOM     15  C   UNL     1       4.492  17.587  20.500  0.00  0.00    +0.000 A 
ATOM     16  C   UNL     1       5.747  18.156  20.710  0.00  0.00    +0.000 A 
ATOM     17  C   UNL     1       6.805  17.816  19.878  0.00  0.00    +0.000 A 
ATOM     18  F   UNL     1       8.006  18.375  20.082  0.00  0.00    +0.000 F 
ATOM     19  C   UNL     1       6.637  16.911  18.842  0.00  0.00    +0.000 A 
ATOM     20  C   UNL     1       5.387  16.327  18.656  0.00  0.00    +0.000 A 
ATOM     21  F   UNL     1       5.236  15.442  17.658  0.00  0.00    +0.000 F 
ENDBRANCH  13  14
ENDBRANCH  10  13
ENDBRANCH   6   7
BRANCH   1  24
ATOM     22  C   UNL     1       0.005  10.668  19.998  0.00  0.00    +0.000 C 
ATOM     23  O   UNL     1      -0.843  11.079  19.209  0.00  0.00    +0.000 OA
ATOM     24  N   UNL     1       0.242  11.139  21.271  0.00  0.00    +0.000 N 
ATOM     25  H   UNL     1       1.095  10.821  21.721  0.00  0.00    +0.000 HD
BRANCH  22  29
ATOM     26  C   UNL     1       2.412   7.450  18.839  0.00  0.00    +0.000 A 
ATOM     27  C   UNL     1       2.092   8.382  17.871  0.00  0.00    +0.000 A 
ATOM     28  C   UNL     1       1.299   9.459  18.239  0.00  0.00    +0.000 A 
ATOM     29  C   UNL     1       0.897   9.558  19.561  0.00  0.00    +0.000 A 
ATOM     30  N   UNL     1       1.254   8.647  20.502  0.00  0.00    +0.000 NA
ATOM     31  N   UNL     1       2.020   7.576  20.130  0.00  0.00    +0.000 NA
BRANCH  26  33
ATOM     32  C   UNL     1       2.993   5.242  19.279  0.00  0.00    +0.000 C 
ATOM     33  O   UNL     1       3.180   6.377  18.440  0.00  0.00    +0.000 OA
ENDBRANCH  26  33
ENDBRANCH  22  29
ENDBRANCH   1  24
BRANCH   3  34
ATOM     34  C   UNL     1      -3.654  12.350  23.979  0.00  0.00    +0.000 C 
ATOM     35  N   UNL     1      -4.631  12.052  24.529  0.00  0.00    +0.000 NA
ENDBRANCH   3  34
TORSDOF 7
ENDMDL
