MODEL 1
REMARK VINA RESULT:      -8.6      0.000      0.000
REMARK  Name = 
REMARK  4 active torsions:
REMARK  status: ('A' for Active; 'I' for Inactive)
REMARK    1  A    between atoms: N_1  and  C_2
REMARK    2  A    between atoms: C_8  and  C_9
REMARK    3  A    between atoms: C_9  and  C_11
REMARK    4  A    between atoms: C_17  and  C_18
REMARK                            x       y       z     vdW  Elec       q    Type
REMARK                         _______ _______ _______ _____ _____    ______ ____
ROOT
ATOM      1  C   UNL     1       4.020   2.573  20.482  0.00  0.00    +0.000 A 
ATOM      2  N   UNL     1       3.242   1.969  21.409  0.00  0.00    +0.000 NA
ATOM      3  C   UNL     1       2.152   2.608  21.861  0.00  0.00    +0.000 A 
ATOM      4  N   UNL     1       1.720   3.826  21.520  0.00  0.00    +0.000 NA
ATOM      5  C   UNL     1       2.499   4.365  20.571  0.00  0.00    +0.000 A 
ATOM      6  N   UNL     1       2.260   5.583  20.036  0.00  0.00    +0.000 N 
ATOM      7  C   UNL     1       3.177   5.889  19.054  0.00  0.00    +0.000 A 
ATOM      8  C   UNL     1       4.022   4.770  18.925  0.00  0.00    +0.000 A 
ATOM      9  C   UNL     1       3.626   3.830  19.972  0.00  0.00    +0.000 A 
ATOM     10  H   UNL     1       1.491   6.167  20.330  0.00  0.00    +0.000 HD
ENDROOT
BRANCH   8  11
ATOM     11  C   UNL     1       5.061   4.618  17.872  0.00  0.00    +0.000 A 
ATOM     12  C   UNL     1       6.396   5.055  18.032  0.00  0.00    +0.000 A 
ATOM     13 CL   UNL     1       7.040   5.676  19.519  0.00  0.00    +0.000 Cl
ATOM     14  C   UNL     1       7.337   4.933  16.990  0.00  0.00    +0.000 A 
ATOM     15  C   UNL     1       7.024   4.247  15.824  0.00  0.00    +0.000 A 
ATOM     16  C   UNL     1       5.740   3.755  15.661  0.00  0.00    +0.000 A 
ATOM     17  C   UNL     1       4.753   4.009  16.629  0.00  0.00    +0.000 A 
ATOM     18 CL   UNL     1       3.145   3.563  16.147  0.00  0.00    +0.000 Cl
ENDBRANCH   8  11
BRANCH   1  19
ATOM     19  N   UNL     1       5.145   1.854  20.101  0.00  0.00    +0.000 N 
ATOM     20  H   UNL     1       4.848   1.076  19.520  0.00  0.00    +0.000 HD
ATOM     21  H   UNL     1       5.884   2.412  19.704  0.00  0.00    +0.000 HD
ENDBRANCH   1  19
BRANCH   7  22
ATOM     22  C   UNL     1       3.087   7.148  18.323  0.00  0.00    +0.000 C 
ATOM     23  O   UNL     1       3.747   7.373  17.315  0.00  0.00    +0.000 OA
BRANCH  22  24
ATOM     24  C   UNL     1       2.096   8.187  18.787  0.00  0.00    +0.000 A 
ATOM     25  C   UNL     1       1.525   9.038  17.831  0.00  0.00    +0.000 A 
ATOM     26  C   UNL     1       0.536   9.953  18.198  0.00  0.00    +0.000 A 
ATOM     27  C   UNL     1       0.114  10.034  19.525  0.00  0.00    +0.000 A 
ATOM     28  C   UNL     1       0.711   9.231  20.494  0.00  0.00    +0.000 A 
ATOM     29  C   UNL     1       1.714   8.325  20.133  0.00  0.00    +0.000 A 
ENDBRANCH  22  24
ENDBRANCH   7  22
TORSDOF 4
ENDMDL
MODEL 2
REMARK VINA RESULT:      -8.5      0.048      1.808
REMARK  Name = 
REMARK  4 active torsions:
REMARK  status: ('A' for Active; 'I' for Inactive)
REMARK    1  A    between atoms: N_1  and  C_2
REMARK    2  A    between atoms: C_8  and  C_9
REMARK    3  A    between atoms: C_9  and  C_11
REMARK    4  A    between atoms: C_17  and  C_18
REMARK                            x       y       z     vdW  Elec       q    Type
REMARK                         _______ _______ _______ _____ _____    ______ ____
ROOT
ATOM      1  C   UNL     1       4.033   2.573  20.473  0.00  0.00    +0.000 A 
ATOM      2  N   UNL     1       3.270   1.977  21.418  0.00  0.00    +0.000 NA
ATOM      3  C   UNL     1       2.195   2.626  21.892  0.00  0.00    +0.000 A 
ATOM      4  N   UNL     1       1.766   3.847  21.558  0.00  0.00    +0.000 NA
ATOM      5  C   UNL     1       2.529   4.377  20.591  0.00  0.00    +0.000 A 
ATOM      6  N   UNL     1       2.288   5.595  20.057  0.00  0.00    +0.000 N 
ATOM      7  C   UNL     1       3.186   5.892  19.056  0.00  0.00    +0.000 A 
ATOM      8  C   UNL     1       4.019   4.766  18.911  0.00  0.00    +0.000 A 
ATOM      9  C   UNL     1       3.638   3.831  19.968  0.00  0.00    +0.000 A 
ATOM     10  H   UNL     1       1.530   6.187  20.367  0.00  0.00    +0.000 HD
ENDROOT
BRANCH   8  11
ATOM     11  C   UNL     1       5.033   4.603  17.836  0.00  0.00    +0.000 A 
ATOM     12  C   UNL     1       4.749   4.005  16.587  0.00  0.00    +0.000 A 
ATOM     13 CL   UNL     1       3.157   3.530  16.081  0.00  0.00    +0.000 Cl
ATOM     14  C   UNL     1       5.751   3.827  15.614  0.00  0.00    +0.000 A 
ATOM     15  C   UNL     1       7.020   4.365  15.791  0.00  0.00    +0.000 A 
ATOM     16  C   UNL     1       7.313   5.009  16.981  0.00  0.00    +0.000 A 
ATOM     17  C   UNL     1       6.366   5.053  18.018  0.00  0.00    +0.000 A 
ATOM     18 CL   UNL     1       6.983   5.650  19.527  0.00  0.00    +0.000 Cl
ENDBRANCH   8  11
BRANCH   1  19
ATOM     19  N   UNL     1       5.143   1.843  20.070  0.00  0.00    +0.000 N 
ATOM     20  H   UNL     1       5.114   0.935  20.524  0.00  0.00    +0.000 HD
ATOM     21  H   UNL     1       5.279   1.805  19.072  0.00  0.00    +0.000 HD
ENDBRANCH   1  19
BRANCH   7  22
ATOM     22  C   UNL     1       3.091   7.150  18.324  0.00  0.00    +0.000 C 
ATOM     23  O   UNL     1       3.750   7.377  17.315  0.00  0.00    +0.000 OA
BRANCH  22  24
ATOM     24  C   UNL     1       2.095   8.185  18.786  0.00  0.00    +0.000 A 
ATOM     25  C   UNL     1       1.502   9.016  17.826  0.00  0.00    +0.000 A 
ATOM     26  C   UNL     1       0.508   9.926  18.194  0.00  0.00    +0.000 A 
ATOM     27  C   UNL     1       0.103  10.021  19.525  0.00  0.00    +0.000 A 
ATOM     28  C   UNL     1       0.722   9.238  20.497  0.00  0.00    +0.000 A 
ATOM     29  C   UNL     1       1.730   8.338  20.135  0.00  0.00    +0.000 A 
ENDBRANCH  22  24
ENDBRANCH   7  22
TORSDOF 4
ENDMDL
MODEL 3
REMARK VINA RESULT:      -7.8      7.077      9.499
REMARK  Name = 
REMARK  4 active torsions:
REMARK  status: ('A' for Active; 'I' for Inactive)
REMARK    1  A    between atoms: N_1  and  C_2
REMARK    2  A    between atoms: C_8  and  C_9
REMARK    3  A    between atoms: C_9  and  C_11
REMARK    4  A    between atoms: C_17  and  C_18
REMARK                            x       y       z     vdW  Elec       q    Type
REMARK                         _______ _______ _______ _____ _____    ______ ____
ROOT
ATOM      1  C   UNL     1       2.036  14.015  20.387  0.00  0.00    +0.000 A 
ATOM      2  N   UNL     1       2.497  15.257  20.110  0.00  0.00    +0.000 NA
ATOM      3  C   UNL     1       1.697  16.120  19.466  0.00  0.00    +0.000 A 
ATOM      4  N   UNL     1       0.456  15.906  19.022  0.00  0.00    +0.000 NA
ATOM      5  C   UNL     1       0.029  14.679  19.356  0.00  0.00    +0.000 A 
ATOM      6  N   UNL     1      -1.205  14.225  19.045  0.00  0.00    +0.000 N 
ATOM      7  C   UNL     1      -1.412  12.955  19.535  0.00  0.00    +0.000 A 
ATOM      8  C   UNL     1      -0.250  12.600  20.246  0.00  0.00    +0.000 A 
ATOM      9  C   UNL     1       0.705  13.688  20.047  0.00  0.00    +0.000 A 
ATOM     10  H   UNL     1      -1.875  14.777  18.527  0.00  0.00    +0.000 HD
ENDROOT
BRANCH   8  11
ATOM     11  C   UNL     1      -0.108  11.366  21.064  0.00  0.00    +0.000 A 
ATOM     12  C   UNL     1      -0.595  11.254  22.387  0.00  0.00    +0.000 A 
ATOM     13 CL   UNL     1      -1.555  12.468  23.172  0.00  0.00    +0.000 Cl
ATOM     14  C   UNL     1      -0.398  10.082  23.143  0.00  0.00    +0.000 A 
ATOM     15  C   UNL     1       0.153   8.945  22.566  0.00  0.00    +0.000 A 
ATOM     16  C   UNL     1       0.586   9.005  21.252  0.00  0.00    +0.000 A 
ATOM     17  C   UNL     1       0.535  10.216  20.541  0.00  0.00    +0.000 A 
ATOM     18 CL   UNL     1       1.363  10.186  19.015  0.00  0.00    +0.000 Cl
ENDBRANCH   8  11
BRANCH   1  19
ATOM     19  N   UNL     1       2.946  13.180  21.022  0.00  0.00    +0.000 N 
ATOM     20  H   UNL     1       3.341  12.550  20.330  0.00  0.00    +0.000 HD
ATOM     21  H   UNL     1       3.629  13.658  21.588  0.00  0.00    +0.000 HD
ENDBRANCH   1  19
BRANCH   7  22
ATOM     22  C   UNL     1      -2.692  12.283  19.337  0.00  0.00    +0.000 C 
ATOM     23  O   UNL     1      -3.639  12.432  20.101  0.00  0.00    +0.000 OA
BRANCH  22  24
ATOM     24  C   UNL     1      -2.880  11.427  18.109  0.00  0.00    +0.000 A 
ATOM     25  C   UNL     1      -4.016  11.636  17.316  0.00  0.00    +0.000 A 
ATOM     26  C   UNL     1      -4.186  10.931  16.123  0.00  0.00    +0.000 A 
ATOM     27  C   UNL     1      -3.227  10.004  15.714  0.00  0.00    +0.000 A 
ATOM     28  C   UNL     1      -2.120   9.748  16.520  0.00  0.00    +0.000 A 
ATOM     29  C   UNL     1      -1.955  10.440  17.724  0.00  0.00    +0.000 A 
ENDBRANCH  22  24
ENDBRANCH   7  22
TORSDOF 4
ENDMDL
MODEL 4
REMARK VINA RESULT:      -7.8      6.998      9.592
REMARK  Name = 
REMARK  4 active torsions:
REMARK  status: ('A' for Active; 'I' for Inactive)
REMARK    1  A    between atoms: N_1  and  C_2
REMARK    2  A    between atoms: C_8  and  C_9
REMARK    3  A    between atoms: C_9  and  C_11
REMARK    4  A    between atoms: C_17  and  C_18
REMARK                            x       y       z     vdW  Elec       q    Type
REMARK                         _______ _______ _______ _____ _____    ______ ____
ROOT
ATOM      1  C   UNL     1       1.753  14.326  20.578  0.00  0.00    +0.000 A 
ATOM      2  N   UNL     1       2.065  15.641  20.511  0.00  0.00    +0.000 NA
ATOM      3  C   UNL     1       1.126  16.514  20.116  0.00  0.00    +0.000 A 
ATOM      4  N   UNL     1      -0.129  16.248  19.741  0.00  0.00    +0.000 NA
ATOM      5  C   UNL     1      -0.402  14.941  19.864  0.00  0.00    +0.000 A 
ATOM      6  N   UNL     1      -1.613  14.417  19.574  0.00  0.00    +0.000 N 
ATOM      7  C   UNL     1      -1.648  13.063  19.823  0.00  0.00    +0.000 A 
ATOM      8  C   UNL     1      -0.391  12.714  20.352  0.00  0.00    +0.000 A 
ATOM      9  C   UNL     1       0.432  13.921  20.291  0.00  0.00    +0.000 A 
ATOM     10  H   UNL     1      -2.382  14.976  19.230  0.00  0.00    +0.000 HD
ENDROOT
BRANCH   8  11
ATOM     11  C   UNL     1      -0.051  11.375  20.900  0.00  0.00    +0.000 A 
ATOM     12  C   UNL     1       0.716  10.421  20.192  0.00  0.00    +0.000 A 
ATOM     13 CL   UNL     1       1.492  10.737  18.672  0.00  0.00    +0.000 Cl
ATOM     14  C   UNL     1       0.976   9.144  20.729  0.00  0.00    +0.000 A 
ATOM     15  C   UNL     1       0.612   8.832  22.032  0.00  0.00    +0.000 A 
ATOM     16  C   UNL     1      -0.089   9.768  22.774  0.00  0.00    +0.000 A 
ATOM     17  C   UNL     1      -0.488  10.983  22.191  0.00  0.00    +0.000 A 
ATOM     18 CL   UNL     1      -1.586  11.917  23.160  0.00  0.00    +0.000 Cl
ENDBRANCH   8  11
BRANCH   1  19
ATOM     19  N   UNL     1       2.798  13.495  20.960  0.00  0.00    +0.000 N 
ATOM     20  H   UNL     1       2.423  12.569  21.141  0.00  0.00    +0.000 HD
ATOM     21  H   UNL     1       3.592  13.509  20.340  0.00  0.00    +0.000 HD
ENDBRANCH   1  19
BRANCH   7  22
ATOM     22  C   UNL     1      -2.873  12.300  19.604  0.00  0.00    +0.000 C 
ATOM     23  O   UNL     1      -3.828  12.354  20.369  0.00  0.00    +0.000 OA
BRANCH  22  24
ATOM     24  C   UNL     1      -2.994  11.467  18.352  0.00  0.00    +0.000 A 
ATOM     25  C   UNL     1      -4.091  11.686  17.508  0.00  0.00    +0.000 A 
ATOM     26  C   UNL     1      -4.197  11.003  16.294  0.00  0.00    +0.000 A 
ATOM     27  C   UNL     1      -3.215  10.089  15.915  0.00  0.00    +0.000 A 
ATOM     28  C   UNL     1      -2.148   9.823  16.770  0.00  0.00    +0.000 A 
ATOM     29  C   UNL     1      -2.046  10.492  17.994  0.00  0.00    +0.000 A 
ENDBRANCH  22  24
ENDBRANCH   7  22
TORSDOF 4
ENDMDL
MODEL 5
REMARK VINA RESULT:      -7.7      6.899      9.481
REMARK  Name = 
REMARK  4 active torsions:
REMARK  status: ('A' for Active; 'I' for Inactive)
REMARK    1  A    between atoms: N_1  and  C_2
REMARK    2  A    between atoms: C_8  and  C_9
REMARK    3  A    between atoms: C_9  and  C_11
REMARK    4  A    between atoms: C_17  and  C_18
REMARK                            x       y       z     vdW  Elec       q    Type
REMARK                         _______ _______ _______ _____ _____    ______ ____
ROOT
ATOM      1  C   UNL     1       1.856  14.246  20.508  0.00  0.00    +0.000 A 
ATOM      2  N   UNL     1       2.180  15.557  20.426  0.00  0.00    +0.000 NA
ATOM      3  C   UNL     1       1.257  16.430  19.996  0.00  0.00    +0.000 A 
ATOM      4  N   UNL     1       0.008  16.168  19.600  0.00  0.00    +0.000 NA
ATOM      5  C   UNL     1      -0.278  14.865  19.739  0.00  0.00    +0.000 A 
ATOM      6  N   UNL     1      -1.488  14.347  19.432  0.00  0.00    +0.000 N 
ATOM      7  C   UNL     1      -1.539  12.997  19.703  0.00  0.00    +0.000 A 
ATOM      8  C   UNL     1      -0.297  12.648  20.265  0.00  0.00    +0.000 A 
ATOM      9  C   UNL     1       0.537  13.846  20.201  0.00  0.00    +0.000 A 
ATOM     10  H   UNL     1      -2.244  14.906  19.062  0.00  0.00    +0.000 HD
ENDROOT
BRANCH   8  11
ATOM     11  C   UNL     1       0.021  11.315  20.842  0.00  0.00    +0.000 A 
ATOM     12  C   UNL     1      -0.412  10.902  22.123  0.00  0.00    +0.000 A 
ATOM     13 CL   UNL     1      -1.496  11.821  23.121  0.00  0.00    +0.000 Cl
ATOM     14  C   UNL     1      -0.050   9.648  22.651  0.00  0.00    +0.000 A 
ATOM     15  C   UNL     1       0.624   8.715  21.873  0.00  0.00    +0.000 A 
ATOM     16  C   UNL     1       1.011   9.067  20.591  0.00  0.00    +0.000 A 
ATOM     17  C   UNL     1       0.789  10.371  20.115  0.00  0.00    +0.000 A 
ATOM     18 CL   UNL     1       1.573  10.725  18.606  0.00  0.00    +0.000 Cl
ENDBRANCH   8  11
BRANCH   1  19
ATOM     19  N   UNL     1       2.885  13.413  20.927  0.00  0.00    +0.000 N 
ATOM     20  H   UNL     1       2.529  12.463  20.981  0.00  0.00    +0.000 HD
ATOM     21  H   UNL     1       3.740  13.507  20.401  0.00  0.00    +0.000 HD
ENDBRANCH   1  19
BRANCH   7  22
ATOM     22  C   UNL     1      -2.765  12.241  19.470  0.00  0.00    +0.000 C 
ATOM     23  O   UNL     1      -3.696  12.233  20.268  0.00  0.00    +0.000 OA
BRANCH  22  24
ATOM     24  C   UNL     1      -2.921  11.494  18.169  0.00  0.00    +0.000 A 
ATOM     25  C   UNL     1      -1.935  10.566  17.809  0.00  0.00    +0.000 A 
ATOM     26  C   UNL     1      -2.082   9.786  16.660  0.00  0.00    +0.000 A 
ATOM     27  C   UNL     1      -3.211   9.931  15.854  0.00  0.00    +0.000 A 
ATOM     28  C   UNL     1      -4.172  10.887  16.172  0.00  0.00    +0.000 A 
ATOM     29  C   UNL     1      -4.021  11.682  17.313  0.00  0.00    +0.000 A 
ENDBRANCH  22  24
ENDBRANCH   7  22
TORSDOF 4
ENDMDL
MODEL 6
REMARK VINA RESULT:      -7.7      6.932      9.516
REMARK  Name = 
REMARK  4 active torsions:
REMARK  status: ('A' for Active; 'I' for Inactive)
REMARK    1  A    between atoms: N_1  and  C_2
REMARK    2  A    between atoms: C_8  and  C_9
REMARK    3  A    between atoms: C_9  and  C_11
REMARK    4  A    between atoms: C_17  and  C_18
REMARK                            x       y       z     vdW  Elec       q    Type
REMARK                         _______ _______ _______ _____ _____    ______ ____
ROOT
ATOM      1  C   UNL     1       2.005  14.209  20.375  0.00  0.00    +0.000 A 
ATOM      2  N   UNL     1       2.367  15.504  20.221  0.00  0.00    +0.000 NA
ATOM      3  C   UNL     1       1.476  16.375  19.724  0.00  0.00    +0.000 A 
ATOM      4  N   UNL     1       0.227  16.124  19.321  0.00  0.00    +0.000 NA
ATOM      5  C   UNL     1      -0.098  14.839  19.531  0.00  0.00    +0.000 A 
ATOM      6  N   UNL     1      -1.316  14.336  19.232  0.00  0.00    +0.000 N 
ATOM      7  C   UNL     1      -1.410  13.007  19.580  0.00  0.00    +0.000 A 
ATOM      8  C   UNL     1      -0.187  12.658  20.185  0.00  0.00    +0.000 A 
ATOM      9  C   UNL     1       0.681  13.828  20.067  0.00  0.00    +0.000 A 
ATOM     10  H   UNL     1      -2.050  14.893  18.817  0.00  0.00    +0.000 HD
ENDROOT
BRANCH   8  11
ATOM     11  C   UNL     1       0.083  11.354  20.845  0.00  0.00    +0.000 A 
ATOM     12  C   UNL     1       0.799  10.305  20.224  0.00  0.00    +0.000 A 
ATOM     13 CL   UNL     1       1.590  10.451  18.685  0.00  0.00    +0.000 Cl
ATOM     14  C   UNL     1       0.992   9.067  20.867  0.00  0.00    +0.000 A 
ATOM     15  C   UNL     1       0.613   8.885  22.191  0.00  0.00    +0.000 A 
ATOM     16  C   UNL     1      -0.039   9.916  22.848  0.00  0.00    +0.000 A 
ATOM     17  C   UNL     1      -0.373  11.096  22.162  0.00  0.00    +0.000 A 
ATOM     18 CL   UNL     1      -1.421  12.164  23.045  0.00  0.00    +0.000 Cl
ENDBRANCH   8  11
BRANCH   1  19
ATOM     19  N   UNL     1       3.004  13.375  20.860  0.00  0.00    +0.000 N 
ATOM     20  H   UNL     1       2.817  13.186  21.840  0.00  0.00    +0.000 HD
ATOM     21  H   UNL     1       3.169  12.552  20.302  0.00  0.00    +0.000 HD
ENDBRANCH   1  19
BRANCH   7  22
ATOM     22  C   UNL     1      -2.652  12.272  19.370  0.00  0.00    +0.000 C 
ATOM     23  O   UNL     1      -3.584  12.311  20.166  0.00  0.00    +0.000 OA
BRANCH  22  24
ATOM     24  C   UNL     1      -2.824  11.488  18.093  0.00  0.00    +0.000 A 
ATOM     25  C   UNL     1      -1.843  10.550  17.748  0.00  0.00    +0.000 A 
ATOM     26  C   UNL     1      -2.004   9.737  16.623  0.00  0.00    +0.000 A 
ATOM     27  C   UNL     1      -3.142   9.859  15.828  0.00  0.00    +0.000 A 
ATOM     28  C   UNL     1      -4.099  10.825  16.129  0.00  0.00    +0.000 A 
ATOM     29  C   UNL     1      -3.934  11.653  17.245  0.00  0.00    +0.000 A 
ENDBRANCH  22  24
ENDBRANCH   7  22
TORSDOF 4
ENDMDL
MODEL 7
REMARK VINA RESULT:      -7.6      6.353      9.188
REMARK  Name = 
REMARK  4 active torsions:
REMARK  status: ('A' for Active; 'I' for Inactive)
REMARK    1  A    between atoms: N_1  and  C_2
REMARK    2  A    between atoms: C_8  and  C_9
REMARK    3  A    between atoms: C_9  and  C_11
REMARK    4  A    between atoms: C_17  and  C_18
REMARK                            x       y       z     vdW  Elec       q    Type
REMARK                         _______ _______ _______ _____ _____    ______ ____
ROOT
ATOM      1  C   UNL     1       1.835  13.982  20.074  0.00  0.00    +0.000 A 
ATOM      2  N   UNL     1       1.992  15.322  19.978  0.00  0.00    +0.000 NA
ATOM      3  C   UNL     1       1.127  16.027  19.233  0.00  0.00    +0.000 A 
ATOM      4  N   UNL     1       0.095  15.563  18.522  0.00  0.00    +0.000 NA
ATOM      5  C   UNL     1      -0.043  14.239  18.682  0.00  0.00    +0.000 A 
ATOM      6  N   UNL     1      -1.030  13.531  18.089  0.00  0.00    +0.000 N 
ATOM      7  C   UNL     1      -0.979  12.202  18.445  0.00  0.00    +0.000 A 
ATOM      8  C   UNL     1       0.080  12.067  19.363  0.00  0.00    +0.000 A 
ATOM      9  C   UNL     1       0.729  13.375  19.439  0.00  0.00    +0.000 A 
ATOM     10  H   UNL     1      -1.712  13.954  17.475  0.00  0.00    +0.000 HD
ENDROOT
BRANCH   8  11
ATOM     11  C   UNL     1       0.389  10.823  20.115  0.00  0.00    +0.000 A 
ATOM     12  C   UNL     1       1.041   9.710  19.536  0.00  0.00    +0.000 A 
ATOM     13 CL   UNL     1       1.707   9.704  17.933  0.00  0.00    +0.000 Cl
ATOM     14  C   UNL     1       1.273   8.531  20.272  0.00  0.00    +0.000 A 
ATOM     15  C   UNL     1       1.000   8.475  21.633  0.00  0.00    +0.000 A 
ATOM     16  C   UNL     1       0.414   9.572  22.243  0.00  0.00    +0.000 A 
ATOM     17  C   UNL     1       0.038  10.692  21.482  0.00  0.00    +0.000 A 
ATOM     18 CL   UNL     1      -0.924  11.853  22.345  0.00  0.00    +0.000 Cl
ENDBRANCH   8  11
BRANCH   1  19
ATOM     19  N   UNL     1       2.798  13.332  20.835  0.00  0.00    +0.000 N 
ATOM     20  H   UNL     1       3.060  12.474  20.358  0.00  0.00    +0.000 HD
ATOM     21  H   UNL     1       3.577  13.911  21.107  0.00  0.00    +0.000 HD
ENDBRANCH   1  19
BRANCH   7  22
ATOM     22  C   UNL     1      -1.971  11.260  17.938  0.00  0.00    +0.000 C 
ATOM     23  O   UNL     1      -1.662  10.232  17.347  0.00  0.00    +0.000 OA
BRANCH  22  24
ATOM     24  C   UNL     1      -3.431  11.528  18.210  0.00  0.00    +0.000 A 
ATOM     25  C   UNL     1      -3.790  12.071  19.451  0.00  0.00    +0.000 A 
ATOM     26  C   UNL     1      -5.116  12.420  19.715  0.00  0.00    +0.000 A 
ATOM     27  C   UNL     1      -6.099  12.222  18.745  0.00  0.00    +0.000 A 
ATOM     28  C   UNL     1      -5.764  11.633  17.527  0.00  0.00    +0.000 A 
ATOM     29  C   UNL     1      -4.439  11.267  17.266  0.00  0.00    +0.000 A 
ENDBRANCH  22  24
ENDBRANCH   7  22
TORSDOF 4
ENDMDL
MODEL 8
REMARK VINA RESULT:      -7.5      6.409      9.144
REMARK  Name = 
REMARK  4 active torsions:
REMARK  status: ('A' for Active; 'I' for Inactive)
REMARK    1  A    between atoms: N_1  and  C_2
REMARK    2  A    between atoms: C_8  and  C_9
REMARK    3  A    between atoms: C_9  and  C_11
REMARK    4  A    between atoms: C_17  and  C_18
REMARK                            x       y       z     vdW  Elec       q    Type
REMARK                         _______ _______ _______ _____ _____    ______ ____
ROOT
ATOM      1  C   UNL     1       1.826  14.008  20.094  0.00  0.00    +0.000 A 
ATOM      2  N   UNL     1       1.996  15.344  19.955  0.00  0.00    +0.000 NA
ATOM      3  C   UNL     1       1.120  16.038  19.212  0.00  0.00    +0.000 A 
ATOM      4  N   UNL     1       0.065  15.567  18.542  0.00  0.00    +0.000 NA
ATOM      5  C   UNL     1      -0.085  14.249  18.744  0.00  0.00    +0.000 A 
ATOM      6  N   UNL     1      -1.095  13.537  18.196  0.00  0.00    +0.000 N 
ATOM      7  C   UNL     1      -1.050  12.218  18.589  0.00  0.00    +0.000 A 
ATOM      8  C   UNL     1       0.031  12.097  19.484  0.00  0.00    +0.000 A 
ATOM      9  C   UNL     1       0.697  13.398  19.505  0.00  0.00    +0.000 A 
ATOM     10  H   UNL     1      -1.787  13.951  17.588  0.00  0.00    +0.000 HD
ENDROOT
BRANCH   8  11
ATOM     11  C   UNL     1       0.344  10.870  20.263  0.00  0.00    +0.000 A 
ATOM     12  C   UNL     1      -0.005  10.706  21.623  0.00  0.00    +0.000 A 
ATOM     13 CL   UNL     1      -0.979  11.833  22.515  0.00  0.00    +0.000 Cl
ATOM     14  C   UNL     1       0.353   9.546  22.338  0.00  0.00    +0.000 A 
ATOM     15  C   UNL     1       0.933   8.462  21.692  0.00  0.00    +0.000 A 
ATOM     16  C   UNL     1       1.235   8.569  20.344  0.00  0.00    +0.000 A 
ATOM     17  C   UNL     1       1.023   9.780  19.663  0.00  0.00    +0.000 A 
ATOM     18 CL   UNL     1       1.704   9.831  18.066  0.00  0.00    +0.000 Cl
ENDBRANCH   8  11
BRANCH   1  19
ATOM     19  N   UNL     1       2.801  13.369  20.848  0.00  0.00    +0.000 N 
ATOM     20  H   UNL     1       3.677  13.867  20.730  0.00  0.00    +0.000 HD
ATOM     21  H   UNL     1       2.543  13.200  21.808  0.00  0.00    +0.000 HD
ENDBRANCH   1  19
BRANCH   7  22
ATOM     22  C   UNL     1      -2.066  11.274  18.135  0.00  0.00    +0.000 C 
ATOM     23  O   UNL     1      -1.785  10.233  17.554  0.00  0.00    +0.000 OA
BRANCH  22  24
ATOM     24  C   UNL     1      -3.513  11.558  18.454  0.00  0.00    +0.000 A 
ATOM     25  C   UNL     1      -4.496  11.074  17.580  0.00  0.00    +0.000 A 
ATOM     26  C   UNL     1      -5.851  11.234  17.880  0.00  0.00    +0.000 A 
ATOM     27  C   UNL     1      -6.237  11.885  19.051  0.00  0.00    +0.000 A 
ATOM     28  C   UNL     1      -5.271  12.418  19.901  0.00  0.00    +0.000 A 
ATOM     29  C   UNL     1      -3.913  12.275  19.595  0.00  0.00    +0.000 A 
ENDBRANCH  22  24
ENDBRANCH   7  22
TORSDOF 4
ENDMDL
MODEL 9
REMARK VINA RESULT:      -7.4      6.946      9.520
REMARK  Name = 
REMARK  4 active torsions:
REMARK  status: ('A' for Active; 'I' for Inactive)
REMARK    1  A    between atoms: N_1  and  C_2
REMARK    2  A    between atoms: C_8  and  C_9
REMARK    3  A    between atoms: C_9  and  C_11
REMARK    4  A    between atoms: C_17  and  C_18
REMARK                            x       y       z     vdW  Elec       q    Type
REMARK                         _______ _______ _______ _____ _____    ______ ____
ROOT
ATOM      1  C   UNL     1       1.610  14.027  20.309  0.00  0.00    +0.000 A 
ATOM      2  N   UNL     1       1.927  15.304  19.996  0.00  0.00    +0.000 NA
ATOM      3  C   UNL     1       1.229  15.932  19.038  0.00  0.00    +0.000 A 
ATOM      4  N   UNL     1       0.229  15.439  18.301  0.00  0.00    +0.000 NA
ATOM      5  C   UNL     1      -0.075  14.188  18.677  0.00  0.00    +0.000 A 
ATOM      6  N   UNL     1      -1.069  13.475  18.103  0.00  0.00    +0.000 N 
ATOM      7  C   UNL     1      -1.207  12.239  18.695  0.00  0.00    +0.000 A 
ATOM      8  C   UNL     1      -0.269  12.184  19.744  0.00  0.00    +0.000 A 
ATOM      9  C   UNL     1       0.513  13.416  19.664  0.00  0.00    +0.000 A 
ATOM     10  H   UNL     1      -1.633  13.835  17.346  0.00  0.00    +0.000 HD
ENDROOT
BRANCH   8  11
ATOM     11  C   UNL     1      -0.182  11.082  20.737  0.00  0.00    +0.000 A 
ATOM     12  C   UNL     1      -0.692  11.182  22.052  0.00  0.00    +0.000 A 
ATOM     13 CL   UNL     1      -1.621  12.530  22.630  0.00  0.00    +0.000 Cl
ATOM     14  C   UNL     1      -0.547  10.130  22.978  0.00  0.00    +0.000 A 
ATOM     15  C   UNL     1      -0.028   8.902  22.585  0.00  0.00    +0.000 A 
ATOM     16  C   UNL     1       0.427   8.753  21.286  0.00  0.00    +0.000 A 
ATOM     17  C   UNL     1       0.428   9.846  20.403  0.00  0.00    +0.000 A 
ATOM     18 CL   UNL     1       1.277   9.564  18.914  0.00  0.00    +0.000 Cl
ENDBRANCH   8  11
BRANCH   1  19
ATOM     19  N   UNL     1       2.410  13.447  21.285  0.00  0.00    +0.000 N 
ATOM     20  H   UNL     1       3.342  13.316  20.902  0.00  0.00    +0.000 HD
ATOM     21  H   UNL     1       2.390  13.916  22.177  0.00  0.00    +0.000 HD
ENDBRANCH   1  19
BRANCH   7  22
ATOM     22  C   UNL     1      -2.243  11.314  18.247  0.00  0.00    +0.000 C 
ATOM     23  O   UNL     1      -1.983  10.233  17.731  0.00  0.00    +0.000 OA
BRANCH  22  24
ATOM     24  C   UNL     1      -3.688  11.672  18.490  0.00  0.00    +0.000 A 
ATOM     25  C   UNL     1      -4.019  12.348  19.672  0.00  0.00    +0.000 A 
ATOM     26  C   UNL     1      -5.328  12.779  19.898  0.00  0.00    +0.000 A 
ATOM     27  C   UNL     1      -6.321  12.533  18.950  0.00  0.00    +0.000 A 
ATOM     28  C   UNL     1      -6.016  11.816  17.796  0.00  0.00    +0.000 A 
ATOM     29  C   UNL     1      -4.710  11.367  17.574  0.00  0.00    +0.000 A 
ENDBRANCH  22  24
ENDBRANCH   7  22
TORSDOF 4
ENDMDL
