MODEL 1
REMARK VINA RESULT:      -7.8      0.000      0.000
REMARK  Name = 
REMARK  0 active torsions:
REMARK  status: ('A' for Active; 'I' for Inactive)
REMARK                            x       y       z     vdW  Elec       q    Type
REMARK                         _______ _______ _______ _____ _____    ______ ____
ROOT
ATOM      1  O   UNL     1       0.514   2.625  18.861  0.00  0.00    +0.000 OA
ATOM      2  C   UNL     1       1.615   3.011  18.496  0.00  0.00    +0.000 C 
ATOM      3  O   UNL     1       2.198   2.517  17.392  0.00  0.00    +0.000 OA
ATOM      4  C   UNL     1       3.613   2.414  17.432  0.00  0.00    +0.000 C 
ATOM      5  C   UNL     1       4.237   3.658  16.870  0.00  0.00    +0.000 A 
ATOM      6  C   UNL     1       5.197   3.467  15.857  0.00  0.00    +0.000 A 
ATOM      7  C   UNL     1       5.973   4.524  15.399  0.00  0.00    +0.000 A 
ATOM      8  C   UNL     1       5.832   5.762  15.994  0.00  0.00    +0.000 A 
ATOM      9  C   UNL     1       4.875   5.972  17.013  0.00  0.00    +0.000 A 
ATOM     10  C   UNL     1       3.970   4.941  17.411  0.00  0.00    +0.000 A 
ATOM     11  C   UNL     1       2.918   5.194  18.449  0.00  0.00    +0.000 A 
ATOM     12  C   UNL     1       2.270   4.173  19.180  0.00  0.00    +0.000 A 
ATOM     13  C   UNL     1       1.774   4.406  20.482  0.00  0.00    +0.000 A 
ATOM     14  C   UNL     1       1.669   5.694  20.973  0.00  0.00    +0.000 A 
ATOM     15  C   UNL     1       1.951   6.743  20.110  0.00  0.00    +0.000 A 
ATOM     16  C   UNL     1       2.554   6.493  18.862  0.00  0.00    +0.000 A 
ATOM     17  C   UNL     1       2.569   7.643  17.926  0.00  0.00    +0.000 C 
ATOM     18  O   UNL     1       1.522   8.232  17.685  0.00  0.00    +0.000 OA
ATOM     19  O   UNL     1       3.750   8.042  17.421  0.00  0.00    +0.000 OA
ATOM     20  C   UNL     1       4.920   7.301  17.725  0.00  0.00    +0.000 C 
ENDROOT
TORSDOF 0
ENDMDL
MODEL 2
REMARK VINA RESULT:      -7.3      1.862      3.987
REMARK  Name = 
REMARK  0 active torsions:
REMARK  status: ('A' for Active; 'I' for Inactive)
REMARK                            x       y       z     vdW  Elec       q    Type
REMARK                         _______ _______ _______ _____ _____    ______ ____
ROOT
ATOM      1  O   UNL     1       1.620   7.011  21.187  0.00  0.00    +0.000 OA
ATOM      2  C   UNL     1       2.084   6.596  20.135  0.00  0.00    +0.000 C 
ATOM      3  O   UNL     1       2.925   7.341  19.401  0.00  0.00    +0.000 OA
ATOM      4  C   UNL     1       2.831   7.177  17.993  0.00  0.00    +0.000 C 
ATOM      5  C   UNL     1       3.798   6.127  17.531  0.00  0.00    +0.000 A 
ATOM      6  C   UNL     1       4.659   6.496  16.479  0.00  0.00    +0.000 A 
ATOM      7  C   UNL     1       5.459   5.554  15.845  0.00  0.00    +0.000 A 
ATOM      8  C   UNL     1       5.356   4.229  16.222  0.00  0.00    +0.000 A 
ATOM      9  C   UNL     1       4.496   3.840  17.274  0.00  0.00    +0.000 A 
ATOM     10  C   UNL     1       3.763   4.802  18.035  0.00  0.00    +0.000 A 
ATOM     11  C   UNL     1       2.902   4.382  19.188  0.00  0.00    +0.000 A 
ATOM     12  C   UNL     1       1.860   5.172  19.722  0.00  0.00    +0.000 A 
ATOM     13  C   UNL     1       0.739   4.581  20.345  0.00  0.00    +0.000 A 
ATOM     14  C   UNL     1       0.750   3.242  20.687  0.00  0.00    +0.000 A 
ATOM     15  C   UNL     1       1.930   2.536  20.507  0.00  0.00    +0.000 A 
ATOM     16  C   UNL     1       2.995   3.105  19.781  0.00  0.00    +0.000 A 
ATOM     17  C   UNL     1       4.283   2.378  19.874  0.00  0.00    +0.000 C 
ATOM     18  O   UNL     1       4.737   2.104  20.979  0.00  0.00    +0.000 OA
ATOM     19  O   UNL     1       4.882   1.987  18.735  0.00  0.00    +0.000 OA
ATOM     20  C   UNL     1       4.314   2.358  17.490  0.00  0.00    +0.000 C 
ENDROOT
TORSDOF 0
ENDMDL
MODEL 3
REMARK VINA RESULT:      -7.2      2.202      4.209
REMARK  Name = 
REMARK  0 active torsions:
REMARK  status: ('A' for Active; 'I' for Inactive)
REMARK                            x       y       z     vdW  Elec       q    Type
REMARK                         _______ _______ _______ _____ _____    ______ ____
ROOT
ATOM      1  O   UNL     1       2.636   2.608  21.925  0.00  0.00    +0.000 OA
ATOM      2  C   UNL     1       2.469   3.529  21.141  0.00  0.00    +0.000 C 
ATOM      3  O   UNL     1       2.161   4.764  21.570  0.00  0.00    +0.000 OA
ATOM      4  C   UNL     1       1.307   5.519  20.723  0.00  0.00    +0.000 C 
ATOM      5  C   UNL     1       2.125   6.352  19.779  0.00  0.00    +0.000 A 
ATOM      6  C   UNL     1       1.816   7.725  19.736  0.00  0.00    +0.000 A 
ATOM      7  C   UNL     1       2.370   8.554  18.769  0.00  0.00    +0.000 A 
ATOM      8  C   UNL     1       3.192   7.999  17.807  0.00  0.00    +0.000 A 
ATOM      9  C   UNL     1       3.512   6.623  17.833  0.00  0.00    +0.000 A 
ATOM     10  C   UNL     1       3.067   5.773  18.891  0.00  0.00    +0.000 A 
ATOM     11  C   UNL     1       3.465   4.328  18.941  0.00  0.00    +0.000 A 
ATOM     12  C   UNL     1       2.773   3.345  19.684  0.00  0.00    +0.000 A 
ATOM     13  C   UNL     1       2.766   1.992  19.281  0.00  0.00    +0.000 A 
ATOM     14  C   UNL     1       3.642   1.544  18.310  0.00  0.00    +0.000 A 
ATOM     15  C   UNL     1       4.597   2.432  17.837  0.00  0.00    +0.000 A 
ATOM     16  C   UNL     1       4.516   3.801  18.161  0.00  0.00    +0.000 A 
ATOM     17  C   UNL     1       5.717   4.602  17.825  0.00  0.00    +0.000 C 
ATOM     18  O   UNL     1       6.815   4.227  18.217  0.00  0.00    +0.000 OA
ATOM     19  O   UNL     1       5.565   5.686  17.043  0.00  0.00    +0.000 OA
ATOM     20  C   UNL     1       4.262   6.076  16.644  0.00  0.00    +0.000 C 
ENDROOT
TORSDOF 0
ENDMDL
MODEL 4
REMARK VINA RESULT:      -6.8      1.607      4.299
REMARK  Name = 
REMARK  0 active torsions:
REMARK  status: ('A' for Active; 'I' for Inactive)
REMARK                            x       y       z     vdW  Elec       q    Type
REMARK                         _______ _______ _______ _____ _____    ______ ____
ROOT
ATOM      1  O   UNL     1       3.956   2.025  20.382  0.00  0.00    +0.000 OA
ATOM      2  C   UNL     1       3.331   3.055  20.182  0.00  0.00    +0.000 C 
ATOM      3  O   UNL     1       2.805   3.761  21.196  0.00  0.00    +0.000 OA
ATOM      4  C   UNL     1       1.579   4.422  20.920  0.00  0.00    +0.000 C 
ATOM      5  C   UNL     1       1.844   5.823  20.449  0.00  0.00    +0.000 A 
ATOM      6  C   UNL     1       1.153   6.846  21.126  0.00  0.00    +0.000 A 
ATOM      7  C   UNL     1       1.171   8.154  20.657  0.00  0.00    +0.000 A 
ATOM      8  C   UNL     1       1.834   8.429  19.477  0.00  0.00    +0.000 A 
ATOM      9  C   UNL     1       2.532   7.415  18.784  0.00  0.00    +0.000 A 
ATOM     10  C   UNL     1       2.645   6.092  19.310  0.00  0.00    +0.000 A 
ATOM     11  C   UNL     1       3.440   5.040  18.596  0.00  0.00    +0.000 A 
ATOM     12  C   UNL     1       3.281   3.652  18.807  0.00  0.00    +0.000 A 
ATOM     13  C   UNL     1       3.558   2.720  17.784  0.00  0.00    +0.000 A 
ATOM     14  C   UNL     1       4.238   3.108  16.645  0.00  0.00    +0.000 A 
ATOM     15  C   UNL     1       4.738   4.401  16.596  0.00  0.00    +0.000 A 
ATOM     16  C   UNL     1       4.354   5.347  17.566  0.00  0.00    +0.000 A 
ATOM     17  C   UNL     1       5.142   6.603  17.568  0.00  0.00    +0.000 C 
ATOM     18  O   UNL     1       6.364   6.543  17.620  0.00  0.00    +0.000 OA
ATOM     19  O   UNL     1       4.485   7.771  17.450  0.00  0.00    +0.000 OA
ATOM     20  C   UNL     1       3.068   7.769  17.418  0.00  0.00    +0.000 C 
ENDROOT
TORSDOF 0
ENDMDL
MODEL 5
REMARK VINA RESULT:      -6.7      1.718      4.489
REMARK  Name = 
REMARK  0 active torsions:
REMARK  status: ('A' for Active; 'I' for Inactive)
REMARK                            x       y       z     vdW  Elec       q    Type
REMARK                         _______ _______ _______ _____ _____    ______ ____
ROOT
ATOM      1  O   UNL     1       5.305   3.589  16.195  0.00  0.00    +0.000 OA
ATOM      2  C   UNL     1       4.868   4.529  16.842  0.00  0.00    +0.000 C 
ATOM      3  O   UNL     1       4.495   5.674  16.247  0.00  0.00    +0.000 OA
ATOM      4  C   UNL     1       4.715   6.861  16.994  0.00  0.00    +0.000 C 
ATOM      5  C   UNL     1       3.490   7.202  17.792  0.00  0.00    +0.000 A 
ATOM      6  C   UNL     1       2.997   8.513  17.644  0.00  0.00    +0.000 A 
ATOM      7  C   UNL     1       1.991   8.997  18.470  0.00  0.00    +0.000 A 
ATOM      8  C   UNL     1       1.516   8.190  19.485  0.00  0.00    +0.000 A 
ATOM      9  C   UNL     1       1.999   6.872  19.650  0.00  0.00    +0.000 A 
ATOM     10  C   UNL     1       2.934   6.299  18.734  0.00  0.00    +0.000 A 
ATOM     11  C   UNL     1       3.393   4.879  18.884  0.00  0.00    +0.000 A 
ATOM     12  C   UNL     1       4.575   4.368  18.304  0.00  0.00    +0.000 A 
ATOM     13  C   UNL     1       5.277   3.296  18.898  0.00  0.00    +0.000 A 
ATOM     14  C   UNL     1       4.697   2.548  19.905  0.00  0.00    +0.000 A 
ATOM     15  C   UNL     1       3.372   2.807  20.225  0.00  0.00    +0.000 A 
ATOM     16  C   UNL     1       2.727   3.949  19.710  0.00  0.00    +0.000 A 
ATOM     17  C   UNL     1       1.258   3.986  19.904  0.00  0.00    +0.000 C 
ATOM     18  O   UNL     1       0.584   3.027  19.547  0.00  0.00    +0.000 OA
ATOM     19  O   UNL     1       0.720   5.050  20.525  0.00  0.00    +0.000 OA
ATOM     20  C   UNL     1       1.556   6.135  20.890  0.00  0.00    +0.000 C 
ENDROOT
TORSDOF 0
ENDMDL
MODEL 6
REMARK VINA RESULT:      -6.4      1.823      4.135
REMARK  Name = 
REMARK  0 active torsions:
REMARK  status: ('A' for Active; 'I' for Inactive)
REMARK                            x       y       z     vdW  Elec       q    Type
REMARK                         _______ _______ _______ _____ _____    ______ ____
ROOT
ATOM      1  O   UNL     1       6.240   7.302  17.395  0.00  0.00    +0.000 OA
ATOM      2  C   UNL     1       5.498   6.331  17.408  0.00  0.00    +0.000 C 
ATOM      3  O   UNL     1       5.984   5.082  17.481  0.00  0.00    +0.000 OA
ATOM      4  C   UNL     1       5.247   4.088  16.785  0.00  0.00    +0.000 C 
ATOM      5  C   UNL     1       4.243   3.454  17.703  0.00  0.00    +0.000 A 
ATOM      6  C   UNL     1       4.263   2.047  17.769  0.00  0.00    +0.000 A 
ATOM      7  C   UNL     1       3.263   1.347  18.432  0.00  0.00    +0.000 A 
ATOM      8  C   UNL     1       2.209   2.050  18.981  0.00  0.00    +0.000 A 
ATOM      9  C   UNL     1       2.171   3.462  18.924  0.00  0.00    +0.000 A 
ATOM     10  C   UNL     1       3.250   4.216  18.369  0.00  0.00    +0.000 A 
ATOM     11  C   UNL     1       3.226   5.716  18.370  0.00  0.00    +0.000 A 
ATOM     12  C   UNL     1       4.014   6.517  17.514  0.00  0.00    +0.000 A 
ATOM     13  C   UNL     1       3.582   7.799  17.109  0.00  0.00    +0.000 A 
ATOM     14  C   UNL     1       2.516   8.413  17.739  0.00  0.00    +0.000 A 
ATOM     15  C   UNL     1       1.968   7.785  18.848  0.00  0.00    +0.000 A 
ATOM     16  C   UNL     1       2.329   6.461  19.165  0.00  0.00    +0.000 A 
ATOM     17  C   UNL     1       1.889   5.989  20.499  0.00  0.00    +0.000 C 
ATOM     18  O   UNL     1       2.157   6.659  21.489  0.00  0.00    +0.000 OA
ATOM     19  O   UNL     1       1.152   4.866  20.570  0.00  0.00    +0.000 OA
ATOM     20  C   UNL     1       0.899   4.128  19.387  0.00  0.00    +0.000 C 
ENDROOT
TORSDOF 0
ENDMDL
MODEL 7
REMARK VINA RESULT:      -6.3      9.288     11.474
REMARK  Name = 
REMARK  0 active torsions:
REMARK  status: ('A' for Active; 'I' for Inactive)
REMARK                            x       y       z     vdW  Elec       q    Type
REMARK                         _______ _______ _______ _____ _____    ______ ____
ROOT
ATOM      1  O   UNL     1      -3.671  12.958  23.618  0.00  0.00    +0.000 OA
ATOM      2  C   UNL     1      -3.681  12.875  22.399  0.00  0.00    +0.000 C 
ATOM      3  O   UNL     1      -2.612  12.428  21.720  0.00  0.00    +0.000 OA
ATOM      4  C   UNL     1      -2.398  13.014  20.445  0.00  0.00    +0.000 C 
ATOM      5  C   UNL     1      -3.068  12.194  19.382  0.00  0.00    +0.000 A 
ATOM      6  C   UNL     1      -2.262  11.812  18.292  0.00  0.00    +0.000 A 
ATOM      7  C   UNL     1      -2.817  11.219  17.165  0.00  0.00    +0.000 A 
ATOM      8  C   UNL     1      -4.187  11.061  17.100  0.00  0.00    +0.000 A 
ATOM      9  C   UNL     1      -5.012  11.440  18.183  0.00  0.00    +0.000 A 
ATOM     10  C   UNL     1      -4.461  11.926  19.408  0.00  0.00    +0.000 A 
ATOM     11  C   UNL     1      -5.343  12.267  20.572  0.00  0.00    +0.000 A 
ATOM     12  C   UNL     1      -4.952  13.108  21.638  0.00  0.00    +0.000 A 
ATOM     13  C   UNL     1      -5.901  13.868  22.356  0.00  0.00    +0.000 A 
ATOM     14  C   UNL     1      -7.252  13.616  22.219  0.00  0.00    +0.000 A 
ATOM     15  C   UNL     1      -7.635  12.525  21.452  0.00  0.00    +0.000 A 
ATOM     16  C   UNL     1      -6.689  11.853  20.652  0.00  0.00    +0.000 A 
ATOM     17  C   UNL     1      -7.145  10.561  20.086  0.00  0.00    +0.000 C 
ATOM     18  O   UNL     1      -7.617   9.714  20.835  0.00  0.00    +0.000 OA
ATOM     19  O   UNL     1      -7.082  10.387  18.754  0.00  0.00    +0.000 OA
ATOM     20  C   UNL     1      -6.502  11.400  17.950  0.00  0.00    +0.000 C 
ENDROOT
TORSDOF 0
ENDMDL
MODEL 8
REMARK VINA RESULT:      -6.3      2.478      4.576
REMARK  Name = 
REMARK  0 active torsions:
REMARK  status: ('A' for Active; 'I' for Inactive)
REMARK                            x       y       z     vdW  Elec       q    Type
REMARK                         _______ _______ _______ _____ _____    ______ ____
ROOT
ATOM      1  O   UNL     1       6.653   6.253  18.308  0.00  0.00    +0.000 OA
ATOM      2  C   UNL     1       5.717   5.541  18.640  0.00  0.00    +0.000 C 
ATOM      3  O   UNL     1       5.898   4.478  19.440  0.00  0.00    +0.000 OA
ATOM      4  C   UNL     1       5.050   3.366  19.195  0.00  0.00    +0.000 C 
ATOM      5  C   UNL     1       3.823   3.454  20.054  0.00  0.00    +0.000 A 
ATOM      6  C   UNL     1       3.519   2.314  20.822  0.00  0.00    +0.000 A 
ATOM      7  C   UNL     1       2.312   2.210  21.502  0.00  0.00    +0.000 A 
ATOM      8  C   UNL     1       1.382   3.222  21.369  0.00  0.00    +0.000 A 
ATOM      9  C   UNL     1       1.669   4.373  20.602  0.00  0.00    +0.000 A 
ATOM     10  C   UNL     1       2.950   4.571  20.002  0.00  0.00    +0.000 A 
ATOM     11  C   UNL     1       3.263   5.825  19.241  0.00  0.00    +0.000 A 
ATOM     12  C   UNL     1       4.311   5.936  18.301  0.00  0.00    +0.000 A 
ATOM     13  C   UNL     1       4.232   6.841  17.220  0.00  0.00    +0.000 A 
ATOM     14  C   UNL     1       3.261   7.824  17.196  0.00  0.00    +0.000 A 
ATOM     15  C   UNL     1       2.451   7.964  18.313  0.00  0.00    +0.000 A 
ATOM     16  C   UNL     1       2.464   6.985  19.326  0.00  0.00    +0.000 A 
ATOM     17  C   UNL     1       1.765   7.363  20.578  0.00  0.00    +0.000 C 
ATOM     18  O   UNL     1       2.050   8.421  21.126  0.00  0.00    +0.000 OA
ATOM     19  O   UNL     1       0.792   6.555  21.037  0.00  0.00    +0.000 OA
ATOM     20  C   UNL     1       0.530   5.335  20.366  0.00  0.00    +0.000 C 
ENDROOT
TORSDOF 0
ENDMDL
MODEL 9
REMARK VINA RESULT:      -6.3      7.571      9.971
REMARK  Name = 
REMARK  0 active torsions:
REMARK  status: ('A' for Active; 'I' for Inactive)
REMARK                            x       y       z     vdW  Elec       q    Type
REMARK                         _______ _______ _______ _____ _____    ______ ____
ROOT
ATOM      1  O   UNL     1      -0.697  11.798  21.983  0.00  0.00    +0.000 OA
ATOM      2  C   UNL     1      -1.123  11.736  20.840  0.00  0.00    +0.000 C 
ATOM      3  O   UNL     1      -0.768  10.737  20.015  0.00  0.00    +0.000 OA
ATOM      4  C   UNL     1      -0.658  11.077  18.641  0.00  0.00    +0.000 C 
ATOM      5  C   UNL     1      -1.960  10.821  17.941  0.00  0.00    +0.000 A 
ATOM      6  C   UNL     1      -1.894  10.030  16.777  0.00  0.00    +0.000 A 
ATOM      7  C   UNL     1      -2.998   9.887  15.946  0.00  0.00    +0.000 A 
ATOM      8  C   UNL     1      -4.154  10.580  16.247  0.00  0.00    +0.000 A 
ATOM      9  C   UNL     1      -4.238  11.379  17.409  0.00  0.00    +0.000 A 
ATOM     10  C   UNL     1      -3.168  11.439  18.354  0.00  0.00    +0.000 A 
ATOM     11  C   UNL     1      -3.293  12.242  19.614  0.00  0.00    +0.000 A 
ATOM     12  C   UNL     1      -2.191  12.682  20.380  0.00  0.00    +0.000 A 
ATOM     13  C   UNL     1      -2.263  13.860  21.157  0.00  0.00    +0.000 A 
ATOM     14  C   UNL     1      -3.481  14.467  21.401  0.00  0.00    +0.000 A 
ATOM     15  C   UNL     1      -4.628  13.821  20.962  0.00  0.00    +0.000 A 
ATOM     16  C   UNL     1      -4.532  12.716  20.093  0.00  0.00    +0.000 A 
ATOM     17  C   UNL     1      -5.789  11.953  19.902  0.00  0.00    +0.000 C 
ATOM     18  O   UNL     1      -6.404  11.558  20.884  0.00  0.00    +0.000 OA
ATOM     19  O   UNL     1      -6.244  11.774  18.649  0.00  0.00    +0.000 OA
ATOM     20  C   UNL     1      -5.470  12.238  17.556  0.00  0.00    +0.000 C 
ENDROOT
TORSDOF 0
ENDMDL
