MODEL 1
REMARK VINA RESULT:      -6.7      0.000      0.000
REMARK  Name = 
REMARK  9 active torsions:
REMARK  status: ('A' for Active; 'I' for Inactive)
REMARK    1  A    between atoms: C_1  and  N_2
REMARK    2  A    between atoms: C_5  and  C_6
REMARK    3  A    between atoms: C_15  and  O_16
REMARK    4  A    between atoms: O_16  and  C_17
REMARK    5  A    between atoms: C_17  and  C_18
REMARK    6  A    between atoms: C_18  and  N_19
REMARK    7  A    between atoms: N_19  and  C_20
REMARK    8  A    between atoms: N_19  and  C_21
REMARK    9  A    between atoms: C_23  and  O_24
REMARK                            x       y       z     vdW  Elec       q    Type
REMARK                         _______ _______ _______ _____ _____    ______ ____
ROOT
ATOM      1  C   UNL     1       4.715   4.739  16.346  0.00  0.00    +0.000 C 
ATOM      2  N   UNL     1       4.141   3.737  17.240  0.00  0.00    +0.000 N 
ATOM      3  C   UNL     1       3.286   4.279  18.227  0.00  0.00    +0.000 A 
ATOM      4  C   UNL     1       2.695   3.424  19.130  0.00  0.00    +0.000 A 
ATOM      5  C   UNL     1       1.932   4.005  20.116  0.00  0.00    +0.000 A 
ATOM      6  C   UNL     1       1.231   3.184  21.151  0.00  0.00    +0.000 C 
ATOM      7  N   UNL     1       1.784   5.337  20.205  0.00  0.00    +0.000 NA
ATOM      8  C   UNL     1       2.368   6.105  19.279  0.00  0.00    +0.000 A 
ATOM      9  N   UNL     1       2.232   7.463  19.356  0.00  0.00    +0.000 N 
ATOM     10  C   UNL     1       2.772   8.362  18.358  0.00  0.00    +0.000 C 
ATOM     11  C   UNL     1       1.657   9.290  17.865  0.00  0.00    +0.000 C 
ATOM     12  C   UNL     1       0.863   9.935  19.034  0.00  0.00    +0.000 C 
ATOM     13  C   UNL     1       0.441   8.878  20.071  0.00  0.00    +0.000 C 
ATOM     14  C   UNL     1       1.654   8.075  20.532  0.00  0.00    +0.000 C 
ATOM     15  C   UNL     1      -0.316  10.825  18.500  0.00  0.00    +0.000 C 
ATOM     16  C   UNL     1       0.626  12.044  18.586  0.00  0.00    +0.000 C 
ATOM     17  C   UNL     1       1.479  11.258  19.605  0.00  0.00    +0.000 C 
ATOM     18  N   UNL     1       3.098   5.600  18.274  0.00  0.00    +0.000 NA
ATOM     19  H   UNL     1       4.868   3.223  17.729  0.00  0.00    +0.000 HD
ENDROOT
BRANCH  17  20
ATOM     20  O   UNL     1       1.203  11.566  20.989  0.00  0.00    +0.000 OA
ATOM     21  H   UNL     1       1.175  12.542  21.032  0.00  0.00    +0.000 HD
ENDBRANCH  17  20
BRANCH  15  22
ATOM     22  O   UNL     1      -1.499  10.917  19.338  0.00  0.00    +0.000 OA
BRANCH  22  23
ATOM     23  C   UNL     1      -2.731  10.682  18.646  0.00  0.00    +0.000 C 
BRANCH  23  24
ATOM     24  C   UNL     1      -2.487   9.981  17.303  0.00  0.00    +0.000 C 
BRANCH  24  25
ATOM     25  N   UNL     1      -3.547  10.251  16.306  0.00  0.00    +0.000 NA
ATOM     26  C   UNL     1      -4.310  11.461  16.622  0.00  0.00    +0.000 C 
ATOM     27  C   UNL     1      -2.963  10.378  14.970  0.00  0.00    +0.000 C 
ENDBRANCH  24  25
ENDBRANCH  23  24
ENDBRANCH  22  23
ENDBRANCH  15  22
TORSDOF 5
ENDMDL
MODEL 2
REMARK VINA RESULT:      -6.6      1.942      2.709
REMARK  Name = 
REMARK  9 active torsions:
REMARK  status: ('A' for Active; 'I' for Inactive)
REMARK    1  A    between atoms: C_1  and  N_2
REMARK    2  A    between atoms: C_5  and  C_6
REMARK    3  A    between atoms: C_15  and  O_16
REMARK    4  A    between atoms: O_16  and  C_17
REMARK    5  A    between atoms: C_17  and  C_18
REMARK    6  A    between atoms: C_18  and  N_19
REMARK    7  A    between atoms: N_19  and  C_20
REMARK    8  A    between atoms: N_19  and  C_21
REMARK    9  A    between atoms: C_23  and  O_24
REMARK                            x       y       z     vdW  Elec       q    Type
REMARK                         _______ _______ _______ _____ _____    ______ ____
ROOT
ATOM      1  C   UNL     1       4.617   4.774  16.381  0.00  0.00    +0.000 C 
ATOM      2  N   UNL     1       4.111   3.777  17.320  0.00  0.00    +0.000 N 
ATOM      3  C   UNL     1       3.291   4.318  18.336  0.00  0.00    +0.000 A 
ATOM      4  C   UNL     1       2.764   3.468  19.282  0.00  0.00    +0.000 A 
ATOM      5  C   UNL     1       2.035   4.050  20.292  0.00  0.00    +0.000 A 
ATOM      6  C   UNL     1       1.404   3.234  21.375  0.00  0.00    +0.000 C 
ATOM      7  N   UNL     1       1.859   5.380  20.363  0.00  0.00    +0.000 NA
ATOM      8  C   UNL     1       2.379   6.143  19.396  0.00  0.00    +0.000 A 
ATOM      9  N   UNL     1       2.215   7.499  19.454  0.00  0.00    +0.000 N 
ATOM     10  C   UNL     1       2.685   8.390  18.415  0.00  0.00    +0.000 C 
ATOM     11  C   UNL     1       1.525   9.282  17.958  0.00  0.00    +0.000 C 
ATOM     12  C   UNL     1       0.772   9.931  19.151  0.00  0.00    +0.000 C 
ATOM     13  C   UNL     1       0.426   8.886  20.227  0.00  0.00    +0.000 C 
ATOM     14  C   UNL     1       1.679   8.120  20.645  0.00  0.00    +0.000 C 
ATOM     15  C   UNL     1      -0.452  10.783  18.658  0.00  0.00    +0.000 C 
ATOM     16  C   UNL     1       0.463  12.025  18.676  0.00  0.00    +0.000 C 
ATOM     17  C   UNL     1       1.382  11.279  19.667  0.00  0.00    +0.000 C 
ATOM     18  N   UNL     1       3.073   5.635  18.367  0.00  0.00    +0.000 NA
ATOM     19  H   UNL     1       4.873   3.289  17.782  0.00  0.00    +0.000 HD
ENDROOT
BRANCH  17  20
ATOM     20  O   UNL     1       1.164  11.608  21.057  0.00  0.00    +0.000 OA
ATOM     21  H   UNL     1       0.501  12.326  21.048  0.00  0.00    +0.000 HD
ENDBRANCH  17  20
BRANCH  15  22
ATOM     22  O   UNL     1      -1.596  10.863  19.550  0.00  0.00    +0.000 OA
BRANCH  22  23
ATOM     23  C   UNL     1      -2.260  12.133  19.543  0.00  0.00    +0.000 C 
BRANCH  23  24
ATOM     24  C   UNL     1      -2.508  12.634  20.973  0.00  0.00    +0.000 C 
BRANCH  24  25
ATOM     25  N   UNL     1      -1.280  13.121  21.639  0.00  0.00    +0.000 NA
ATOM     26  C   UNL     1      -0.973  14.510  21.289  0.00  0.00    +0.000 C 
ATOM     27  C   UNL     1      -1.414  13.003  23.092  0.00  0.00    +0.000 C 
ENDBRANCH  24  25
ENDBRANCH  23  24
ENDBRANCH  22  23
ENDBRANCH  15  22
TORSDOF 5
ENDMDL
MODEL 3
REMARK VINA RESULT:      -6.4      1.193      1.429
REMARK  Name = 
REMARK  9 active torsions:
REMARK  status: ('A' for Active; 'I' for Inactive)
REMARK    1  A    between atoms: C_1  and  N_2
REMARK    2  A    between atoms: C_5  and  C_6
REMARK    3  A    between atoms: C_15  and  O_16
REMARK    4  A    between atoms: O_16  and  C_17
REMARK    5  A    between atoms: C_17  and  C_18
REMARK    6  A    between atoms: C_18  and  N_19
REMARK    7  A    between atoms: N_19  and  C_20
REMARK    8  A    between atoms: N_19  and  C_21
REMARK    9  A    between atoms: C_23  and  O_24
REMARK                            x       y       z     vdW  Elec       q    Type
REMARK                         _______ _______ _______ _____ _____    ______ ____
ROOT
ATOM      1  C   UNL     1       4.759   4.995  16.422  0.00  0.00    +0.000 C 
ATOM      2  N   UNL     1       4.246   3.971  17.326  0.00  0.00    +0.000 N 
ATOM      3  C   UNL     1       3.380   4.473  18.324  0.00  0.00    +0.000 A 
ATOM      4  C   UNL     1       2.843   3.595  19.237  0.00  0.00    +0.000 A 
ATOM      5  C   UNL     1       2.068   4.141  20.232  0.00  0.00    +0.000 A 
ATOM      6  C   UNL     1       1.421   3.291  21.279  0.00  0.00    +0.000 C 
ATOM      7  N   UNL     1       1.857   5.465  20.320  0.00  0.00    +0.000 NA
ATOM      8  C   UNL     1       2.391   6.257  19.384  0.00  0.00    +0.000 A 
ATOM      9  N   UNL     1       2.191   7.608  19.459  0.00  0.00    +0.000 N 
ATOM     10  C   UNL     1       2.674   8.528  18.451  0.00  0.00    +0.000 C 
ATOM     11  C   UNL     1       1.509   9.400  17.972  0.00  0.00    +0.000 C 
ATOM     12  C   UNL     1       0.702  10.010  19.150  0.00  0.00    +0.000 C 
ATOM     13  C   UNL     1       0.345   8.938  20.196  0.00  0.00    +0.000 C 
ATOM     14  C   UNL     1       1.602   8.194  20.642  0.00  0.00    +0.000 C 
ATOM     15  C   UNL     1      -0.526  10.841  18.631  0.00  0.00    +0.000 C 
ATOM     16  C   UNL     1       0.357  12.105  18.701  0.00  0.00    +0.000 C 
ATOM     17  C   UNL     1       1.262  11.363  19.709  0.00  0.00    +0.000 C 
ATOM     18  N   UNL     1       3.130   5.785  18.370  0.00  0.00    +0.000 NA
ATOM     19  H   UNL     1       5.004   3.492  17.806  0.00  0.00    +0.000 HD
ENDROOT
BRANCH  17  20
ATOM     20  O   UNL     1       0.990  11.662  21.097  0.00  0.00    +0.000 OA
ATOM     21  H   UNL     1       0.016  11.693  21.164  0.00  0.00    +0.000 HD
ENDBRANCH  17  20
BRANCH  15  22
ATOM     22  O   UNL     1      -1.700  10.879  19.485  0.00  0.00    +0.000 OA
BRANCH  22  23
ATOM     23  C   UNL     1      -2.576  11.985  19.236  0.00  0.00    +0.000 C 
BRANCH  23  24
ATOM     24  C   UNL     1      -3.727  11.581  18.305  0.00  0.00    +0.000 C 
BRANCH  24  25
ATOM     25  N   UNL     1      -5.043  11.571  18.980  0.00  0.00    +0.000 NA
ATOM     26  C   UNL     1      -5.369  12.867  19.580  0.00  0.00    +0.000 C 
ATOM     27  C   UNL     1      -6.094  11.195  18.032  0.00  0.00    +0.000 C 
ENDBRANCH  24  25
ENDBRANCH  23  24
ENDBRANCH  22  23
ENDBRANCH  15  22
TORSDOF 5
ENDMDL
MODEL 4
REMARK VINA RESULT:      -6.3      1.732      2.314
REMARK  Name = 
REMARK  9 active torsions:
REMARK  status: ('A' for Active; 'I' for Inactive)
REMARK    1  A    between atoms: C_1  and  N_2
REMARK    2  A    between atoms: C_5  and  C_6
REMARK    3  A    between atoms: C_15  and  O_16
REMARK    4  A    between atoms: O_16  and  C_17
REMARK    5  A    between atoms: C_17  and  C_18
REMARK    6  A    between atoms: C_18  and  N_19
REMARK    7  A    between atoms: N_19  and  C_20
REMARK    8  A    between atoms: N_19  and  C_21
REMARK    9  A    between atoms: C_23  and  O_24
REMARK                            x       y       z     vdW  Elec       q    Type
REMARK                         _______ _______ _______ _____ _____    ______ ____
ROOT
ATOM      1  C   UNL     1       4.500   4.668  16.347  0.00  0.00    +0.000 C 
ATOM      2  N   UNL     1       3.996   3.690  17.306  0.00  0.00    +0.000 N 
ATOM      3  C   UNL     1       3.204   4.255  18.332  0.00  0.00    +0.000 A 
ATOM      4  C   UNL     1       2.681   3.424  19.296  0.00  0.00    +0.000 A 
ATOM      5  C   UNL     1       1.981   4.028  20.314  0.00  0.00    +0.000 A 
ATOM      6  C   UNL     1       1.357   3.233  21.417  0.00  0.00    +0.000 C 
ATOM      7  N   UNL     1       1.827   5.361  20.374  0.00  0.00    +0.000 NA
ATOM      8  C   UNL     1       2.341   6.105  19.389  0.00  0.00    +0.000 A 
ATOM      9  N   UNL     1       2.199   7.464  19.435  0.00  0.00    +0.000 N 
ATOM     10  C   UNL     1       2.664   8.336  18.377  0.00  0.00    +0.000 C 
ATOM     11  C   UNL     1       1.510   9.242  17.933  0.00  0.00    +0.000 C 
ATOM     12  C   UNL     1       0.790   9.915  19.133  0.00  0.00    +0.000 C 
ATOM     13  C   UNL     1       0.447   8.888  20.226  0.00  0.00    +0.000 C 
ATOM     14  C   UNL     1       1.696   8.106  20.629  0.00  0.00    +0.000 C 
ATOM     15  C   UNL     1      -0.430  10.781  18.653  0.00  0.00    +0.000 C 
ATOM     16  C   UNL     1       0.505  12.009  18.641  0.00  0.00    +0.000 C 
ATOM     17  C   UNL     1       1.431  11.259  19.623  0.00  0.00    +0.000 C 
ATOM     18  N   UNL     1       3.007   5.576  18.353  0.00  0.00    +0.000 NA
ATOM     19  H   UNL     1       4.758   3.195  17.760  0.00  0.00    +0.000 HD
ENDROOT
BRANCH  17  20
ATOM     20  O   UNL     1       1.244  11.606  21.013  0.00  0.00    +0.000 OA
ATOM     21  H   UNL     1       0.807  10.830  21.413  0.00  0.00    +0.000 HD
ENDBRANCH  17  20
BRANCH  15  22
ATOM     22  O   UNL     1      -1.555  10.890  19.565  0.00  0.00    +0.000 OA
BRANCH  22  23
ATOM     23  C   UNL     1      -2.418  12.004  19.307  0.00  0.00    +0.000 C 
BRANCH  23  24
ATOM     24  C   UNL     1      -2.278  13.076  20.396  0.00  0.00    +0.000 C 
BRANCH  24  25
ATOM     25  N   UNL     1      -3.484  13.202  21.245  0.00  0.00    +0.000 NA
ATOM     26  C   UNL     1      -4.685  12.690  20.581  0.00  0.00    +0.000 C 
ATOM     27  C   UNL     1      -3.286  12.490  22.510  0.00  0.00    +0.000 C 
ENDBRANCH  24  25
ENDBRANCH  23  24
ENDBRANCH  22  23
ENDBRANCH  15  22
TORSDOF 5
ENDMDL
MODEL 5
REMARK VINA RESULT:      -6.0      2.816      4.933
REMARK  Name = 
REMARK  9 active torsions:
REMARK  status: ('A' for Active; 'I' for Inactive)
REMARK    1  A    between atoms: C_1  and  N_2
REMARK    2  A    between atoms: C_5  and  C_6
REMARK    3  A    between atoms: C_15  and  O_16
REMARK    4  A    between atoms: O_16  and  C_17
REMARK    5  A    between atoms: C_17  and  C_18
REMARK    6  A    between atoms: C_18  and  N_19
REMARK    7  A    between atoms: N_19  and  C_20
REMARK    8  A    between atoms: N_19  and  C_21
REMARK    9  A    between atoms: C_23  and  O_24
REMARK                            x       y       z     vdW  Elec       q    Type
REMARK                         _______ _______ _______ _____ _____    ______ ____
ROOT
ATOM      1  C   UNL     1       2.078   4.477  21.144  0.00  0.00    +0.000 C 
ATOM      2  N   UNL     1       3.089   4.314  20.104  0.00  0.00    +0.000 N 
ATOM      3  C   UNL     1       3.245   5.451  19.279  0.00  0.00    +0.000 A 
ATOM      4  C   UNL     1       4.168   5.407  18.259  0.00  0.00    +0.000 A 
ATOM      5  C   UNL     1       4.230   6.508  17.438  0.00  0.00    +0.000 A 
ATOM      6  C   UNL     1       5.197   6.585  16.299  0.00  0.00    +0.000 C 
ATOM      7  N   UNL     1       3.422   7.567  17.612  0.00  0.00    +0.000 NA
ATOM      8  C   UNL     1       2.566   7.552  18.639  0.00  0.00    +0.000 A 
ATOM      9  N   UNL     1       1.732   8.619  18.829  0.00  0.00    +0.000 N 
ATOM     10  C   UNL     1       0.826   8.714  19.954  0.00  0.00    +0.000 C 
ATOM     11  C   UNL     1       1.052  10.052  20.666  0.00  0.00    +0.000 C 
ATOM     12  C   UNL     1       1.076  11.252  19.680  0.00  0.00    +0.000 C 
ATOM     13  C   UNL     1       2.000  10.971  18.481  0.00  0.00    +0.000 C 
ATOM     14  C   UNL     1       1.621   9.649  17.819  0.00  0.00    +0.000 C 
ATOM     15  C   UNL     1       1.379  12.600  20.429  0.00  0.00    +0.000 C 
ATOM     16  C   UNL     1      -0.144  12.831  20.532  0.00  0.00    +0.000 C 
ATOM     17  C   UNL     1      -0.328  11.863  19.344  0.00  0.00    +0.000 C 
ATOM     18  N   UNL     1       2.478   6.524  19.494  0.00  0.00    +0.000 NA
ATOM     19  H   UNL     1       2.863   3.534  19.492  0.00  0.00    +0.000 HD
ENDROOT
BRANCH  17  20
ATOM     20  O   UNL     1      -0.472  12.506  18.058  0.00  0.00    +0.000 OA
ATOM     21  H   UNL     1      -1.418  12.741  17.995  0.00  0.00    +0.000 HD
ENDBRANCH  17  20
BRANCH  15  22
ATOM     22  O   UNL     1       2.093  13.619  19.680  0.00  0.00    +0.000 OA
BRANCH  22  23
ATOM     23  C   UNL     1       2.980  14.419  20.471  0.00  0.00    +0.000 C 
BRANCH  23  24
ATOM     24  C   UNL     1       3.755  15.415  19.597  0.00  0.00    +0.000 C 
BRANCH  24  25
ATOM     25  N   UNL     1       3.904  14.963  18.196  0.00  0.00    +0.000 NA
ATOM     26  C   UNL     1       3.422  15.961  17.238  0.00  0.00    +0.000 C 
ATOM     27  C   UNL     1       5.307  14.654  17.913  0.00  0.00    +0.000 C 
ENDBRANCH  24  25
ENDBRANCH  23  24
ENDBRANCH  22  23
ENDBRANCH  15  22
TORSDOF 5
ENDMDL
MODEL 6
REMARK VINA RESULT:      -5.9      1.760      2.075
REMARK  Name = 
REMARK  9 active torsions:
REMARK  status: ('A' for Active; 'I' for Inactive)
REMARK    1  A    between atoms: C_1  and  N_2
REMARK    2  A    between atoms: C_5  and  C_6
REMARK    3  A    between atoms: C_15  and  O_16
REMARK    4  A    between atoms: O_16  and  C_17
REMARK    5  A    between atoms: C_17  and  C_18
REMARK    6  A    between atoms: C_18  and  N_19
REMARK    7  A    between atoms: N_19  and  C_20
REMARK    8  A    between atoms: N_19  and  C_21
REMARK    9  A    between atoms: C_23  and  O_24
REMARK                            x       y       z     vdW  Elec       q    Type
REMARK                         _______ _______ _______ _____ _____    ______ ____
ROOT
ATOM      1  C   UNL     1       5.043   6.517  16.479  0.00  0.00    +0.000 C 
ATOM      2  N   UNL     1       4.609   5.397  17.307  0.00  0.00    +0.000 N 
ATOM      3  C   UNL     1       3.583   5.728  18.222  0.00  0.00    +0.000 A 
ATOM      4  C   UNL     1       3.102   4.748  19.059  0.00  0.00    +0.000 A 
ATOM      5  C   UNL     1       2.159   5.137  19.981  0.00  0.00    +0.000 A 
ATOM      6  C   UNL     1       1.552   4.163  20.942  0.00  0.00    +0.000 C 
ATOM      7  N   UNL     1       1.740   6.409  20.073  0.00  0.00    +0.000 NA
ATOM      8  C   UNL     1       2.233   7.305  19.210  0.00  0.00    +0.000 A 
ATOM      9  N   UNL     1       1.822   8.606  19.290  0.00  0.00    +0.000 N 
ATOM     10  C   UNL     1       2.253   9.623  18.354  0.00  0.00    +0.000 C 
ATOM     11  C   UNL     1       1.019  10.325  17.776  0.00  0.00    +0.000 C 
ATOM     12  C   UNL     1       0.018  10.765  18.879  0.00  0.00    +0.000 C 
ATOM     13  C   UNL     1      -0.269   9.616  19.862  0.00  0.00    +0.000 C 
ATOM     14  C   UNL     1       1.038   9.056  20.419  0.00  0.00    +0.000 C 
ATOM     15  C   UNL     1      -1.267  11.418  18.254  0.00  0.00    +0.000 C 
ATOM     16  C   UNL     1      -0.600  12.797  18.437  0.00  0.00    +0.000 C 
ATOM     17  C   UNL     1       0.306  12.167  19.517  0.00  0.00    +0.000 C 
ATOM     18  N   UNL     1       3.131   6.984  18.268  0.00  0.00    +0.000 NA
ATOM     19  H   UNL     1       5.381   5.022  17.852  0.00  0.00    +0.000 HD
ENDROOT
BRANCH  17  20
ATOM     20  O   UNL     1      -0.141  12.374  20.875  0.00  0.00    +0.000 OA
ATOM     21  H   UNL     1      -0.171  13.344  20.988  0.00  0.00    +0.000 HD
ENDBRANCH  17  20
BRANCH  15  22
ATOM     22  O   UNL     1      -2.511  11.249  18.986  0.00  0.00    +0.000 OA
BRANCH  22  23
ATOM     23  C   UNL     1      -3.688  11.322  18.174  0.00  0.00    +0.000 C 
BRANCH  23  24
ATOM     24  C   UNL     1      -4.867  11.912  18.959  0.00  0.00    +0.000 C 
BRANCH  24  25
ATOM     25  N   UNL     1      -6.155  11.246  18.660  0.00  0.00    +0.000 NA
ATOM     26  C   UNL     1      -6.872  10.855  19.876  0.00  0.00    +0.000 C 
ATOM     27  C   UNL     1      -7.003  12.129  17.856  0.00  0.00    +0.000 C 
ENDBRANCH  24  25
ENDBRANCH  23  24
ENDBRANCH  22  23
ENDBRANCH  15  22
TORSDOF 5
ENDMDL
MODEL 7
REMARK VINA RESULT:      -5.8      2.771      4.490
REMARK  Name = 
REMARK  9 active torsions:
REMARK  status: ('A' for Active; 'I' for Inactive)
REMARK    1  A    between atoms: C_1  and  N_2
REMARK    2  A    between atoms: C_5  and  C_6
REMARK    3  A    between atoms: C_15  and  O_16
REMARK    4  A    between atoms: O_16  and  C_17
REMARK    5  A    between atoms: C_17  and  C_18
REMARK    6  A    between atoms: C_18  and  N_19
REMARK    7  A    between atoms: N_19  and  C_20
REMARK    8  A    between atoms: N_19  and  C_21
REMARK    9  A    between atoms: C_23  and  O_24
REMARK                            x       y       z     vdW  Elec       q    Type
REMARK                         _______ _______ _______ _____ _____    ______ ____
ROOT
ATOM      1  C   UNL     1       2.174   4.588  21.170  0.00  0.00    +0.000 C 
ATOM      2  N   UNL     1       3.176   4.432  20.120  0.00  0.00    +0.000 N 
ATOM      3  C   UNL     1       3.294   5.558  19.274  0.00  0.00    +0.000 A 
ATOM      4  C   UNL     1       4.205   5.518  18.243  0.00  0.00    +0.000 A 
ATOM      5  C   UNL     1       4.230   6.606  17.403  0.00  0.00    +0.000 A 
ATOM      6  C   UNL     1       5.181   6.686  16.251  0.00  0.00    +0.000 C 
ATOM      7  N   UNL     1       3.398   7.647  17.567  0.00  0.00    +0.000 NA
ATOM      8  C   UNL     1       2.554   7.629  18.605  0.00  0.00    +0.000 A 
ATOM      9  N   UNL     1       1.696   8.678  18.785  0.00  0.00    +0.000 N 
ATOM     10  C   UNL     1       0.800   8.770  19.919  0.00  0.00    +0.000 C 
ATOM     11  C   UNL     1       1.001  10.127  20.605  0.00  0.00    +0.000 C 
ATOM     12  C   UNL     1       0.982  11.308  19.597  0.00  0.00    +0.000 C 
ATOM     13  C   UNL     1       1.899  11.029  18.393  0.00  0.00    +0.000 C 
ATOM     14  C   UNL     1       1.546   9.685  17.758  0.00  0.00    +0.000 C 
ATOM     15  C   UNL     1       1.259  12.676  20.318  0.00  0.00    +0.000 C 
ATOM     16  C   UNL     1      -0.268  12.871  20.436  0.00  0.00    +0.000 C 
ATOM     17  C   UNL     1      -0.440  11.877  19.267  0.00  0.00    +0.000 C 
ATOM     18  N   UNL     1       2.502   6.614  19.478  0.00  0.00    +0.000 NA
ATOM     19  H   UNL     1       2.964   3.636  19.526  0.00  0.00    +0.000 HD
ENDROOT
BRANCH  17  20
ATOM     20  O   UNL     1      -0.616  12.493  17.972  0.00  0.00    +0.000 OA
ATOM     21  H   UNL     1      -0.216  13.381  18.056  0.00  0.00    +0.000 HD
ENDBRANCH  17  20
BRANCH  15  22
ATOM     22  O   UNL     1       1.939  13.700  19.542  0.00  0.00    +0.000 OA
BRANCH  22  23
ATOM     23  C   UNL     1       1.854  15.016  20.101  0.00  0.00    +0.000 C 
BRANCH  23  24
ATOM     24  C   UNL     1       1.368  16.030  19.056  0.00  0.00    +0.000 C 
BRANCH  24  25
ATOM     25  N   UNL     1      -0.088  16.283  19.127  0.00  0.00    +0.000 NA
ATOM     26  C   UNL     1      -0.478  16.929  20.383  0.00  0.00    +0.000 C 
ATOM     27  C   UNL     1      -0.510  17.116  17.999  0.00  0.00    +0.000 C 
ENDBRANCH  24  25
ENDBRANCH  23  24
ENDBRANCH  22  23
ENDBRANCH  15  22
TORSDOF 5
ENDMDL
MODEL 8
REMARK VINA RESULT:      -5.8      2.953      5.426
REMARK  Name = 
REMARK  9 active torsions:
REMARK  status: ('A' for Active; 'I' for Inactive)
REMARK    1  A    between atoms: C_1  and  N_2
REMARK    2  A    between atoms: C_5  and  C_6
REMARK    3  A    between atoms: C_15  and  O_16
REMARK    4  A    between atoms: O_16  and  C_17
REMARK    5  A    between atoms: C_17  and  C_18
REMARK    6  A    between atoms: C_18  and  N_19
REMARK    7  A    between atoms: N_19  and  C_20
REMARK    8  A    between atoms: N_19  and  C_21
REMARK    9  A    between atoms: C_23  and  O_24
REMARK                            x       y       z     vdW  Elec       q    Type
REMARK                         _______ _______ _______ _____ _____    ______ ____
ROOT
ATOM      1  C   UNL     1       2.187   4.443  21.157  0.00  0.00    +0.000 C 
ATOM      2  N   UNL     1       3.184   4.310  20.099  0.00  0.00    +0.000 N 
ATOM      3  C   UNL     1       3.297   5.453  19.276  0.00  0.00    +0.000 A 
ATOM      4  C   UNL     1       4.203   5.435  18.240  0.00  0.00    +0.000 A 
ATOM      5  C   UNL     1       4.223   6.540  17.422  0.00  0.00    +0.000 A 
ATOM      6  C   UNL     1       5.168   6.645  16.268  0.00  0.00    +0.000 C 
ATOM      7  N   UNL     1       3.392   7.578  17.613  0.00  0.00    +0.000 NA
ATOM      8  C   UNL     1       2.554   7.538  18.655  0.00  0.00    +0.000 A 
ATOM      9  N   UNL     1       1.697   8.583  18.863  0.00  0.00    +0.000 N 
ATOM     10  C   UNL     1       0.808   8.651  20.003  0.00  0.00    +0.000 C 
ATOM     11  C   UNL     1       1.012   9.993  20.716  0.00  0.00    +0.000 C 
ATOM     12  C   UNL     1       0.988  11.195  19.734  0.00  0.00    +0.000 C 
ATOM     13  C   UNL     1       1.899  10.942  18.519  0.00  0.00    +0.000 C 
ATOM     14  C   UNL     1       1.542   9.612  17.858  0.00  0.00    +0.000 C 
ATOM     15  C   UNL     1       1.270  12.548  20.482  0.00  0.00    +0.000 C 
ATOM     16  C   UNL     1      -0.256  12.740  20.613  0.00  0.00    +0.000 C 
ATOM     17  C   UNL     1      -0.436  11.771  19.424  0.00  0.00    +0.000 C 
ATOM     18  N   UNL     1       2.507   6.505  19.507  0.00  0.00    +0.000 NA
ATOM     19  H   UNL     1       2.968   3.526  19.489  0.00  0.00    +0.000 HD
ENDROOT
BRANCH  17  20
ATOM     20  O   UNL     1      -0.618  12.415  18.143  0.00  0.00    +0.000 OA
ATOM     21  H   UNL     1       0.242  12.323  17.687  0.00  0.00    +0.000 HD
ENDBRANCH  17  20
BRANCH  15  22
ATOM     22  O   UNL     1       1.945  13.587  19.725  0.00  0.00    +0.000 OA
BRANCH  22  23
ATOM     23  C   UNL     1       2.384  14.700  20.513  0.00  0.00    +0.000 C 
BRANCH  23  24
ATOM     24  C   UNL     1       3.765  14.432  21.127  0.00  0.00    +0.000 C 
BRANCH  24  25
ATOM     25  N   UNL     1       3.811  14.683  22.585  0.00  0.00    +0.000 NA
ATOM     26  C   UNL     1       5.067  14.231  23.187  0.00  0.00    +0.000 C 
ATOM     27  C   UNL     1       3.626  16.110  22.857  0.00  0.00    +0.000 C 
ENDBRANCH  24  25
ENDBRANCH  23  24
ENDBRANCH  22  23
ENDBRANCH  15  22
TORSDOF 5
ENDMDL
MODEL 9
REMARK VINA RESULT:      -5.7      0.935      1.185
REMARK  Name = 
REMARK  9 active torsions:
REMARK  status: ('A' for Active; 'I' for Inactive)
REMARK    1  A    between atoms: C_1  and  N_2
REMARK    2  A    between atoms: C_5  and  C_6
REMARK    3  A    between atoms: C_15  and  O_16
REMARK    4  A    between atoms: O_16  and  C_17
REMARK    5  A    between atoms: C_17  and  C_18
REMARK    6  A    between atoms: C_18  and  N_19
REMARK    7  A    between atoms: N_19  and  C_20
REMARK    8  A    between atoms: N_19  and  C_21
REMARK    9  A    between atoms: C_23  and  O_24
REMARK                            x       y       z     vdW  Elec       q    Type
REMARK                         _______ _______ _______ _____ _____    ______ ____
ROOT
ATOM      1  C   UNL     1       5.714   4.803  17.613  0.00  0.00    +0.000 C 
ATOM      2  N   UNL     1       5.079   3.778  18.435  0.00  0.00    +0.000 N 
ATOM      3  C   UNL     1       3.967   4.246  19.172  0.00  0.00    +0.000 A 
ATOM      4  C   UNL     1       3.296   3.365  19.988  0.00  0.00    +0.000 A 
ATOM      5  C   UNL     1       2.270   3.884  20.741  0.00  0.00    +0.000 A 
ATOM      6  C   UNL     1       1.458   3.027  21.660  0.00  0.00    +0.000 C 
ATOM      7  N   UNL     1       1.948   5.188  20.697  0.00  0.00    +0.000 NA
ATOM      8  C   UNL     1       2.628   5.983  19.863  0.00  0.00    +0.000 A 
ATOM      9  N   UNL     1       2.318   7.313  19.808  0.00  0.00    +0.000 N 
ATOM     10  C   UNL     1       2.957   8.227  18.885  0.00  0.00    +0.000 C 
ATOM     11  C   UNL     1       1.876   8.976  18.096  0.00  0.00    +0.000 C 
ATOM     12  C   UNL     1       0.772   9.564  19.016  0.00  0.00    +0.000 C 
ATOM     13  C   UNL     1       0.258   8.511  20.014  0.00  0.00    +0.000 C 
ATOM     14  C   UNL     1       1.425   7.896  20.784  0.00  0.00    +0.000 C 
ATOM     15  C   UNL     1      -0.356  10.265  18.177  0.00  0.00    +0.000 C 
ATOM     16  C   UNL     1       0.391  11.601  18.373  0.00  0.00    +0.000 C 
ATOM     17  C   UNL     1       1.084  10.982  19.606  0.00  0.00    +0.000 C 
ATOM     18  N   UNL     1       3.618   5.532  19.079  0.00  0.00    +0.000 NA
ATOM     19  H   UNL     1       5.735   3.387  19.105  0.00  0.00    +0.000 HD
ENDROOT
BRANCH  17  20
ATOM     20  O   UNL     1       0.471  11.315  20.872  0.00  0.00    +0.000 OA
ATOM     21  H   UNL     1       1.096  11.931  21.303  0.00  0.00    +0.000 HD
ENDBRANCH  17  20
BRANCH  15  22
ATOM     22  O   UNL     1      -1.699  10.238  18.732  0.00  0.00    +0.000 OA
BRANCH  22  23
ATOM     23  C   UNL     1      -2.690   9.699  17.851  0.00  0.00    +0.000 C 
BRANCH  23  24
ATOM     24  C   UNL     1      -4.002  10.490  17.944  0.00  0.00    +0.000 C 
BRANCH  24  25
ATOM     25  N   UNL     1      -4.120  11.542  16.910  0.00  0.00    +0.000 NA
ATOM     26  C   UNL     1      -3.817  11.037  15.568  0.00  0.00    +0.000 C 
ATOM     27  C   UNL     1      -5.468  12.113  16.923  0.00  0.00    +0.000 C 
ENDBRANCH  24  25
ENDBRANCH  23  24
ENDBRANCH  22  23
ENDBRANCH  15  22
TORSDOF 5
ENDMDL
