MODEL 1
REMARK VINA RESULT:      -6.4      0.000      0.000
REMARK  Name = 
REMARK  13 active torsions:
REMARK  status: ('A' for Active; 'I' for Inactive)
REMARK    1  A    between atoms: C_1  and  C_2
REMARK    2  A    between atoms: C_3  and  C_4
REMARK    3  A    between atoms: C_4  and  O_5
REMARK    4  A    between atoms: O_5  and  C_6
REMARK    5  A    between atoms: C_9  and  S_10
REMARK    6  A    between atoms: S_10  and  N_13
REMARK    7  A    between atoms: N_13  and  C_14
REMARK    8  A    between atoms: C_14  and  C_15
REMARK    9  A    between atoms: C_15  and  C_16
REMARK   10  A    between atoms: C_15  and  N_20
REMARK   11  A    between atoms: N_18  and  O_19
REMARK   12  A    between atoms: N_23  and  S_24
REMARK   13  A    between atoms: S_24  and  C_25
REMARK                            x       y       z     vdW  Elec       q    Type
REMARK                         _______ _______ _______ _____ _____    ______ ____
ROOT
ATOM      1  C   UNL     1       1.882   6.220  20.826  0.00  0.00    +0.000 C 
ENDROOT
BRANCH   1   2
ATOM      2  N   UNL     1       0.964   5.209  20.262  0.00  0.00    +0.000 NA
ATOM      3  H   UNL     1       0.018   5.172  20.655  0.00  0.00    +0.000 HD
BRANCH   2   4
ATOM      4  S   UNL     1       1.636   3.631  20.275  0.00  0.00    +0.000 S 
ATOM      5  O   UNL     1       0.645   2.746  19.713  0.00  0.00    +0.000 OA
ATOM      6  O   UNL     1       2.193   3.420  21.595  0.00  0.00    +0.000 OA
BRANCH   4  10
ATOM      7  C   UNL     1       5.103   4.016  17.301  0.00  0.00    +0.000 A 
ATOM      8  C   UNL     1       5.327   4.121  18.677  0.00  0.00    +0.000 A 
ATOM      9  C   UNL     1       4.280   3.961  19.588  0.00  0.00    +0.000 A 
ATOM     10  C   UNL     1       2.981   3.760  19.118  0.00  0.00    +0.000 A 
ATOM     11  C   UNL     1       2.735   3.674  17.744  0.00  0.00    +0.000 A 
ATOM     12  C   UNL     1       3.800   3.803  16.836  0.00  0.00    +0.000 A 
BRANCH   7  13
ATOM     13  O   UNL     1       6.220   4.159  16.524  0.00  0.00    +0.000 OA
BRANCH  13  14
ATOM     14  C   UNL     1       6.140   5.055  15.415  0.00  0.00    +0.000 C 
BRANCH  14  17
ATOM     15  C   UNL     1       5.810   2.891  11.883  0.00  0.00    +0.000 C 
ATOM     16  C   UNL     1       5.940   3.657  13.124  0.00  0.00    +0.000 C 
ATOM     17  C   UNL     1       6.049   4.284  14.155  0.00  0.00    +0.000 C 
ENDBRANCH  14  17
ENDBRANCH  13  14
ENDBRANCH   7  13
ENDBRANCH   4  10
ENDBRANCH   2   4
ENDBRANCH   1   2
BRANCH   1  18
ATOM     18  C   UNL     1       1.985   7.583  20.102  0.00  0.00    +0.000 C 
BRANCH  18  19
ATOM     19  N   UNL     1       0.646   8.269  20.183  0.00  0.00    +0.000 NA
ATOM     20  C   UNL     1       0.187   8.440  21.592  0.00  0.00    +0.000 C 
ATOM     21  C   UNL     1       0.935   9.547  22.365  0.00  0.00    +0.000 C 
ATOM     22  N   UNL     1       0.734  10.875  21.715  0.00  0.00    +0.000 NA
ATOM     23  C   UNL     1       1.188  10.800  20.279  0.00  0.00    +0.000 C 
ATOM     24  C   UNL     1       0.559   9.604  19.525  0.00  0.00    +0.000 C 
BRANCH  22  25
ATOM     25  S   UNL     1      -0.781  11.636  21.938  0.00  0.00    +0.000 S 
ATOM     26  C   UNL     1      -0.383  13.349  22.218  0.00  0.00    +0.000 C 
ATOM     27  O   UNL     1      -1.497  11.552  20.690  0.00  0.00    +0.000 OA
ATOM     28  O   UNL     1      -1.383  11.126  23.157  0.00  0.00    +0.000 OA
ENDBRANCH  22  25
ENDBRANCH  18  19
BRANCH  18  29
ATOM     29  C   UNL     1       2.419   7.317  18.649  0.00  0.00    +0.000 C 
ATOM     30  O   UNL     1       1.610   6.985  17.777  0.00  0.00    +0.000 OA
ATOM     31  N   UNL     1       3.740   7.498  18.336  0.00  0.00    +0.000 N 
ATOM     32  H   UNL     1       4.411   7.985  18.924  0.00  0.00    +0.000 HD
BRANCH  31  33
ATOM     33  O   UNL     1       4.113   7.203  17.006  0.00  0.00    +0.000 OA
ATOM     34  H   UNL     1       4.461   6.286  17.081  0.00  0.00    +0.000 HD
ENDBRANCH  31  33
ENDBRANCH  18  29
ENDBRANCH   1  18
TORSDOF 11
ENDMDL
MODEL 2
REMARK VINA RESULT:      -6.3      2.882      8.695
REMARK  Name = 
REMARK  13 active torsions:
REMARK  status: ('A' for Active; 'I' for Inactive)
REMARK    1  A    between atoms: C_1  and  C_2
REMARK    2  A    between atoms: C_3  and  C_4
REMARK    3  A    between atoms: C_4  and  O_5
REMARK    4  A    between atoms: O_5  and  C_6
REMARK    5  A    between atoms: C_9  and  S_10
REMARK    6  A    between atoms: S_10  and  N_13
REMARK    7  A    between atoms: N_13  and  C_14
REMARK    8  A    between atoms: C_14  and  C_15
REMARK    9  A    between atoms: C_15  and  C_16
REMARK   10  A    between atoms: C_15  and  N_20
REMARK   11  A    between atoms: N_18  and  O_19
REMARK   12  A    between atoms: N_23  and  S_24
REMARK   13  A    between atoms: S_24  and  C_25
REMARK                            x       y       z     vdW  Elec       q    Type
REMARK                         _______ _______ _______ _____ _____    ______ ____
ROOT
ATOM      1  C   UNL     1       1.771   7.455  20.069  0.00  0.00    +0.000 C 
ENDROOT
BRANCH   1   2
ATOM      2  N   UNL     1       1.914   8.198  21.337  0.00  0.00    +0.000 NA
ATOM      3  H   UNL     1       2.331   7.694  22.126  0.00  0.00    +0.000 HD
BRANCH   2   4
ATOM      4  S   UNL     1       0.441   8.912  21.849  0.00  0.00    +0.000 S 
ATOM      5  O   UNL     1       0.671   9.454  23.167  0.00  0.00    +0.000 OA
ATOM      6  O   UNL     1      -0.609   7.950  21.588  0.00  0.00    +0.000 OA
BRANCH   4  10
ATOM      7  C   UNL     1      -0.096  12.445  18.978  0.00  0.00    +0.000 A 
ATOM      8  C   UNL     1       0.868  12.487  19.991  0.00  0.00    +0.000 A 
ATOM      9  C   UNL     1       1.063  11.395  20.840  0.00  0.00    +0.000 A 
ATOM     10  C   UNL     1       0.243  10.272  20.720  0.00  0.00    +0.000 A 
ATOM     11  C   UNL     1      -0.741  10.221  19.726  0.00  0.00    +0.000 A 
ATOM     12  C   UNL     1      -0.908  11.312  18.856  0.00  0.00    +0.000 A 
BRANCH   7  13
ATOM     13  O   UNL     1      -0.159  13.567  18.197  0.00  0.00    +0.000 OA
BRANCH  13  14
ATOM     14  C   UNL     1      -0.113  14.832  18.860  0.00  0.00    +0.000 C 
BRANCH  14  17
ATOM     15  C   UNL     1       3.570  16.607  18.119  0.00  0.00    +0.000 C 
ATOM     16  C   UNL     1       2.271  15.991  18.392  0.00  0.00    +0.000 C 
ATOM     17  C   UNL     1       1.199  15.473  18.621  0.00  0.00    +0.000 C 
ENDBRANCH  14  17
ENDBRANCH  13  14
ENDBRANCH   7  13
ENDBRANCH   4  10
ENDBRANCH   2   4
ENDBRANCH   1   2
BRANCH   1  18
ATOM     18  C   UNL     1       2.663   6.207  19.860  0.00  0.00    +0.000 C 
BRANCH  18  19
ATOM     19  N   UNL     1       2.850   5.998  18.379  0.00  0.00    +0.000 NA
ATOM     20  C   UNL     1       3.653   7.089  17.755  0.00  0.00    +0.000 C 
ATOM     21  C   UNL     1       5.161   7.021  18.076  0.00  0.00    +0.000 C 
ATOM     22  N   UNL     1       5.753   5.749  17.571  0.00  0.00    +0.000 NA
ATOM     23  C   UNL     1       5.008   4.581  18.165  0.00  0.00    +0.000 C 
ATOM     24  C   UNL     1       3.477   4.706  17.980  0.00  0.00    +0.000 C 
BRANCH  22  25
ATOM     25  S   UNL     1       6.029   5.628  15.886  0.00  0.00    +0.000 S 
ATOM     26  C   UNL     1       5.562   3.958  15.477  0.00  0.00    +0.000 C 
ATOM     27  O   UNL     1       5.100   6.513  15.230  0.00  0.00    +0.000 OA
ATOM     28  O   UNL     1       7.453   5.753  15.637  0.00  0.00    +0.000 OA
ENDBRANCH  22  25
ENDBRANCH  18  19
BRANCH  18  29
ATOM     29  C   UNL     1       1.971   5.011  20.537  0.00  0.00    +0.000 C 
ATOM     30  O   UNL     1       0.843   4.633  20.201  0.00  0.00    +0.000 OA
ATOM     31  N   UNL     1       2.664   4.343  21.511  0.00  0.00    +0.000 N 
ATOM     32  H   UNL     1       3.662   4.439  21.678  0.00  0.00    +0.000 HD
BRANCH  31  33
ATOM     33  O   UNL     1       1.984   3.277  22.142  0.00  0.00    +0.000 OA
ATOM     34  H   UNL     1       1.049   3.439  21.882  0.00  0.00    +0.000 HD
ENDBRANCH  31  33
ENDBRANCH  18  29
ENDBRANCH   1  18
TORSDOF 11
ENDMDL
MODEL 3
REMARK VINA RESULT:      -6.2      3.675      5.634
REMARK  Name = 
REMARK  13 active torsions:
REMARK  status: ('A' for Active; 'I' for Inactive)
REMARK    1  A    between atoms: C_1  and  C_2
REMARK    2  A    between atoms: C_3  and  C_4
REMARK    3  A    between atoms: C_4  and  O_5
REMARK    4  A    between atoms: O_5  and  C_6
REMARK    5  A    between atoms: C_9  and  S_10
REMARK    6  A    between atoms: S_10  and  N_13
REMARK    7  A    between atoms: N_13  and  C_14
REMARK    8  A    between atoms: C_14  and  C_15
REMARK    9  A    between atoms: C_15  and  C_16
REMARK   10  A    between atoms: C_15  and  N_20
REMARK   11  A    between atoms: N_18  and  O_19
REMARK   12  A    between atoms: N_23  and  S_24
REMARK   13  A    between atoms: S_24  and  C_25
REMARK                            x       y       z     vdW  Elec       q    Type
REMARK                         _______ _______ _______ _____ _____    ______ ____
ROOT
ATOM      1  C   UNL     1       1.089  11.118  19.432  0.00  0.00    +0.000 C 
ENDROOT
BRANCH   1   2
ATOM      2  N   UNL     1       0.177   9.978  19.652  0.00  0.00    +0.000 NA
ATOM      3  H   UNL     1      -0.818  10.196  19.769  0.00  0.00    +0.000 HD
BRANCH   2   4
ATOM      4  S   UNL     1       0.683   8.971  20.944  0.00  0.00    +0.000 S 
ATOM      5  O   UNL     1      -0.504   8.359  21.492  0.00  0.00    +0.000 OA
ATOM      6  O   UNL     1       1.588   9.753  21.760  0.00  0.00    +0.000 OA
BRANCH   4  10
ATOM      7  C   UNL     1       3.156   5.726  18.856  0.00  0.00    +0.000 A 
ATOM      8  C   UNL     1       2.595   5.496  20.117  0.00  0.00    +0.000 A 
ATOM      9  C   UNL     1       1.805   6.467  20.736  0.00  0.00    +0.000 A 
ATOM     10  C   UNL     1       1.627   7.708  20.121  0.00  0.00    +0.000 A 
ATOM     11  C   UNL     1       2.199   7.962  18.871  0.00  0.00    +0.000 A 
ATOM     12  C   UNL     1       2.966   6.967  18.240  0.00  0.00    +0.000 A 
BRANCH   7  13
ATOM     13  O   UNL     1       3.878   4.679  18.350  0.00  0.00    +0.000 OA
BRANCH  13  14
ATOM     14  C   UNL     1       5.187   4.465  18.880  0.00  0.00    +0.000 C 
BRANCH  14  17
ATOM     15  C   UNL     1       7.704   7.504  17.580  0.00  0.00    +0.000 C 
ATOM     16  C   UNL     1       6.828   6.424  18.035  0.00  0.00    +0.000 C 
ATOM     17  C   UNL     1       6.098   5.529  18.404  0.00  0.00    +0.000 C 
ENDBRANCH  14  17
ENDBRANCH  13  14
ENDBRANCH   7  13
ENDBRANCH   4  10
ENDBRANCH   2   4
ENDBRANCH   1   2
BRANCH   1  18
ATOM     18  C   UNL     1       0.471  12.457  18.964  0.00  0.00    +0.000 C 
BRANCH  18  19
ATOM     19  N   UNL     1       0.737  13.499  20.021  0.00  0.00    +0.000 NA
ATOM     20  C   UNL     1       2.196  13.710  20.246  0.00  0.00    +0.000 C 
ATOM     21  C   UNL     1       2.896  14.501  19.121  0.00  0.00    +0.000 C 
ATOM     22  N   UNL     1       2.309  15.866  18.988  0.00  0.00    +0.000 NA
ATOM     23  C   UNL     1       0.827  15.750  18.742  0.00  0.00    +0.000 C 
ATOM     24  C   UNL     1       0.128  14.838  19.779  0.00  0.00    +0.000 C 
BRANCH  22  25
ATOM     25  S   UNL     1       2.740  17.022  20.173  0.00  0.00    +0.000 S 
ATOM     26  C   UNL     1       4.520  17.071  20.123  0.00  0.00    +0.000 C 
ATOM     27  O   UNL     1       2.256  18.304  19.725  0.00  0.00    +0.000 OA
ATOM     28  O   UNL     1       2.357  16.517  21.479  0.00  0.00    +0.000 OA
ENDBRANCH  22  25
ENDBRANCH  18  19
BRANCH  18  29
ATOM     29  C   UNL     1      -1.033  12.230  18.732  0.00  0.00    +0.000 C 
ATOM     30  O   UNL     1      -1.815  12.028  19.668  0.00  0.00    +0.000 OA
ATOM     31  N   UNL     1      -1.496  12.294  17.445  0.00  0.00    +0.000 N 
ATOM     32  H   UNL     1      -0.973  12.679  16.663  0.00  0.00    +0.000 HD
BRANCH  31  33
ATOM     33  O   UNL     1      -2.873  12.038  17.262  0.00  0.00    +0.000 OA
ATOM     34  H   UNL     1      -2.991  12.194  16.298  0.00  0.00    +0.000 HD
ENDBRANCH  31  33
ENDBRANCH  18  29
ENDBRANCH   1  18
TORSDOF 11
ENDMDL
MODEL 4
REMARK VINA RESULT:      -6.2      3.194      8.367
REMARK  Name = 
REMARK  13 active torsions:
REMARK  status: ('A' for Active; 'I' for Inactive)
REMARK    1  A    between atoms: C_1  and  C_2
REMARK    2  A    between atoms: C_3  and  C_4
REMARK    3  A    between atoms: C_4  and  O_5
REMARK    4  A    between atoms: O_5  and  C_6
REMARK    5  A    between atoms: C_9  and  S_10
REMARK    6  A    between atoms: S_10  and  N_13
REMARK    7  A    between atoms: N_13  and  C_14
REMARK    8  A    between atoms: C_14  and  C_15
REMARK    9  A    between atoms: C_15  and  C_16
REMARK   10  A    between atoms: C_15  and  N_20
REMARK   11  A    between atoms: N_18  and  O_19
REMARK   12  A    between atoms: N_23  and  S_24
REMARK   13  A    between atoms: S_24  and  C_25
REMARK                            x       y       z     vdW  Elec       q    Type
REMARK                         _______ _______ _______ _____ _____    ______ ____
ROOT
ATOM      1  C   UNL     1       2.347   7.293  19.947  0.00  0.00    +0.000 C 
ENDROOT
BRANCH   1   2
ATOM      2  N   UNL     1       1.109   7.317  20.753  0.00  0.00    +0.000 NA
ATOM      3  H   UNL     1       0.241   7.052  20.277  0.00  0.00    +0.000 HD
BRANCH   2   4
ATOM      4  S   UNL     1       0.873   8.816  21.550  0.00  0.00    +0.000 S 
ATOM      5  O   UNL     1       2.172   9.430  21.688  0.00  0.00    +0.000 OA
ATOM      6  O   UNL     1       0.022   8.558  22.693  0.00  0.00    +0.000 OA
BRANCH   4  10
ATOM      7  C   UNL     1      -1.483  11.268  18.476  0.00  0.00    +0.000 A 
ATOM      8  C   UNL     1      -0.703  10.178  18.075  0.00  0.00    +0.000 A 
ATOM      9  C   UNL     1      -0.019   9.403  19.014  0.00  0.00    +0.000 A 
ATOM     10  C   UNL     1      -0.059   9.758  20.363  0.00  0.00    +0.000 A 
ATOM     11  C   UNL     1      -0.816  10.859  20.780  0.00  0.00    +0.000 A 
ATOM     12  C   UNL     1      -1.527  11.613  19.831  0.00  0.00    +0.000 A 
BRANCH   7  13
ATOM     13  O   UNL     1      -2.127  11.919  17.458  0.00  0.00    +0.000 OA
BRANCH  13  14
ATOM     14  C   UNL     1      -3.386  11.395  17.037  0.00  0.00    +0.000 C 
BRANCH  14  17
ATOM     15  C   UNL     1      -2.985   9.647  13.289  0.00  0.00    +0.000 C 
ATOM     16  C   UNL     1      -3.136  10.273  14.603  0.00  0.00    +0.000 C 
ATOM     17  C   UNL     1      -3.253  10.795  15.691  0.00  0.00    +0.000 C 
ENDBRANCH  14  17
ENDBRANCH  13  14
ENDBRANCH   7  13
ENDBRANCH   4  10
ENDBRANCH   2   4
ENDBRANCH   1   2
BRANCH   1  18
ATOM     18  C   UNL     1       3.025   5.923  19.708  0.00  0.00    +0.000 C 
BRANCH  18  19
ATOM     19  N   UNL     1       3.174   5.718  18.222  0.00  0.00    +0.000 NA
ATOM     20  C   UNL     1       3.956   6.813  17.579  0.00  0.00    +0.000 C 
ATOM     21  C   UNL     1       5.472   6.749  17.860  0.00  0.00    +0.000 C 
ATOM     22  N   UNL     1       6.055   5.480  17.337  0.00  0.00    +0.000 NA
ATOM     23  C   UNL     1       5.330   4.308  17.948  0.00  0.00    +0.000 C 
ATOM     24  C   UNL     1       3.794   4.428  17.804  0.00  0.00    +0.000 C 
BRANCH  22  25
ATOM     25  S   UNL     1       6.286   5.363  15.645  0.00  0.00    +0.000 S 
ATOM     26  C   UNL     1       5.934   3.660  15.264  0.00  0.00    +0.000 C 
ATOM     27  O   UNL     1       5.274   6.171  15.013  0.00  0.00    +0.000 OA
ATOM     28  O   UNL     1       7.689   5.592  15.350  0.00  0.00    +0.000 OA
ENDBRANCH  22  25
ENDBRANCH  18  19
BRANCH  18  29
ATOM     29  C   UNL     1       2.151   4.840  20.364  0.00  0.00    +0.000 C 
ATOM     30  O   UNL     1       2.345   4.458  21.523  0.00  0.00    +0.000 OA
ATOM     31  N   UNL     1       1.113   4.329  19.631  0.00  0.00    +0.000 N 
ATOM     32  H   UNL     1       0.749   4.746  18.778  0.00  0.00    +0.000 HD
BRANCH  31  33
ATOM     33  O   UNL     1       0.357   3.307  20.246  0.00  0.00    +0.000 OA
ATOM     34  H   UNL     1       0.476   2.552  19.626  0.00  0.00    +0.000 HD
ENDBRANCH  31  33
ENDBRANCH  18  29
ENDBRANCH   1  18
TORSDOF 11
ENDMDL
MODEL 5
REMARK VINA RESULT:      -6.2      3.148      8.242
REMARK  Name = 
REMARK  13 active torsions:
REMARK  status: ('A' for Active; 'I' for Inactive)
REMARK    1  A    between atoms: C_1  and  C_2
REMARK    2  A    between atoms: C_3  and  C_4
REMARK    3  A    between atoms: C_4  and  O_5
REMARK    4  A    between atoms: O_5  and  C_6
REMARK    5  A    between atoms: C_9  and  S_10
REMARK    6  A    between atoms: S_10  and  N_13
REMARK    7  A    between atoms: N_13  and  C_14
REMARK    8  A    between atoms: C_14  and  C_15
REMARK    9  A    between atoms: C_15  and  C_16
REMARK   10  A    between atoms: C_15  and  N_20
REMARK   11  A    between atoms: N_18  and  O_19
REMARK   12  A    between atoms: N_23  and  S_24
REMARK   13  A    between atoms: S_24  and  C_25
REMARK                            x       y       z     vdW  Elec       q    Type
REMARK                         _______ _______ _______ _____ _____    ______ ____
ROOT
ATOM      1  C   UNL     1       1.756   7.081  19.940  0.00  0.00    +0.000 C 
ENDROOT
BRANCH   1   2
ATOM      2  N   UNL     1       2.164   8.104  20.924  0.00  0.00    +0.000 NA
ATOM      3  H   UNL     1       2.846   7.820  21.634  0.00  0.00    +0.000 HD
BRANCH   2   4
ATOM      4  S   UNL     1       0.823   8.839  21.701  0.00  0.00    +0.000 S 
ATOM      5  O   UNL     1       1.354   9.779  22.659  0.00  0.00    +0.000 OA
ATOM      6  O   UNL     1      -0.076   7.773  22.090  0.00  0.00    +0.000 OA
BRANCH   4  10
ATOM      7  C   UNL     1      -1.197  11.190  18.324  0.00  0.00    +0.000 A 
ATOM      8  C   UNL     1      -1.543  11.418  19.660  0.00  0.00    +0.000 A 
ATOM      9  C   UNL     1      -0.899  10.734  20.694  0.00  0.00    +0.000 A 
ATOM     10  C   UNL     1       0.057   9.763  20.388  0.00  0.00    +0.000 A 
ATOM     11  C   UNL     1       0.400   9.506  19.057  0.00  0.00    +0.000 A 
ATOM     12  C   UNL     1      -0.231  10.223  18.025  0.00  0.00    +0.000 A 
BRANCH   7  13
ATOM     13  O   UNL     1      -1.881  11.951  17.415  0.00  0.00    +0.000 OA
BRANCH  13  14
ATOM     14  C   UNL     1      -3.173  11.493  17.015  0.00  0.00    +0.000 C 
BRANCH  14  17
ATOM     15  C   UNL     1      -2.965   9.620  13.313  0.00  0.00    +0.000 C 
ATOM     16  C   UNL     1      -3.024  10.275  14.620  0.00  0.00    +0.000 C 
ATOM     17  C   UNL     1      -3.079  10.811  15.706  0.00  0.00    +0.000 C 
ENDBRANCH  14  17
ENDBRANCH  13  14
ENDBRANCH   7  13
ENDBRANCH   4  10
ENDBRANCH   2   4
ENDBRANCH   1   2
BRANCH   1  18
ATOM     18  C   UNL     1       2.671   5.845  19.765  0.00  0.00    +0.000 C 
BRANCH  18  19
ATOM     19  N   UNL     1       2.924   5.644  18.292  0.00  0.00    +0.000 NA
ATOM     20  C   UNL     1       3.685   6.778  17.694  0.00  0.00    +0.000 C 
ATOM     21  C   UNL     1       5.182   6.795  18.070  0.00  0.00    +0.000 C 
ATOM     22  N   UNL     1       5.863   5.558  17.591  0.00  0.00    +0.000 NA
ATOM     23  C   UNL     1       5.164   4.351  18.162  0.00  0.00    +0.000 C 
ATOM     24  C   UNL     1       3.636   4.389  17.922  0.00  0.00    +0.000 C 
BRANCH  22  25
ATOM     25  S   UNL     1       6.207   5.450  15.919  0.00  0.00    +0.000 S 
ATOM     26  C   UNL     1       5.975   3.729  15.526  0.00  0.00    +0.000 C 
ATOM     27  O   UNL     1       5.192   6.197  15.219  0.00  0.00    +0.000 OA
ATOM     28  O   UNL     1       7.610   5.757  15.710  0.00  0.00    +0.000 OA
ENDBRANCH  22  25
ENDBRANCH  18  19
BRANCH  18  29
ATOM     29  C   UNL     1       1.965   4.638  20.407  0.00  0.00    +0.000 C 
ATOM     30  O   UNL     1       0.850   4.258  20.032  0.00  0.00    +0.000 OA
ATOM     31  N   UNL     1       2.630   3.963  21.395  0.00  0.00    +0.000 N 
ATOM     32  H   UNL     1       3.621   4.063  21.595  0.00  0.00    +0.000 HD
BRANCH  31  33
ATOM     33  O   UNL     1       1.937   2.887  21.994  0.00  0.00    +0.000 OA
ATOM     34  H   UNL     1       2.099   2.152  21.361  0.00  0.00    +0.000 HD
ENDBRANCH  31  33
ENDBRANCH  18  29
ENDBRANCH   1  18
TORSDOF 11
ENDMDL
MODEL 6
REMARK VINA RESULT:      -6.2      2.766      4.591
REMARK  Name = 
REMARK  13 active torsions:
REMARK  status: ('A' for Active; 'I' for Inactive)
REMARK    1  A    between atoms: C_1  and  C_2
REMARK    2  A    between atoms: C_3  and  C_4
REMARK    3  A    between atoms: C_4  and  O_5
REMARK    4  A    between atoms: O_5  and  C_6
REMARK    5  A    between atoms: C_9  and  S_10
REMARK    6  A    between atoms: S_10  and  N_13
REMARK    7  A    between atoms: N_13  and  C_14
REMARK    8  A    between atoms: C_14  and  C_15
REMARK    9  A    between atoms: C_15  and  C_16
REMARK   10  A    between atoms: C_15  and  N_20
REMARK   11  A    between atoms: N_18  and  O_19
REMARK   12  A    between atoms: N_23  and  S_24
REMARK   13  A    between atoms: S_24  and  C_25
REMARK                            x       y       z     vdW  Elec       q    Type
REMARK                         _______ _______ _______ _____ _____    ______ ____
ROOT
ATOM      1  C   UNL     1      -0.415  10.911  20.513  0.00  0.00    +0.000 C 
ENDROOT
BRANCH   1   2
ATOM      2  N   UNL     1       0.578   9.905  20.088  0.00  0.00    +0.000 NA
ATOM      3  H   UNL     1       0.434   9.470  19.171  0.00  0.00    +0.000 HD
BRANCH   2   4
ATOM      4  S   UNL     1       0.810   8.674  21.259  0.00  0.00    +0.000 S 
ATOM      5  O   UNL     1      -0.499   8.180  21.616  0.00  0.00    +0.000 OA
ATOM      6  O   UNL     1       1.728   9.198  22.248  0.00  0.00    +0.000 OA
BRANCH   4  10
ATOM      7  C   UNL     1       3.011   5.396  18.929  0.00  0.00    +0.000 A 
ATOM      8  C   UNL     1       2.370   5.106  20.138  0.00  0.00    +0.000 A 
ATOM      9  C   UNL     1       1.663   6.093  20.829  0.00  0.00    +0.000 A 
ATOM     10  C   UNL     1       1.648   7.401  20.341  0.00  0.00    +0.000 A 
ATOM     11  C   UNL     1       2.301   7.714  19.144  0.00  0.00    +0.000 A 
ATOM     12  C   UNL     1       2.984   6.707  18.440  0.00  0.00    +0.000 A 
BRANCH   7  13
ATOM     13  O   UNL     1       3.637   4.331  18.341  0.00  0.00    +0.000 OA
BRANCH  13  14
ATOM     14  C   UNL     1       5.050   4.422  18.152  0.00  0.00    +0.000 C 
BRANCH  14  17
ATOM     15  C   UNL     1       5.998   4.013  14.128  0.00  0.00    +0.000 C 
ATOM     16  C   UNL     1       5.661   4.142  15.546  0.00  0.00    +0.000 C 
ATOM     17  C   UNL     1       5.374   4.253  16.718  0.00  0.00    +0.000 C 
ENDBRANCH  14  17
ENDBRANCH  13  14
ENDBRANCH   7  13
ENDBRANCH   4  10
ENDBRANCH   2   4
ENDBRANCH   1   2
BRANCH   1  18
ATOM     18  C   UNL     1      -0.744  12.060  19.531  0.00  0.00    +0.000 C 
BRANCH  18  19
ATOM     19  N   UNL     1      -1.601  13.071  20.249  0.00  0.00    +0.000 NA
ATOM     20  C   UNL     1      -1.918  12.649  21.644  0.00  0.00    +0.000 C 
ATOM     21  C   UNL     1      -0.732  12.780  22.623  0.00  0.00    +0.000 C 
ATOM     22  N   UNL     1      -0.285  14.199  22.727  0.00  0.00    +0.000 NA
ATOM     23  C   UNL     1       0.073  14.710  21.355  0.00  0.00    +0.000 C 
ATOM     24  C   UNL     1      -1.050  14.454  20.321  0.00  0.00    +0.000 C 
BRANCH  22  25
ATOM     25  S   UNL     1      -1.261  15.263  23.645  0.00  0.00    +0.000 S 
ATOM     26  C   UNL     1      -0.812  16.887  23.070  0.00  0.00    +0.000 C 
ATOM     27  O   UNL     1      -2.632  15.029  23.267  0.00  0.00    +0.000 OA
ATOM     28  O   UNL     1      -0.865  15.172  25.039  0.00  0.00    +0.000 OA
ENDBRANCH  22  25
ENDBRANCH  18  19
BRANCH  18  29
ATOM     29  C   UNL     1      -1.457  11.451  18.311  0.00  0.00    +0.000 C 
ATOM     30  O   UNL     1      -1.853  10.280  18.304  0.00  0.00    +0.000 OA
ATOM     31  N   UNL     1      -1.679  12.263  17.231  0.00  0.00    +0.000 N 
ATOM     32  H   UNL     1      -1.598  13.276  17.246  0.00  0.00    +0.000 HD
BRANCH  31  33
ATOM     33  O   UNL     1      -2.296  11.662  16.112  0.00  0.00    +0.000 OA
ATOM     34  H   UNL     1      -3.236  11.604  16.394  0.00  0.00    +0.000 HD
ENDBRANCH  31  33
ENDBRANCH  18  29
ENDBRANCH   1  18
TORSDOF 11
ENDMDL
MODEL 7
REMARK VINA RESULT:      -6.2      3.210      5.393
REMARK  Name = 
REMARK  13 active torsions:
REMARK  status: ('A' for Active; 'I' for Inactive)
REMARK    1  A    between atoms: C_1  and  C_2
REMARK    2  A    between atoms: C_3  and  C_4
REMARK    3  A    between atoms: C_4  and  O_5
REMARK    4  A    between atoms: O_5  and  C_6
REMARK    5  A    between atoms: C_9  and  S_10
REMARK    6  A    between atoms: S_10  and  N_13
REMARK    7  A    between atoms: N_13  and  C_14
REMARK    8  A    between atoms: C_14  and  C_15
REMARK    9  A    between atoms: C_15  and  C_16
REMARK   10  A    between atoms: C_15  and  N_20
REMARK   11  A    between atoms: N_18  and  O_19
REMARK   12  A    between atoms: N_23  and  S_24
REMARK   13  A    between atoms: S_24  and  C_25
REMARK                            x       y       z     vdW  Elec       q    Type
REMARK                         _______ _______ _______ _____ _____    ______ ____
ROOT
ATOM      1  C   UNL     1       0.156  11.497  19.831  0.00  0.00    +0.000 C 
ENDROOT
BRANCH   1   2
ATOM      2  N   UNL     1      -0.381  10.131  19.998  0.00  0.00    +0.000 NA
ATOM      3  H   UNL     1      -1.376  10.049  20.230  0.00  0.00    +0.000 HD
BRANCH   2   4
ATOM      4  S   UNL     1       0.531   9.198  21.111  0.00  0.00    +0.000 S 
ATOM      5  O   UNL     1      -0.408   8.392  21.854  0.00  0.00    +0.000 OA
ATOM      6  O   UNL     1       1.452  10.103  21.767  0.00  0.00    +0.000 OA
BRANCH   4  10
ATOM      7  C   UNL     1       2.906   6.407  18.358  0.00  0.00    +0.000 A 
ATOM      8  C   UNL     1       2.560   7.697  17.942  0.00  0.00    +0.000 A 
ATOM      9  C   UNL     1       1.873   8.565  18.795  0.00  0.00    +0.000 A 
ATOM     10  C   UNL     1       1.470   8.119  20.054  0.00  0.00    +0.000 A 
ATOM     11  C   UNL     1       1.788   6.825  20.478  0.00  0.00    +0.000 A 
ATOM     12  C   UNL     1       2.507   5.970  19.625  0.00  0.00    +0.000 A 
BRANCH   7  13
ATOM     13  O   UNL     1       3.606   5.675  17.437  0.00  0.00    +0.000 OA
BRANCH  13  14
ATOM     14  C   UNL     1       4.781   6.268  16.883  0.00  0.00    +0.000 C 
BRANCH  14  17
ATOM     15  C   UNL     1       8.035   5.727  19.408  0.00  0.00    +0.000 C 
ATOM     16  C   UNL     1       6.880   5.918  18.530  0.00  0.00    +0.000 C 
ATOM     17  C   UNL     1       5.923   6.068  17.801  0.00  0.00    +0.000 C 
ENDBRANCH  14  17
ENDBRANCH  13  14
ENDBRANCH   7  13
ENDBRANCH   4  10
ENDBRANCH   2   4
ENDBRANCH   1   2
BRANCH   1  18
ATOM     18  C   UNL     1      -0.848  12.635  19.531  0.00  0.00    +0.000 C 
BRANCH  18  19
ATOM     19  N   UNL     1      -1.561  12.991  20.810  0.00  0.00    +0.000 NA
ATOM     20  C   UNL     1      -0.637  13.014  21.980  0.00  0.00    +0.000 C 
ATOM     21  C   UNL     1       0.296  14.243  22.018  0.00  0.00    +0.000 C 
ATOM     22  N   UNL     1      -0.493  15.505  22.107  0.00  0.00    +0.000 NA
ATOM     23  C   UNL     1      -1.453  15.576  20.946  0.00  0.00    +0.000 C 
ATOM     24  C   UNL     1      -2.298  14.287  20.803  0.00  0.00    +0.000 C 
BRANCH  22  25
ATOM     25  S   UNL     1      -1.188  15.890  23.622  0.00  0.00    +0.000 S 
ATOM     26  C   UNL     1      -0.286  17.323  24.175  0.00  0.00    +0.000 C 
ATOM     27  O   UNL     1      -2.550  16.297  23.384  0.00  0.00    +0.000 OA
ATOM     28  O   UNL     1      -0.903  14.813  24.553  0.00  0.00    +0.000 OA
ENDBRANCH  22  25
ENDBRANCH  18  19
BRANCH  18  29
ATOM     29  C   UNL     1      -1.815  12.139  18.441  0.00  0.00    +0.000 C 
ATOM     30  O   UNL     1      -2.925  11.671  18.716  0.00  0.00    +0.000 OA
ATOM     31  N   UNL     1      -1.421  12.266  17.135  0.00  0.00    +0.000 N 
ATOM     32  H   UNL     1      -0.644  12.841  16.821  0.00  0.00    +0.000 HD
BRANCH  31  33
ATOM     33  O   UNL     1      -2.312  11.762  16.162  0.00  0.00    +0.000 OA
ATOM     34  H   UNL     1      -2.083  10.805  16.140  0.00  0.00    +0.000 HD
ENDBRANCH  31  33
ENDBRANCH  18  29
ENDBRANCH   1  18
TORSDOF 11
ENDMDL
MODEL 8
REMARK VINA RESULT:      -6.2      3.087      8.313
REMARK  Name = 
REMARK  13 active torsions:
REMARK  status: ('A' for Active; 'I' for Inactive)
REMARK    1  A    between atoms: C_1  and  C_2
REMARK    2  A    between atoms: C_3  and  C_4
REMARK    3  A    between atoms: C_4  and  O_5
REMARK    4  A    between atoms: O_5  and  C_6
REMARK    5  A    between atoms: C_9  and  S_10
REMARK    6  A    between atoms: S_10  and  N_13
REMARK    7  A    between atoms: N_13  and  C_14
REMARK    8  A    between atoms: C_14  and  C_15
REMARK    9  A    between atoms: C_15  and  C_16
REMARK   10  A    between atoms: C_15  and  N_20
REMARK   11  A    between atoms: N_18  and  O_19
REMARK   12  A    between atoms: N_23  and  S_24
REMARK   13  A    between atoms: S_24  and  C_25
REMARK                            x       y       z     vdW  Elec       q    Type
REMARK                         _______ _______ _______ _____ _____    ______ ____
ROOT
ATOM      1  C   UNL     1       1.490   6.814  20.170  0.00  0.00    +0.000 C 
ENDROOT
BRANCH   1   2
ATOM      2  N   UNL     1       2.091   7.998  20.815  0.00  0.00    +0.000 NA
ATOM      3  H   UNL     1       2.928   7.842  21.385  0.00  0.00    +0.000 HD
BRANCH   2   4
ATOM      4  S   UNL     1       0.953   8.896  21.732  0.00  0.00    +0.000 S 
ATOM      5  O   UNL     1       1.703   9.828  22.539  0.00  0.00    +0.000 OA
ATOM      6  O   UNL     1       0.034   7.942  22.316  0.00  0.00    +0.000 OA
BRANCH   4  10
ATOM      7  C   UNL     1      -1.255  11.309  18.521  0.00  0.00    +0.000 A 
ATOM      8  C   UNL     1      -0.318  10.335  18.163  0.00  0.00    +0.000 A 
ATOM      9  C   UNL     1       0.325   9.568  19.138  0.00  0.00    +0.000 A 
ATOM     10  C   UNL     1       0.079   9.821  20.489  0.00  0.00    +0.000 A 
ATOM     11  C   UNL     1      -0.840  10.806  20.865  0.00  0.00    +0.000 A 
ATOM     12  C   UNL     1      -1.506  11.551  19.876  0.00  0.00    +0.000 A 
BRANCH   7  13
ATOM     13  O   UNL     1      -1.835  11.962  17.467  0.00  0.00    +0.000 OA
BRANCH  13  14
ATOM     14  C   UNL     1      -3.126  11.518  17.049  0.00  0.00    +0.000 C 
BRANCH  14  17
ATOM     15  C   UNL     1      -2.905   9.605  13.367  0.00  0.00    +0.000 C 
ATOM     16  C   UNL     1      -2.969  10.284  14.662  0.00  0.00    +0.000 C 
ATOM     17  C   UNL     1      -3.021  10.839  15.739  0.00  0.00    +0.000 C 
ENDBRANCH  14  17
ENDBRANCH  13  14
ENDBRANCH   7  13
ENDBRANCH   4  10
ENDBRANCH   2   4
ENDBRANCH   1   2
BRANCH   1  18
ATOM     18  C   UNL     1       2.381   5.562  19.987  0.00  0.00    +0.000 C 
BRANCH  18  19
ATOM     19  N   UNL     1       2.586   5.335  18.511  0.00  0.00    +0.000 NA
ATOM     20  C   UNL     1       3.487   6.358  17.905  0.00  0.00    +0.000 C 
ATOM     21  C   UNL     1       4.977   6.172  18.263  0.00  0.00    +0.000 C 
ATOM     22  N   UNL     1       5.479   4.856  17.772  0.00  0.00    +0.000 NA
ATOM     23  C   UNL     1       4.630   3.752  18.349  0.00  0.00    +0.000 C 
ATOM     24  C   UNL     1       3.118   3.996  18.128  0.00  0.00    +0.000 C 
BRANCH  22  25
ATOM     25  S   UNL     1       5.783   4.709  16.095  0.00  0.00    +0.000 S 
ATOM     26  C   UNL     1       7.514   5.093  15.921  0.00  0.00    +0.000 C 
ATOM     27  O   UNL     1       5.605   3.324  15.741  0.00  0.00    +0.000 OA
ATOM     28  O   UNL     1       5.039   5.740  15.394  0.00  0.00    +0.000 OA
ENDBRANCH  22  25
ENDBRANCH  18  19
BRANCH  18  29
ATOM     29  C   UNL     1       1.678   4.375  20.669  0.00  0.00    +0.000 C 
ATOM     30  O   UNL     1       0.531   4.032  20.363  0.00  0.00    +0.000 OA
ATOM     31  N   UNL     1       2.382   3.675  21.613  0.00  0.00    +0.000 N 
ATOM     32  H   UNL     1       3.386   3.743  21.750  0.00  0.00    +0.000 HD
BRANCH  31  33
ATOM     33  O   UNL     1       1.693   2.619  22.251  0.00  0.00    +0.000 OA
ATOM     34  H   UNL     1       1.944   2.742  23.194  0.00  0.00    +0.000 HD
ENDBRANCH  31  33
ENDBRANCH  18  29
ENDBRANCH   1  18
TORSDOF 11
ENDMDL
MODEL 9
REMARK VINA RESULT:      -6.1      0.997      1.371
REMARK  Name = 
REMARK  13 active torsions:
REMARK  status: ('A' for Active; 'I' for Inactive)
REMARK    1  A    between atoms: C_1  and  C_2
REMARK    2  A    between atoms: C_3  and  C_4
REMARK    3  A    between atoms: C_4  and  O_5
REMARK    4  A    between atoms: O_5  and  C_6
REMARK    5  A    between atoms: C_9  and  S_10
REMARK    6  A    between atoms: S_10  and  N_13
REMARK    7  A    between atoms: N_13  and  C_14
REMARK    8  A    between atoms: C_14  and  C_15
REMARK    9  A    between atoms: C_15  and  C_16
REMARK   10  A    between atoms: C_15  and  N_20
REMARK   11  A    between atoms: N_18  and  O_19
REMARK   12  A    between atoms: N_23  and  S_24
REMARK   13  A    between atoms: S_24  and  C_25
REMARK                            x       y       z     vdW  Elec       q    Type
REMARK                         _______ _______ _______ _____ _____    ______ ____
ROOT
ATOM      1  C   UNL     1       1.449   6.511  20.014  0.00  0.00    +0.000 C 
ENDROOT
BRANCH   1   2
ATOM      2  N   UNL     1       2.355   5.704  20.856  0.00  0.00    +0.000 NA
ATOM      3  H   UNL     1       3.298   6.076  21.011  0.00  0.00    +0.000 HD
BRANCH   2   4
ATOM      4  S   UNL     1       2.477   4.079  20.322  0.00  0.00    +0.000 S 
ATOM      5  O   UNL     1       1.221   3.747  19.693  0.00  0.00    +0.000 OA
ATOM      6  O   UNL     1       3.009   3.309  21.427  0.00  0.00    +0.000 OA
BRANCH   4  10
ATOM      7  C   UNL     1       5.690   4.251  17.058  0.00  0.00    +0.000 A 
ATOM      8  C   UNL     1       4.386   3.848  16.755  0.00  0.00    +0.000 A 
ATOM      9  C   UNL     1       3.394   3.836  17.739  0.00  0.00    +0.000 A 
ATOM     10  C   UNL     1       3.722   4.167  19.054  0.00  0.00    +0.000 A 
ATOM     11  C   UNL     1       5.027   4.552  19.379  0.00  0.00    +0.000 A 
ATOM     12  C   UNL     1       6.011   4.592  18.376  0.00  0.00    +0.000 A 
BRANCH   7  13
ATOM     13  O   UNL     1       6.553   4.249  15.995  0.00  0.00    +0.000 OA
BRANCH  13  14
ATOM     14  C   UNL     1       6.168   4.988  14.835  0.00  0.00    +0.000 C 
BRANCH  14  17
ATOM     15  C   UNL     1       5.703   2.457  11.574  0.00  0.00    +0.000 C 
ATOM     16  C   UNL     1       5.868   3.336  12.731  0.00  0.00    +0.000 C 
ATOM     17  C   UNL     1       5.995   4.067  13.690  0.00  0.00    +0.000 C 
ENDBRANCH  14  17
ENDBRANCH  13  14
ENDBRANCH   7  13
ENDBRANCH   4  10
ENDBRANCH   2   4
ENDBRANCH   1   2
BRANCH   1  18
ATOM     18  C   UNL     1       1.799   8.003  19.800  0.00  0.00    +0.000 C 
BRANCH  18  19
ATOM     19  N   UNL     1       0.538   8.815  19.951  0.00  0.00    +0.000 NA
ATOM     20  C   UNL     1      -0.086   8.638  21.293  0.00  0.00    +0.000 C 
ATOM     21  C   UNL     1       0.660   9.364  22.433  0.00  0.00    +0.000 C 
ATOM     22  N   UNL     1       0.687  10.837  22.194  0.00  0.00    +0.000 NA
ATOM     23  C   UNL     1       1.320  11.113  20.855  0.00  0.00    +0.000 C 
ATOM     24  C   UNL     1       0.680  10.280  19.718  0.00  0.00    +0.000 C 
BRANCH  22  25
ATOM     25  S   UNL     1      -0.758  11.704  22.485  0.00  0.00    +0.000 S 
ATOM     26  C   UNL     1      -1.435  11.998  20.864  0.00  0.00    +0.000 C 
ATOM     27  O   UNL     1      -1.661  10.822  23.181  0.00  0.00    +0.000 OA
ATOM     28  O   UNL     1      -0.420  12.996  23.054  0.00  0.00    +0.000 OA
ENDBRANCH  22  25
ENDBRANCH  18  19
BRANCH  18  29
ATOM     29  C   UNL     1       2.424   8.146  18.401  0.00  0.00    +0.000 C 
ATOM     30  O   UNL     1       2.021   8.986  17.589  0.00  0.00    +0.000 OA
ATOM     31  N   UNL     1       3.480   7.332  18.089  0.00  0.00    +0.000 N 
ATOM     32  H   UNL     1       4.011   6.791  18.766  0.00  0.00    +0.000 HD
BRANCH  31  33
ATOM     33  O   UNL     1       4.002   7.459  16.782  0.00  0.00    +0.000 OA
ATOM     34  H   UNL     1       4.506   6.621  16.673  0.00  0.00    +0.000 HD
ENDBRANCH  31  33
ENDBRANCH  18  29
ENDBRANCH   1  18
TORSDOF 11
ENDMDL
