MODEL 1
REMARK VINA RESULT:      -8.2      0.000      0.000
REMARK  Name = 
REMARK  7 active torsions:
REMARK  status: ('A' for Active; 'I' for Inactive)
REMARK    1  A    between atoms: C_2  and  C_3
REMARK    2  A    between atoms: C_6  and  C_7
REMARK    3  A    between atoms: N_9  and  C_10
REMARK    4  A    between atoms: C_13  and  C_14
REMARK    5  A    between atoms: C_14  and  C_15
REMARK    6  A    between atoms: C_15  and  N_16
REMARK    7  A    between atoms: C_19  and  C_20
REMARK                            x       y       z     vdW  Elec       q    Type
REMARK                         _______ _______ _______ _____ _____    ______ ____
ROOT
ATOM      1  C   UNL     1       1.282  10.232  19.873  0.00  0.00    +0.000 C 
ATOM      2  C   UNL     1       0.332   9.612  20.908  0.00  0.00    +0.000 C 
ATOM      3  C   UNL     1       0.842   8.238  21.376  0.00  0.00    +0.000 C 
ATOM      4  C   UNL     1       1.252   7.297  20.223  0.00  0.00    +0.000 C 
ATOM      5  C   UNL     1       2.126   8.012  19.188  0.00  0.00    +0.000 C 
ATOM      6  C   UNL     1       1.408   9.264  18.695  0.00  0.00    +0.000 C 
ENDROOT
BRANCH   1   9
ATOM      7  C   UNL     1       1.344  12.690  20.139  0.00  0.00    +0.000 C 
ATOM      8  O   UNL     1       2.104  12.608  21.101  0.00  0.00    +0.000 OA
ATOM      9  N   UNL     1       0.887  11.570  19.441  0.00  0.00    +0.000 N 
ATOM     10  H   UNL     1       0.428  11.663  18.553  0.00  0.00    +0.000 HD
BRANCH   7  14
ATOM     11  C   UNL     1      -0.326  16.437  18.779  0.00  0.00    +0.000 A 
ATOM     12  C   UNL     1      -1.080  15.541  19.542  0.00  0.00    +0.000 A 
ATOM     13  C   UNL     1      -0.498  14.353  20.010  0.00  0.00    +0.000 A 
ATOM     14  C   UNL     1       0.848  14.043  19.738  0.00  0.00    +0.000 A 
ATOM     15  C   UNL     1       1.616  14.977  19.031  0.00  0.00    +0.000 A 
ATOM     16  C   UNL     1       1.023  16.152  18.535  0.00  0.00    +0.000 A 
BRANCH  11  18
ATOM     17  N   UNL     1      -1.359  18.622  17.827  0.00  0.00    +0.000 NA
ATOM     18  C   UNL     1      -0.914  17.632  18.226  0.00  0.00    +0.000 C 
ENDBRANCH  11  18
ENDBRANCH   7  14
ENDBRANCH   1   9
BRANCH   4  19
ATOM     19  C   UNL     1       1.969   6.033  20.740  0.00  0.00    +0.000 C 
BRANCH  19  20
ATOM     20  C   UNL     1       1.219   4.743  20.389  0.00  0.00    +0.000 C 
BRANCH  20  21
ATOM     21  N   UNL     1       2.013   3.843  19.533  0.00  0.00    +0.000 NA
ATOM     22  C   UNL     1       1.811   4.138  18.106  0.00  0.00    +0.000 C 
ATOM     23  C   UNL     1       2.741   3.358  17.180  0.00  0.00    +0.000 C 
ATOM     24  C   UNL     1       4.212   3.468  17.592  0.00  0.00    +0.000 C 
ATOM     25  C   UNL     1       4.333   3.033  19.057  0.00  0.00    +0.000 C 
ATOM     26  C   UNL     1       3.409   3.825  19.981  0.00  0.00    +0.000 C 
BRANCH  24  27
ATOM     27  C   UNL     1       4.814   4.829  17.310  0.00  0.00    +0.000 A 
ATOM     28  C   UNL     1       4.350   5.794  16.429  0.00  0.00    +0.000 A 
ATOM     29  O   UNL     1       5.143   6.886  16.409  0.00  0.00    +0.000 OA
ATOM     30  C   UNL     1       6.145   6.655  17.289  0.00  0.00    +0.000 A 
ATOM     31  C   UNL     1       7.174   7.551  17.556  0.00  0.00    +0.000 A 
ATOM     32  C   UNL     1       8.118   7.146  18.500  0.00  0.00    +0.000 A 
ATOM     33  C   UNL     1       8.015   5.903  19.129  0.00  0.00    +0.000 A 
ATOM     34  C   UNL     1       6.963   5.020  18.833  0.00  0.00    +0.000 A 
ATOM     35  C   UNL     1       5.997   5.406  17.884  0.00  0.00    +0.000 A 
ENDBRANCH  24  27
ENDBRANCH  20  21
ENDBRANCH  19  20
ENDBRANCH   4  19
TORSDOF 7
ENDMDL
MODEL 2
REMARK VINA RESULT:      -7.7      2.784      3.362
REMARK  Name = 
REMARK  7 active torsions:
REMARK  status: ('A' for Active; 'I' for Inactive)
REMARK    1  A    between atoms: C_2  and  C_3
REMARK    2  A    between atoms: C_6  and  C_7
REMARK    3  A    between atoms: N_9  and  C_10
REMARK    4  A    between atoms: C_13  and  C_14
REMARK    5  A    between atoms: C_14  and  C_15
REMARK    6  A    between atoms: C_15  and  N_16
REMARK    7  A    between atoms: C_19  and  C_20
REMARK                            x       y       z     vdW  Elec       q    Type
REMARK                         _______ _______ _______ _____ _____    ______ ____
ROOT
ATOM      1  C   UNL     1      -0.387  10.359  21.392  0.00  0.00    +0.000 C 
ATOM      2  C   UNL     1       0.735  10.816  20.449  0.00  0.00    +0.000 C 
ATOM      3  C   UNL     1       1.300   9.632  19.645  0.00  0.00    +0.000 C 
ATOM      4  C   UNL     1       1.637   8.395  20.505  0.00  0.00    +0.000 C 
ATOM      5  C   UNL     1       0.505   8.055  21.480  0.00  0.00    +0.000 C 
ATOM      6  C   UNL     1       0.176   9.283  22.323  0.00  0.00    +0.000 C 
ENDROOT
BRANCH   1   9
ATOM      7  C   UNL     1      -1.925  12.292  21.496  0.00  0.00    +0.000 C 
ATOM      8  O   UNL     1      -2.264  12.139  20.324  0.00  0.00    +0.000 OA
ATOM      9  N   UNL     1      -1.011  11.452  22.134  0.00  0.00    +0.000 N 
ATOM     10  H   UNL     1      -0.893  11.473  23.131  0.00  0.00    +0.000 HD
BRANCH   7  14
ATOM     11  C   UNL     1      -3.728  15.446  23.837  0.00  0.00    +0.000 A 
ATOM     12  C   UNL     1      -2.960  14.445  24.439  0.00  0.00    +0.000 A 
ATOM     13  C   UNL     1      -2.346  13.460  23.649  0.00  0.00    +0.000 A 
ATOM     14  C   UNL     1      -2.477  13.462  22.247  0.00  0.00    +0.000 A 
ATOM     15  C   UNL     1      -3.192  14.507  21.647  0.00  0.00    +0.000 A 
ATOM     16  C   UNL     1      -3.833  15.475  22.441  0.00  0.00    +0.000 A 
BRANCH  11  18
ATOM     17  N   UNL     1      -4.973  17.263  25.215  0.00  0.00    +0.000 NA
ATOM     18  C   UNL     1      -4.426  16.432  24.626  0.00  0.00    +0.000 C 
ENDBRANCH  11  18
ENDBRANCH   7  14
ENDBRANCH   1   9
BRANCH   4  19
ATOM     19  C   UNL     1       1.975   7.166  19.638  0.00  0.00    +0.000 C 
BRANCH  19  20
ATOM     20  C   UNL     1       1.579   5.845  20.306  0.00  0.00    +0.000 C 
BRANCH  20  21
ATOM     21  N   UNL     1       2.116   4.669  19.594  0.00  0.00    +0.000 NA
ATOM     22  C   UNL     1       1.910   4.777  18.142  0.00  0.00    +0.000 C 
ATOM     23  C   UNL     1       2.601   3.676  17.340  0.00  0.00    +0.000 C 
ATOM     24  C   UNL     1       4.079   3.521  17.706  0.00  0.00    +0.000 C 
ATOM     25  C   UNL     1       4.178   3.302  19.220  0.00  0.00    +0.000 C 
ATOM     26  C   UNL     1       3.496   4.412  20.017  0.00  0.00    +0.000 C 
BRANCH  24  27
ATOM     27  C   UNL     1       4.946   4.654  17.197  0.00  0.00    +0.000 A 
ATOM     28  C   UNL     1       4.879   5.282  15.964  0.00  0.00    +0.000 A 
ATOM     29  O   UNL     1       5.819   6.242  15.831  0.00  0.00    +0.000 OA
ATOM     30  C   UNL     1       6.519   6.263  16.989  0.00  0.00    +0.000 A 
ATOM     31  C   UNL     1       7.581   7.123  17.247  0.00  0.00    +0.000 A 
ATOM     32  C   UNL     1       8.181   7.008  18.501  0.00  0.00    +0.000 A 
ATOM     33  C   UNL     1       7.724   6.070  19.430  0.00  0.00    +0.000 A 
ATOM     34  C   UNL     1       6.650   5.214  19.136  0.00  0.00    +0.000 A 
ATOM     35  C   UNL     1       6.026   5.312  17.877  0.00  0.00    +0.000 A 
ENDBRANCH  24  27
ENDBRANCH  20  21
ENDBRANCH  19  20
ENDBRANCH   4  19
TORSDOF 7
ENDMDL
MODEL 3
REMARK VINA RESULT:      -7.7      3.207      3.932
REMARK  Name = 
REMARK  7 active torsions:
REMARK  status: ('A' for Active; 'I' for Inactive)
REMARK    1  A    between atoms: C_2  and  C_3
REMARK    2  A    between atoms: C_6  and  C_7
REMARK    3  A    between atoms: N_9  and  C_10
REMARK    4  A    between atoms: C_13  and  C_14
REMARK    5  A    between atoms: C_14  and  C_15
REMARK    6  A    between atoms: C_15  and  N_16
REMARK    7  A    between atoms: C_19  and  C_20
REMARK                            x       y       z     vdW  Elec       q    Type
REMARK                         _______ _______ _______ _____ _____    ______ ____
ROOT
ATOM      1  C   UNL     1       0.152  10.644  20.450  0.00  0.00    +0.000 C 
ATOM      2  C   UNL     1       0.297   9.268  21.117  0.00  0.00    +0.000 C 
ATOM      3  C   UNL     1       1.405   8.439  20.444  0.00  0.00    +0.000 C 
ATOM      4  C   UNL     1       1.316   8.409  18.903  0.00  0.00    +0.000 C 
ATOM      5  C   UNL     1       1.085   9.806  18.319  0.00  0.00    +0.000 C 
ATOM      6  C   UNL     1      -0.149  10.428  18.965  0.00  0.00    +0.000 C 
ENDROOT
BRANCH   1   9
ATOM      7  C   UNL     1      -0.426  12.621  21.817  0.00  0.00    +0.000 C 
ATOM      8  O   UNL     1       0.756  12.943  21.925  0.00  0.00    +0.000 OA
ATOM      9  N   UNL     1      -0.840  11.504  21.090  0.00  0.00    +0.000 N 
ATOM     10  H   UNL     1      -1.806  11.366  20.854  0.00  0.00    +0.000 HD
BRANCH   7  14
ATOM     11  C   UNL     1      -3.570  14.980  23.614  0.00  0.00    +0.000 A 
ATOM     12  C   UNL     1      -3.818  13.695  23.124  0.00  0.00    +0.000 A 
ATOM     13  C   UNL     1      -2.768  12.932  22.588  0.00  0.00    +0.000 A 
ATOM     14  C   UNL     1      -1.452  13.431  22.544  0.00  0.00    +0.000 A 
ATOM     15  C   UNL     1      -1.200  14.692  23.099  0.00  0.00    +0.000 A 
ATOM     16  C   UNL     1      -2.257  15.468  23.606  0.00  0.00    +0.000 A 
BRANCH  11  18
ATOM     17  N   UNL     1      -5.532  16.454  24.466  0.00  0.00    +0.000 NA
ATOM     18  C   UNL     1      -4.638  15.814  24.108  0.00  0.00    +0.000 C 
ENDBRANCH  11  18
ENDBRANCH   7  14
ENDBRANCH   1   9
BRANCH   4  19
ATOM     19  C   UNL     1       2.567   7.770  18.268  0.00  0.00    +0.000 C 
BRANCH  19  20
ATOM     20  C   UNL     1       3.372   6.928  19.265  0.00  0.00    +0.000 C 
BRANCH  20  21
ATOM     21  N   UNL     1       3.515   5.525  18.832  0.00  0.00    +0.000 NA
ATOM     22  C   UNL     1       3.125   5.351  17.425  0.00  0.00    +0.000 C 
ATOM     23  C   UNL     1       3.421   3.959  16.872  0.00  0.00    +0.000 C 
ATOM     24  C   UNL     1       4.864   3.516  17.133  0.00  0.00    +0.000 C 
ATOM     25  C   UNL     1       5.134   3.627  18.638  0.00  0.00    +0.000 C 
ATOM     26  C   UNL     1       4.848   5.025  19.183  0.00  0.00    +0.000 C 
BRANCH  24  27
ATOM     27  C   UNL     1       5.879   4.244  16.277  0.00  0.00    +0.000 A 
ATOM     28  C   UNL     1       6.794   5.204  16.681  0.00  0.00    +0.000 A 
ATOM     29  O   UNL     1       7.537   5.662  15.651  0.00  0.00    +0.000 OA
ATOM     30  C   UNL     1       7.123   4.997  14.547  0.00  0.00    +0.000 A 
ATOM     31  C   UNL     1       7.650   5.189  13.275  0.00  0.00    +0.000 A 
ATOM     32  C   UNL     1       7.104   4.409  12.255  0.00  0.00    +0.000 A 
ATOM     33  C   UNL     1       6.083   3.494  12.521  0.00  0.00    +0.000 A 
ATOM     34  C   UNL     1       5.571   3.328  13.819  0.00  0.00    +0.000 A 
ATOM     35  C   UNL     1       6.107   4.102  14.866  0.00  0.00    +0.000 A 
ENDBRANCH  24  27
ENDBRANCH  20  21
ENDBRANCH  19  20
ENDBRANCH   4  19
TORSDOF 7
ENDMDL
MODEL 4
REMARK VINA RESULT:      -7.7      1.677      2.328
REMARK  Name = 
REMARK  7 active torsions:
REMARK  status: ('A' for Active; 'I' for Inactive)
REMARK    1  A    between atoms: C_2  and  C_3
REMARK    2  A    between atoms: C_6  and  C_7
REMARK    3  A    between atoms: N_9  and  C_10
REMARK    4  A    between atoms: C_13  and  C_14
REMARK    5  A    between atoms: C_14  and  C_15
REMARK    6  A    between atoms: C_15  and  N_16
REMARK    7  A    between atoms: C_19  and  C_20
REMARK                            x       y       z     vdW  Elec       q    Type
REMARK                         _______ _______ _______ _____ _____    ______ ____
ROOT
ATOM      1  C   UNL     1       1.465   8.595  19.448  0.00  0.00    +0.000 C 
ATOM      2  C   UNL     1       2.430   7.612  18.768  0.00  0.00    +0.000 C 
ATOM      3  C   UNL     1       1.960   6.158  18.951  0.00  0.00    +0.000 C 
ATOM      4  C   UNL     1       1.584   5.800  20.405  0.00  0.00    +0.000 C 
ATOM      5  C   UNL     1       0.693   6.871  21.043  0.00  0.00    +0.000 C 
ATOM      6  C   UNL     1       1.375   8.231  20.931  0.00  0.00    +0.000 C 
ENDROOT
BRANCH   1   9
ATOM      7  C   UNL     1       0.819  10.950  19.060  0.00  0.00    +0.000 C 
ATOM      8  O   UNL     1      -0.378  10.668  19.081  0.00  0.00    +0.000 OA
ATOM      9  N   UNL     1       1.822   9.997  19.250  0.00  0.00    +0.000 N 
ATOM     10  H   UNL     1       2.773  10.271  19.420  0.00  0.00    +0.000 HD
BRANCH   7  14
ATOM     11  C   UNL     1       2.206  14.996  18.442  0.00  0.00    +0.000 A 
ATOM     12  C   UNL     1       3.014  13.898  18.136  0.00  0.00    +0.000 A 
ATOM     13  C   UNL     1       2.521  12.594  18.302  0.00  0.00    +0.000 A 
ATOM     14  C   UNL     1       1.211  12.363  18.762  0.00  0.00    +0.000 A 
ATOM     15  C   UNL     1       0.385  13.468  19.002  0.00  0.00    +0.000 A 
ATOM     16  C   UNL     1       0.890  14.773  18.867  0.00  0.00    +0.000 A 
BRANCH  11  18
ATOM     17  N   UNL     1       3.054  17.444  18.245  0.00  0.00    +0.000 NA
ATOM     18  C   UNL     1       2.705  16.346  18.347  0.00  0.00    +0.000 C 
ENDBRANCH  11  18
ENDBRANCH   7  14
ENDBRANCH   1   9
BRANCH   4  19
ATOM     19  C   UNL     1       0.904   4.420  20.500  0.00  0.00    +0.000 C 
BRANCH  19  20
ATOM     20  C   UNL     1       1.745   3.399  21.275  0.00  0.00    +0.000 C 
BRANCH  20  21
ATOM     21  N   UNL     1       2.574   2.562  20.388  0.00  0.00    +0.000 NA
ATOM     22  C   UNL     1       2.095   2.607  18.999  0.00  0.00    +0.000 C 
ATOM     23  C   UNL     1       3.018   1.903  18.007  0.00  0.00    +0.000 C 
ATOM     24  C   UNL     1       4.474   2.358  18.133  0.00  0.00    +0.000 C 
ATOM     25  C   UNL     1       4.912   2.166  19.589  0.00  0.00    +0.000 C 
ATOM     26  C   UNL     1       3.993   2.882  20.576  0.00  0.00    +0.000 C 
BRANCH  24  27
ATOM     27  C   UNL     1       4.714   3.757  17.604  0.00  0.00    +0.000 A 
ATOM     28  C   UNL     1       3.942   4.462  16.695  0.00  0.00    +0.000 A 
ATOM     29  O   UNL     1       4.458   5.681  16.427  0.00  0.00    +0.000 OA
ATOM     30  C   UNL     1       5.583   5.797  17.170  0.00  0.00    +0.000 A 
ATOM     31  C   UNL     1       6.407   6.918  17.173  0.00  0.00    +0.000 A 
ATOM     32  C   UNL     1       7.523   6.864  18.007  0.00  0.00    +0.000 A 
ATOM     33  C   UNL     1       7.781   5.734  18.787  0.00  0.00    +0.000 A 
ATOM     34  C   UNL     1       6.929   4.617  18.758  0.00  0.00    +0.000 A 
ATOM     35  C   UNL     1       5.794   4.648  17.924  0.00  0.00    +0.000 A 
ENDBRANCH  24  27
ENDBRANCH  20  21
ENDBRANCH  19  20
ENDBRANCH   4  19
TORSDOF 7
ENDMDL
MODEL 5
REMARK VINA RESULT:      -7.6      2.775      3.398
REMARK  Name = 
REMARK  7 active torsions:
REMARK  status: ('A' for Active; 'I' for Inactive)
REMARK    1  A    between atoms: C_2  and  C_3
REMARK    2  A    between atoms: C_6  and  C_7
REMARK    3  A    between atoms: N_9  and  C_10
REMARK    4  A    between atoms: C_13  and  C_14
REMARK    5  A    between atoms: C_14  and  C_15
REMARK    6  A    between atoms: C_15  and  N_16
REMARK    7  A    between atoms: C_19  and  C_20
REMARK                            x       y       z     vdW  Elec       q    Type
REMARK                         _______ _______ _______ _____ _____    ______ ____
ROOT
ATOM      1  C   UNL     1      -0.496  10.035  20.595  0.00  0.00    +0.000 C 
ATOM      2  C   UNL     1       0.812  10.446  19.902  0.00  0.00    +0.000 C 
ATOM      3  C   UNL     1       1.574   9.216  19.382  0.00  0.00    +0.000 C 
ATOM      4  C   UNL     1       1.717   8.082  20.421  0.00  0.00    +0.000 C 
ATOM      5  C   UNL     1       0.391   7.790  21.130  0.00  0.00    +0.000 C 
ATOM      6  C   UNL     1      -0.153   9.078  21.739  0.00  0.00    +0.000 C 
ENDROOT
BRANCH   1   9
ATOM      7  C   UNL     1      -1.206  11.596  22.375  0.00  0.00    +0.000 C 
ATOM      8  O   UNL     1      -0.444  11.080  23.190  0.00  0.00    +0.000 OA
ATOM      9  N   UNL     1      -1.299  11.166  21.050  0.00  0.00    +0.000 N 
ATOM     10  H   UNL     1      -1.778  11.714  20.358  0.00  0.00    +0.000 HD
BRANCH   7  14
ATOM     11  C   UNL     1      -3.535  14.905  23.895  0.00  0.00    +0.000 A 
ATOM     12  C   UNL     1      -2.488  15.110  22.992  0.00  0.00    +0.000 A 
ATOM     13  C   UNL     1      -1.778  14.013  22.478  0.00  0.00    +0.000 A 
ATOM     14  C   UNL     1      -2.109  12.694  22.844  0.00  0.00    +0.000 A 
ATOM     15  C   UNL     1      -3.203  12.494  23.695  0.00  0.00    +0.000 A 
ATOM     16  C   UNL     1      -3.892  13.594  24.235  0.00  0.00    +0.000 A 
BRANCH  11  18
ATOM     17  N   UNL     1      -4.806  16.870  25.023  0.00  0.00    +0.000 NA
ATOM     18  C   UNL     1      -4.238  16.014  24.493  0.00  0.00    +0.000 C 
ENDBRANCH  11  18
ENDBRANCH   7  14
ENDBRANCH   1   9
BRANCH   4  19
ATOM     19  C   UNL     1       2.275   6.791  19.790  0.00  0.00    +0.000 C 
BRANCH  19  20
ATOM     20  C   UNL     1       1.606   5.527  20.341  0.00  0.00    +0.000 C 
BRANCH  20  21
ATOM     21  N   UNL     1       2.039   4.306  19.636  0.00  0.00    +0.000 NA
ATOM     22  C   UNL     1       1.777   4.394  18.192  0.00  0.00    +0.000 C 
ATOM     23  C   UNL     1       2.364   3.236  17.388  0.00  0.00    +0.000 C 
ATOM     24  C   UNL     1       3.845   2.998  17.695  0.00  0.00    +0.000 C 
ATOM     25  C   UNL     1       3.996   2.806  19.208  0.00  0.00    +0.000 C 
ATOM     26  C   UNL     1       3.418   3.973  20.007  0.00  0.00    +0.000 C 
BRANCH  24  27
ATOM     27  C   UNL     1       4.757   4.064  17.123  0.00  0.00    +0.000 A 
ATOM     28  C   UNL     1       4.814   4.515  15.814  0.00  0.00    +0.000 A 
ATOM     29  O   UNL     1       5.760   5.463  15.644  0.00  0.00    +0.000 OA
ATOM     30  C   UNL     1       6.338   5.655  16.853  0.00  0.00    +0.000 A 
ATOM     31  C   UNL     1       7.367   6.559  17.094  0.00  0.00    +0.000 A 
ATOM     32  C   UNL     1       7.837   6.628  18.405  0.00  0.00    +0.000 A 
ATOM     33  C   UNL     1       7.291   5.820  19.405  0.00  0.00    +0.000 A 
ATOM     34  C   UNL     1       6.254   4.914  19.127  0.00  0.00    +0.000 A 
ATOM     35  C   UNL     1       5.761   4.827  17.810  0.00  0.00    +0.000 A 
ENDBRANCH  24  27
ENDBRANCH  20  21
ENDBRANCH  19  20
ENDBRANCH   4  19
TORSDOF 7
ENDMDL
MODEL 6
REMARK VINA RESULT:      -7.6      1.140      1.715
REMARK  Name = 
REMARK  7 active torsions:
REMARK  status: ('A' for Active; 'I' for Inactive)
REMARK    1  A    between atoms: C_2  and  C_3
REMARK    2  A    between atoms: C_6  and  C_7
REMARK    3  A    between atoms: N_9  and  C_10
REMARK    4  A    between atoms: C_13  and  C_14
REMARK    5  A    between atoms: C_14  and  C_15
REMARK    6  A    between atoms: C_15  and  N_16
REMARK    7  A    between atoms: C_19  and  C_20
REMARK                            x       y       z     vdW  Elec       q    Type
REMARK                         _______ _______ _______ _____ _____    ______ ____
ROOT
ATOM      1  C   UNL     1       1.290   9.268  19.506  0.00  0.00    +0.000 C 
ATOM      2  C   UNL     1       2.232   8.402  18.657  0.00  0.00    +0.000 C 
ATOM      3  C   UNL     1       1.997   6.904  18.921  0.00  0.00    +0.000 C 
ATOM      4  C   UNL     1       1.946   6.533  20.419  0.00  0.00    +0.000 C 
ATOM      5  C   UNL     1       1.056   7.495  21.213  0.00  0.00    +0.000 C 
ATOM      6  C   UNL     1       1.524   8.928  20.980  0.00  0.00    +0.000 C 
ENDROOT
BRANCH   1   9
ATOM      7  C   UNL     1       0.325  11.544  19.448  0.00  0.00    +0.000 C 
ATOM      8  O   UNL     1      -0.758  11.140  19.868  0.00  0.00    +0.000 OA
ATOM      9  N   UNL     1       1.419  10.700  19.249  0.00  0.00    +0.000 N 
ATOM     10  H   UNL     1       2.339  11.070  19.091  0.00  0.00    +0.000 HD
BRANCH   7  14
ATOM     11  C   UNL     1       0.937  15.747  18.651  0.00  0.00    +0.000 A 
ATOM     12  C   UNL     1       1.952  14.812  18.429  0.00  0.00    +0.000 A 
ATOM     13  C   UNL     1       1.710  13.446  18.652  0.00  0.00    +0.000 A 
ATOM     14  C   UNL     1       0.451  12.990  19.085  0.00  0.00    +0.000 A 
ATOM     15  C   UNL     1      -0.579  13.925  19.240  0.00  0.00    +0.000 A 
ATOM     16  C   UNL     1      -0.327  15.296  19.048  0.00  0.00    +0.000 A 
BRANCH  11  18
ATOM     17  N   UNL     1       1.379  18.298  18.431  0.00  0.00    +0.000 NA
ATOM     18  C   UNL     1       1.174  17.162  18.496  0.00  0.00    +0.000 C 
ENDBRANCH  11  18
ENDBRANCH   7  14
ENDBRANCH   1   9
BRANCH   4  19
ATOM     19  C   UNL     1       1.479   5.080  20.635  0.00  0.00    +0.000 C 
BRANCH  19  20
ATOM     20  C   UNL     1       1.143   4.365  19.321  0.00  0.00    +0.000 C 
BRANCH  20  21
ATOM     21  N   UNL     1       2.257   3.533  18.830  0.00  0.00    +0.000 NA
ATOM     22  C   UNL     1       2.387   3.612  17.368  0.00  0.00    +0.000 C 
ATOM     23  C   UNL     1       3.630   2.914  16.822  0.00  0.00    +0.000 C 
ATOM     24  C   UNL     1       4.911   3.344  17.542  0.00  0.00    +0.000 C 
ATOM     25  C   UNL     1       4.716   3.117  19.045  0.00  0.00    +0.000 C 
ATOM     26  C   UNL     1       3.477   3.828  19.588  0.00  0.00    +0.000 C 
BRANCH  24  27
ATOM     27  C   UNL     1       5.354   4.749  17.191  0.00  0.00    +0.000 A 
ATOM     28  C   UNL     1       4.853   5.570  16.193  0.00  0.00    +0.000 A 
ATOM     29  O   UNL     1       5.495   6.757  16.142  0.00  0.00    +0.000 OA
ATOM     30  C   UNL     1       6.430   6.735  17.120  0.00  0.00    +0.000 A 
ATOM     31  C   UNL     1       7.303   7.783  17.392  0.00  0.00    +0.000 A 
ATOM     32  C   UNL     1       8.198   7.587  18.444  0.00  0.00    +0.000 A 
ATOM     33  C   UNL     1       8.200   6.393  19.170  0.00  0.00    +0.000 A 
ATOM     34  C   UNL     1       7.305   5.352  18.866  0.00  0.00    +0.000 A 
ATOM     35  C   UNL     1       6.391   5.527  17.809  0.00  0.00    +0.000 A 
ENDBRANCH  24  27
ENDBRANCH  20  21
ENDBRANCH  19  20
ENDBRANCH   4  19
TORSDOF 7
ENDMDL
MODEL 7
REMARK VINA RESULT:      -7.4      4.439     11.677
REMARK  Name = 
REMARK  7 active torsions:
REMARK  status: ('A' for Active; 'I' for Inactive)
REMARK    1  A    between atoms: C_2  and  C_3
REMARK    2  A    between atoms: C_6  and  C_7
REMARK    3  A    between atoms: N_9  and  C_10
REMARK    4  A    between atoms: C_13  and  C_14
REMARK    5  A    between atoms: C_14  and  C_15
REMARK    6  A    between atoms: C_15  and  N_16
REMARK    7  A    between atoms: C_19  and  C_20
REMARK                            x       y       z     vdW  Elec       q    Type
REMARK                         _______ _______ _______ _____ _____    ______ ____
ROOT
ATOM      1  C   UNL     1       0.516   9.995  19.014  0.00  0.00    +0.000 C 
ATOM      2  C   UNL     1       1.201  11.330  19.341  0.00  0.00    +0.000 C 
ATOM      3  C   UNL     1       0.231  12.294  20.046  0.00  0.00    +0.000 C 
ATOM      4  C   UNL     1      -1.141  12.421  19.350  0.00  0.00    +0.000 C 
ATOM      5  C   UNL     1      -1.719  11.052  18.977  0.00  0.00    +0.000 C 
ATOM      6  C   UNL     1      -0.704  10.285  18.136  0.00  0.00    +0.000 C 
ENDROOT
BRANCH   1   9
ATOM      7  C   UNL     1       1.930   7.974  19.177  0.00  0.00    +0.000 C 
ATOM      8  O   UNL     1       1.649   7.823  20.364  0.00  0.00    +0.000 OA
ATOM      9  N   UNL     1       1.408   9.012  18.404  0.00  0.00    +0.000 N 
ATOM     10  H   UNL     1       1.494   9.009  17.404  0.00  0.00    +0.000 HD
BRANCH   7  14
ATOM     11  C   UNL     1       4.611   5.313  17.077  0.00  0.00    +0.000 A 
ATOM     12  C   UNL     1       4.547   6.673  16.763  0.00  0.00    +0.000 A 
ATOM     13  C   UNL     1       3.702   7.524  17.494  0.00  0.00    +0.000 A 
ATOM     14  C   UNL     1       2.917   7.036  18.556  0.00  0.00    +0.000 A 
ATOM     15  C   UNL     1       3.038   5.686  18.908  0.00  0.00    +0.000 A 
ATOM     16  C   UNL     1       3.860   4.828  18.156  0.00  0.00    +0.000 A 
BRANCH  11  18
ATOM     17  N   UNL     1       6.033   3.686  15.634  0.00  0.00    +0.000 NA
ATOM     18  C   UNL     1       5.418   4.401  16.303  0.00  0.00    +0.000 C 
ENDBRANCH  11  18
ENDBRANCH   7  14
ENDBRANCH   1   9
BRANCH   4  19
ATOM     19  C   UNL     1      -2.152  13.206  20.210  0.00  0.00    +0.000 C 
BRANCH  19  20
ATOM     20  C   UNL     1      -3.566  12.617  20.143  0.00  0.00    +0.000 C 
BRANCH  20  21
ATOM     21  N   UNL     1      -4.128  12.347  21.480  0.00  0.00    +0.000 NA
ATOM     22  C   UNL     1      -3.121  12.530  22.536  0.00  0.00    +0.000 C 
ATOM     23  C   UNL     1      -3.690  12.437  23.950  0.00  0.00    +0.000 C 
ATOM     24  C   UNL     1      -4.913  13.336  24.153  0.00  0.00    +0.000 C 
ATOM     25  C   UNL     1      -5.946  12.989  23.075  0.00  0.00    +0.000 C 
ATOM     26  C   UNL     1      -5.375  13.096  21.662  0.00  0.00    +0.000 C 
BRANCH  24  27
ATOM     27  C   UNL     1      -4.572  14.810  24.218  0.00  0.00    +0.000 A 
ATOM     28  C   UNL     1      -5.262  15.865  23.642  0.00  0.00    +0.000 A 
ATOM     29  O   UNL     1      -4.667  17.052  23.880  0.00  0.00    +0.000 OA
ATOM     30  C   UNL     1      -3.571  16.793  24.631  0.00  0.00    +0.000 A 
ATOM     31  C   UNL     1      -2.686  17.765  25.086  0.00  0.00    +0.000 A 
ATOM     32  C   UNL     1      -1.613  17.314  25.854  0.00  0.00    +0.000 A 
ATOM     33  C   UNL     1      -1.453  15.955  26.135  0.00  0.00    +0.000 A 
ATOM     34  C   UNL     1      -2.365  14.998  25.656  0.00  0.00    +0.000 A 
ATOM     35  C   UNL     1      -3.458  15.429  24.880  0.00  0.00    +0.000 A 
ENDBRANCH  24  27
ENDBRANCH  20  21
ENDBRANCH  19  20
ENDBRANCH   4  19
TORSDOF 7
ENDMDL
MODEL 8
REMARK VINA RESULT:      -7.4      2.624      3.070
REMARK  Name = 
REMARK  7 active torsions:
REMARK  status: ('A' for Active; 'I' for Inactive)
REMARK    1  A    between atoms: C_2  and  C_3
REMARK    2  A    between atoms: C_6  and  C_7
REMARK    3  A    between atoms: N_9  and  C_10
REMARK    4  A    between atoms: C_13  and  C_14
REMARK    5  A    between atoms: C_14  and  C_15
REMARK    6  A    between atoms: C_15  and  N_16
REMARK    7  A    between atoms: C_19  and  C_20
REMARK                            x       y       z     vdW  Elec       q    Type
REMARK                         _______ _______ _______ _____ _____    ______ ____
ROOT
ATOM      1  C   UNL     1      -0.054  10.227  21.016  0.00  0.00    +0.000 C 
ATOM      2  C   UNL     1      -0.586   8.916  21.613  0.00  0.00    +0.000 C 
ATOM      3  C   UNL     1       0.467   7.799  21.527  0.00  0.00    +0.000 C 
ATOM      4  C   UNL     1       1.121   7.661  20.134  0.00  0.00    +0.000 C 
ATOM      5  C   UNL     1       1.546   9.020  19.569  0.00  0.00    +0.000 C 
ATOM      6  C   UNL     1       0.348   9.964  19.563  0.00  0.00    +0.000 C 
ENDROOT
BRANCH   1   9
ATOM      7  C   UNL     1      -1.246  11.908  22.383  0.00  0.00    +0.000 C 
ATOM      8  O   UNL     1      -0.695  11.522  23.412  0.00  0.00    +0.000 OA
ATOM      9  N   UNL     1      -0.986  11.345  21.132  0.00  0.00    +0.000 N 
ATOM     10  H   UNL     1      -1.294  11.792  20.287  0.00  0.00    +0.000 HD
BRANCH   7  14
ATOM     11  C   UNL     1      -4.449  14.778  22.805  0.00  0.00    +0.000 A 
ATOM     12  C   UNL     1      -3.927  14.106  23.913  0.00  0.00    +0.000 A 
ATOM     13  C   UNL     1      -2.855  13.214  23.754  0.00  0.00    +0.000 A 
ATOM     14  C   UNL     1      -2.276  12.987  22.491  0.00  0.00    +0.000 A 
ATOM     15  C   UNL     1      -2.760  13.715  21.397  0.00  0.00    +0.000 A 
ATOM     16  C   UNL     1      -3.855  14.584  21.552  0.00  0.00    +0.000 A 
BRANCH  11  18
ATOM     17  N   UNL     1      -6.482  16.375  23.066  0.00  0.00    +0.000 NA
ATOM     18  C   UNL     1      -5.593  15.649  22.925  0.00  0.00    +0.000 C 
ENDBRANCH  11  18
ENDBRANCH   7  14
ENDBRANCH   1   9
BRANCH   4  19
ATOM     19  C   UNL     1       2.324   6.697  20.157  0.00  0.00    +0.000 C 
BRANCH  19  20
ATOM     20  C   UNL     1       1.927   5.266  20.537  0.00  0.00    +0.000 C 
BRANCH  20  21
ATOM     21  N   UNL     1       2.461   4.264  19.596  0.00  0.00    +0.000 NA
ATOM     22  C   UNL     1       2.127   4.598  18.203  0.00  0.00    +0.000 C 
ATOM     23  C   UNL     1       2.803   3.694  17.175  0.00  0.00    +0.000 C 
ATOM     24  C   UNL     1       4.313   3.577  17.397  0.00  0.00    +0.000 C 
ATOM     25  C   UNL     1       4.552   3.115  18.839  0.00  0.00    +0.000 C 
ATOM     26  C   UNL     1       3.884   4.030  19.864  0.00  0.00    +0.000 C 
BRANCH  24  27
ATOM     27  C   UNL     1       5.075   4.833  17.026  0.00  0.00    +0.000 A 
ATOM     28  C   UNL     1       4.897   5.631  15.907  0.00  0.00    +0.000 A 
ATOM     29  O   UNL     1       5.764   6.665  15.878  0.00  0.00    +0.000 OA
ATOM     30  C   UNL     1       6.525   6.565  16.992  0.00  0.00    +0.000 A 
ATOM     31  C   UNL     1       7.542   7.453  17.328  0.00  0.00    +0.000 A 
ATOM     32  C   UNL     1       8.218   7.197  18.521  0.00  0.00    +0.000 A 
ATOM     33  C   UNL     1       7.877   6.101  19.318  0.00  0.00    +0.000 A 
ATOM     34  C   UNL     1       6.845   5.221  18.947  0.00  0.00    +0.000 A 
ATOM     35  C   UNL     1       6.146   5.460  17.747  0.00  0.00    +0.000 A 
ENDBRANCH  24  27
ENDBRANCH  20  21
ENDBRANCH  19  20
ENDBRANCH   4  19
TORSDOF 7
ENDMDL
MODEL 9
REMARK VINA RESULT:      -7.4      1.047      1.389
REMARK  Name = 
REMARK  7 active torsions:
REMARK  status: ('A' for Active; 'I' for Inactive)
REMARK    1  A    between atoms: C_2  and  C_3
REMARK    2  A    between atoms: C_6  and  C_7
REMARK    3  A    between atoms: N_9  and  C_10
REMARK    4  A    between atoms: C_13  and  C_14
REMARK    5  A    between atoms: C_14  and  C_15
REMARK    6  A    between atoms: C_15  and  N_16
REMARK    7  A    between atoms: C_19  and  C_20
REMARK                            x       y       z     vdW  Elec       q    Type
REMARK                         _______ _______ _______ _____ _____    ______ ____
ROOT
ATOM      1  C   UNL     1       1.322   9.788  20.369  0.00  0.00    +0.000 C 
ATOM      2  C   UNL     1       0.226   9.134  21.223  0.00  0.00    +0.000 C 
ATOM      3  C   UNL     1       0.603   7.690  21.598  0.00  0.00    +0.000 C 
ATOM      4  C   UNL     1       1.092   6.841  20.405  0.00  0.00    +0.000 C 
ATOM      5  C   UNL     1       2.118   7.594  19.552  0.00  0.00    +0.000 C 
ATOM      6  C   UNL     1       1.530   8.933  19.117  0.00  0.00    +0.000 C 
ENDROOT
BRANCH   1   9
ATOM      7  C   UNL     1       1.675  11.771  18.934  0.00  0.00    +0.000 C 
ATOM      8  O   UNL     1       2.432  11.150  18.191  0.00  0.00    +0.000 OA
ATOM      9  N   UNL     1       1.053  11.185  20.038  0.00  0.00    +0.000 N 
ATOM     10  H   UNL     1       0.299  11.646  20.515  0.00  0.00    +0.000 HD
BRANCH   7  14
ATOM     11  C   UNL     1       1.289  16.046  18.430  0.00  0.00    +0.000 A 
ATOM     12  C   UNL     1       2.489  15.388  18.147  0.00  0.00    +0.000 A 
ATOM     13  C   UNL     1       2.573  13.992  18.274  0.00  0.00    +0.000 A 
ATOM     14  C   UNL     1       1.459  13.228  18.672  0.00  0.00    +0.000 A 
ATOM     15  C   UNL     1       0.242  13.887  18.888  0.00  0.00    +0.000 A 
ATOM     16  C   UNL     1       0.168  15.288  18.791  0.00  0.00    +0.000 A 
BRANCH  11  18
ATOM     17  N   UNL     1       1.062  18.630  18.295  0.00  0.00    +0.000 NA
ATOM     18  C   UNL     1       1.191  17.484  18.374  0.00  0.00    +0.000 C 
ENDBRANCH  11  18
ENDBRANCH   7  14
ENDBRANCH   1   9
BRANCH   4  19
ATOM     19  C   UNL     1       1.675   5.489  20.862  0.00  0.00    +0.000 C 
BRANCH  19  20
ATOM     20  C   UNL     1       0.971   4.292  20.212  0.00  0.00    +0.000 C 
BRANCH  20  21
ATOM     21  N   UNL     1       1.903   3.423  19.471  0.00  0.00    +0.000 NA
ATOM     22  C   UNL     1       1.778   3.610  18.018  0.00  0.00    +0.000 C 
ATOM     23  C   UNL     1       2.839   2.869  17.208  0.00  0.00    +0.000 C 
ATOM     24  C   UNL     1       4.260   3.145  17.707  0.00  0.00    +0.000 C 
ATOM     25  C   UNL     1       4.316   2.812  19.202  0.00  0.00    +0.000 C 
ATOM     26  C   UNL     1       3.260   3.566  20.009  0.00  0.00    +0.000 C 
BRANCH  24  27
ATOM     27  C   UNL     1       4.754   4.538  17.375  0.00  0.00    +0.000 A 
ATOM     28  C   UNL     1       4.182   5.453  16.506  0.00  0.00    +0.000 A 
ATOM     29  O   UNL     1       4.897   6.596  16.429  0.00  0.00    +0.000 OA
ATOM     30  C   UNL     1       5.954   6.449  17.261  0.00  0.00    +0.000 A 
ATOM     31  C   UNL     1       6.932   7.416  17.462  0.00  0.00    +0.000 A 
ATOM     32  C   UNL     1       7.947   7.093  18.362  0.00  0.00    +0.000 A 
ATOM     33  C   UNL     1       7.961   5.857  19.013  0.00  0.00    +0.000 A 
ATOM     34  C   UNL     1       6.958   4.900  18.784  0.00  0.00    +0.000 A 
ATOM     35  C   UNL     1       5.921   5.204  17.880  0.00  0.00    +0.000 A 
ENDBRANCH  24  27
ENDBRANCH  20  21
ENDBRANCH  19  20
ENDBRANCH   4  19
TORSDOF 7
ENDMDL
