MODEL 1
REMARK VINA RESULT:      -8.9      0.000      0.000
REMARK  Name = 
REMARK  5 active torsions:
REMARK  status: ('A' for Active; 'I' for Inactive)
REMARK    1  A    between atoms: C_4  and  C_5
REMARK    2  A    between atoms: C_12  and  N_13
REMARK    3  A    between atoms: C_12  and  C_23
REMARK    4  A    between atoms: N_13  and  S_14
REMARK    5  A    between atoms: S_14  and  C_17
REMARK                            x       y       z     vdW  Elec       q    Type
REMARK                         _______ _______ _______ _____ _____    ______ ____
ROOT
ATOM      1  O   UNL     1       5.422   7.574  17.882  0.00  0.00    +0.000 OA
ATOM      2  C   UNL     1       5.946   6.614  17.340  0.00  0.00    +0.000 C 
ATOM      3  N   UNL     1       6.068   6.457  15.993  0.00  0.00    +0.000 N 
ATOM      4  C   UNL     1       6.448   5.190  15.746  0.00  0.00    +0.000 C 
ATOM      5  N   UNL     1       6.707   4.469  16.784  0.00  0.00    +0.000 NA
ATOM      6  C   UNL     1       6.458   5.322  17.979  0.00  0.00    +0.000 C 
ATOM      7  H   UNL     1       5.725   7.136  15.330  0.00  0.00    +0.000 HD
ENDROOT
BRANCH   4   8
ATOM      8  C   UNL     1       6.491   4.672  14.368  0.00  0.00    +0.000 A 
ATOM      9  C   UNL     1       5.539   3.772  13.882  0.00  0.00    +0.000 A 
ATOM     10  C   UNL     1       5.639   3.300  12.576  0.00  0.00    +0.000 A 
ATOM     11  C   UNL     1       6.688   3.721  11.752  0.00  0.00    +0.000 A 
ATOM     12  C   UNL     1       7.634   4.630  12.231  0.00  0.00    +0.000 A 
ATOM     13  C   UNL     1       7.530   5.116  13.533  0.00  0.00    +0.000 A 
ENDBRANCH   4   8
BRANCH   6  14
ATOM     14  C   UNL     1       7.737   5.717  18.763  0.00  0.00    +0.000 C 
ATOM     15  F   UNL     1       8.712   4.775  18.681  0.00  0.00    +0.000 F 
ATOM     16  F   UNL     1       8.286   6.866  18.305  0.00  0.00    +0.000 F 
ATOM     17  F   UNL     1       7.495   5.895  20.084  0.00  0.00    +0.000 F 
ENDBRANCH   6  14
BRANCH   6  18
ATOM     18  N   UNL     1       5.350   4.707  18.744  0.00  0.00    +0.000 NA
ATOM     19  H   UNL     1       5.100   5.163  19.620  0.00  0.00    +0.000 HD
BRANCH  18  20
ATOM     20  S   UNL     1       4.003   4.107  17.959  0.00  0.00    +0.000 S 
ATOM     21  O   UNL     1       3.403   5.254  17.311  0.00  0.00    +0.000 OA
ATOM     22  O   UNL     1       4.367   2.929  17.208  0.00  0.00    +0.000 OA
BRANCH  20  23
ATOM     23  C   UNL     1       2.903   3.622  19.255  0.00  0.00    +0.000 A 
ATOM     24  C   UNL     1       1.533   3.868  19.126  0.00  0.00    +0.000 A 
ATOM     25  C   UNL     1       0.672   3.485  20.153  0.00  0.00    +0.000 A 
ATOM     26  C   UNL     1       1.176   2.853  21.292  0.00  0.00    +0.000 A 
ATOM     27  C   UNL     1       2.543   2.597  21.409  0.00  0.00    +0.000 A 
ATOM     28  C   UNL     1       3.411   2.975  20.388  0.00  0.00    +0.000 A 
ENDBRANCH  20  23
ENDBRANCH  18  20
ENDBRANCH   6  18
TORSDOF 5
ENDMDL
MODEL 2
REMARK VINA RESULT:      -8.8      0.073      1.537
REMARK  Name = 
REMARK  5 active torsions:
REMARK  status: ('A' for Active; 'I' for Inactive)
REMARK    1  A    between atoms: C_4  and  C_5
REMARK    2  A    between atoms: C_12  and  N_13
REMARK    3  A    between atoms: C_12  and  C_23
REMARK    4  A    between atoms: N_13  and  S_14
REMARK    5  A    between atoms: S_14  and  C_17
REMARK                            x       y       z     vdW  Elec       q    Type
REMARK                         _______ _______ _______ _____ _____    ______ ____
ROOT
ATOM      1  O   UNL     1       5.330   7.470  17.912  0.00  0.00    +0.000 OA
ATOM      2  C   UNL     1       5.909   6.550  17.357  0.00  0.00    +0.000 C 
ATOM      3  N   UNL     1       6.049   6.423  16.008  0.00  0.00    +0.000 N 
ATOM      4  C   UNL     1       6.499   5.184  15.743  0.00  0.00    +0.000 C 
ATOM      5  N   UNL     1       6.789   4.459  16.770  0.00  0.00    +0.000 NA
ATOM      6  C   UNL     1       6.487   5.276  17.978  0.00  0.00    +0.000 C 
ATOM      7  H   UNL     1       5.675   7.095  15.355  0.00  0.00    +0.000 HD
ENDROOT
BRANCH   4   8
ATOM      8  C   UNL     1       6.579   4.693  14.357  0.00  0.00    +0.000 A 
ATOM      9  C   UNL     1       7.579   5.111  13.476  0.00  0.00    +0.000 A 
ATOM     10  C   UNL     1       7.596   4.628  12.170  0.00  0.00    +0.000 A 
ATOM     11  C   UNL     1       6.616   3.728  11.739  0.00  0.00    +0.000 A 
ATOM     12  C   UNL     1       5.623   3.297  12.620  0.00  0.00    +0.000 A 
ATOM     13  C   UNL     1       5.611   3.768  13.932  0.00  0.00    +0.000 A 
ENDBRANCH   4   8
BRANCH   6  14
ATOM     14  C   UNL     1       7.736   5.726  18.778  0.00  0.00    +0.000 C 
ATOM     15  F   UNL     1       7.467   5.938  20.093  0.00  0.00    +0.000 F 
ATOM     16  F   UNL     1       8.727   4.805  18.744  0.00  0.00    +0.000 F 
ATOM     17  F   UNL     1       8.259   6.885  18.309  0.00  0.00    +0.000 F 
ENDBRANCH   6  14
BRANCH   6  18
ATOM     18  N   UNL     1       5.408   4.589  18.724  0.00  0.00    +0.000 NA
ATOM     19  H   UNL     1       5.180   4.971  19.640  0.00  0.00    +0.000 HD
BRANCH  18  20
ATOM     20  S   UNL     1       4.044   4.036  17.933  0.00  0.00    +0.000 S 
ATOM     21  O   UNL     1       3.483   5.205  17.288  0.00  0.00    +0.000 OA
ATOM     22  O   UNL     1       4.371   2.850  17.178  0.00  0.00    +0.000 OA
BRANCH  20  23
ATOM     23  C   UNL     1       2.925   3.582  19.224  0.00  0.00    +0.000 A 
ATOM     24  C   UNL     1       3.419   2.978  20.384  0.00  0.00    +0.000 A 
ATOM     25  C   UNL     1       2.530   2.619  21.397  0.00  0.00    +0.000 A 
ATOM     26  C   UNL     1       1.164   2.873  21.253  0.00  0.00    +0.000 A 
ATOM     27  C   UNL     1       0.679   3.490  20.099  0.00  0.00    +0.000 A 
ATOM     28  C   UNL     1       1.560   3.852  19.082  0.00  0.00    +0.000 A 
ENDBRANCH  20  23
ENDBRANCH  18  20
ENDBRANCH   6  18
TORSDOF 5
ENDMDL
MODEL 3
REMARK VINA RESULT:      -8.6      0.568      1.126
REMARK  Name = 
REMARK  5 active torsions:
REMARK  status: ('A' for Active; 'I' for Inactive)
REMARK    1  A    between atoms: C_4  and  C_5
REMARK    2  A    between atoms: C_12  and  N_13
REMARK    3  A    between atoms: C_12  and  C_23
REMARK    4  A    between atoms: N_13  and  S_14
REMARK    5  A    between atoms: S_14  and  C_17
REMARK                            x       y       z     vdW  Elec       q    Type
REMARK                         _______ _______ _______ _____ _____    ______ ____
ROOT
ATOM      1  O   UNL     1       5.434   7.525  17.902  0.00  0.00    +0.000 OA
ATOM      2  C   UNL     1       5.997   6.594  17.349  0.00  0.00    +0.000 C 
ATOM      3  N   UNL     1       6.166   6.479  16.003  0.00  0.00    +0.000 N 
ATOM      4  C   UNL     1       6.583   5.229  15.732  0.00  0.00    +0.000 C 
ATOM      5  N   UNL     1       6.824   4.483  16.757  0.00  0.00    +0.000 NA
ATOM      6  C   UNL     1       6.518   5.295  17.967  0.00  0.00    +0.000 C 
ATOM      7  H   UNL     1       5.830   7.171  15.349  0.00  0.00    +0.000 HD
ENDROOT
BRANCH   4   8
ATOM      8  C   UNL     1       6.683   4.753  14.343  0.00  0.00    +0.000 A 
ATOM      9  C   UNL     1       7.654   5.232  13.460  0.00  0.00    +0.000 A 
ATOM     10  C   UNL     1       7.690   4.759  12.151  0.00  0.00    +0.000 A 
ATOM     11  C   UNL     1       6.759   3.809  11.718  0.00  0.00    +0.000 A 
ATOM     12  C   UNL     1       5.795   3.319  12.601  0.00  0.00    +0.000 A 
ATOM     13  C   UNL     1       5.764   3.779  13.916  0.00  0.00    +0.000 A 
ENDBRANCH   4   8
BRANCH   6  14
ATOM     14  C   UNL     1       7.760   5.694  18.805  0.00  0.00    +0.000 C 
ATOM     15  F   UNL     1       8.736   4.748  18.776  0.00  0.00    +0.000 F 
ATOM     16  F   UNL     1       8.333   6.837  18.361  0.00  0.00    +0.000 F 
ATOM     17  F   UNL     1       7.460   5.886  20.112  0.00  0.00    +0.000 F 
ENDBRANCH   6  14
BRANCH   6  18
ATOM     18  N   UNL     1       5.399   4.633  18.677  0.00  0.00    +0.000 NA
ATOM     19  H   UNL     1       5.149   5.022  19.585  0.00  0.00    +0.000 HD
BRANCH  18  20
ATOM     20  S   UNL     1       4.051   4.110  17.842  0.00  0.00    +0.000 S 
ATOM     21  O   UNL     1       3.518   5.297  17.206  0.00  0.00    +0.000 OA
ATOM     22  O   UNL     1       4.385   2.936  17.072  0.00  0.00    +0.000 OA
BRANCH  20  23
ATOM     23  C   UNL     1       2.895   3.643  19.095  0.00  0.00    +0.000 A 
ATOM     24  C   UNL     1       2.088   2.517  18.904  0.00  0.00    +0.000 A 
ATOM     25  C   UNL     1       1.176   2.157  19.896  0.00  0.00    +0.000 A 
ATOM     26  C   UNL     1       1.083   2.908  21.070  0.00  0.00    +0.000 A 
ATOM     27  C   UNL     1       1.902   4.022  21.260  0.00  0.00    +0.000 A 
ATOM     28  C   UNL     1       2.815   4.390  20.276  0.00  0.00    +0.000 A 
ENDBRANCH  20  23
ENDBRANCH  18  20
ENDBRANCH   6  18
TORSDOF 5
ENDMDL
MODEL 4
REMARK VINA RESULT:      -8.5      2.591      3.097
REMARK  Name = 
REMARK  5 active torsions:
REMARK  status: ('A' for Active; 'I' for Inactive)
REMARK    1  A    between atoms: C_4  and  C_5
REMARK    2  A    between atoms: C_12  and  N_13
REMARK    3  A    between atoms: C_12  and  C_23
REMARK    4  A    between atoms: N_13  and  S_14
REMARK    5  A    between atoms: S_14  and  C_17
REMARK                            x       y       z     vdW  Elec       q    Type
REMARK                         _______ _______ _______ _____ _____    ______ ____
ROOT
ATOM      1  O   UNL     1       7.692   7.520  17.630  0.00  0.00    +0.000 OA
ATOM      2  C   UNL     1       7.174   6.546  17.106  0.00  0.00    +0.000 C 
ATOM      3  N   UNL     1       7.477   6.083  15.862  0.00  0.00    +0.000 N 
ATOM      4  C   UNL     1       6.549   5.176  15.509  0.00  0.00    +0.000 C 
ATOM      5  N   UNL     1       5.681   4.877  16.417  0.00  0.00    +0.000 NA
ATOM      6  C   UNL     1       6.002   5.704  17.613  0.00  0.00    +0.000 C 
ATOM      7  H   UNL     1       8.167   6.520  15.269  0.00  0.00    +0.000 HD
ENDROOT
BRANCH   4   8
ATOM      8  C   UNL     1       6.512   4.629  14.143  0.00  0.00    +0.000 A 
ATOM      9  C   UNL     1       5.536   3.717  13.732  0.00  0.00    +0.000 A 
ATOM     10  C   UNL     1       5.560   3.218  12.433  0.00  0.00    +0.000 A 
ATOM     11  C   UNL     1       6.557   3.625  11.540  0.00  0.00    +0.000 A 
ATOM     12  C   UNL     1       7.526   4.545  11.942  0.00  0.00    +0.000 A 
ATOM     13  C   UNL     1       7.498   5.058  13.238  0.00  0.00    +0.000 A 
ENDBRANCH   4   8
BRANCH   6  14
ATOM     14  C   UNL     1       6.551   4.900  18.820  0.00  0.00    +0.000 C 
ATOM     15  F   UNL     1       7.800   4.413  18.600  0.00  0.00    +0.000 F 
ATOM     16  F   UNL     1       6.634   5.651  19.943  0.00  0.00    +0.000 F 
ATOM     17  F   UNL     1       5.776   3.829  19.120  0.00  0.00    +0.000 F 
ENDBRANCH   6  14
BRANCH   6  18
ATOM     18  N   UNL     1       4.851   6.602  17.857  0.00  0.00    +0.000 NA
ATOM     19  H   UNL     1       4.637   7.271  17.119  0.00  0.00    +0.000 HD
BRANCH  18  20
ATOM     20  S   UNL     1       3.462   6.028  18.585  0.00  0.00    +0.000 S 
ATOM     21  O   UNL     1       2.809   5.226  17.572  0.00  0.00    +0.000 OA
ATOM     22  O   UNL     1       3.786   5.478  19.880  0.00  0.00    +0.000 OA
BRANCH  20  23
ATOM     23  C   UNL     1       2.453   7.459  18.828  0.00  0.00    +0.000 A 
ATOM     24  C   UNL     1       2.211   8.323  17.756  0.00  0.00    +0.000 A 
ATOM     25  C   UNL     1       1.417   9.452  17.956  0.00  0.00    +0.000 A 
ATOM     26  C   UNL     1       0.863   9.706  19.213  0.00  0.00    +0.000 A 
ATOM     27  C   UNL     1       1.096   8.831  20.275  0.00  0.00    +0.000 A 
ATOM     28  C   UNL     1       1.887   7.701  20.085  0.00  0.00    +0.000 A 
ENDBRANCH  20  23
ENDBRANCH  18  20
ENDBRANCH   6  18
TORSDOF 5
ENDMDL
MODEL 5
REMARK VINA RESULT:      -8.5      2.594      3.379
REMARK  Name = 
REMARK  5 active torsions:
REMARK  status: ('A' for Active; 'I' for Inactive)
REMARK    1  A    between atoms: C_4  and  C_5
REMARK    2  A    between atoms: C_12  and  N_13
REMARK    3  A    between atoms: C_12  and  C_23
REMARK    4  A    between atoms: N_13  and  S_14
REMARK    5  A    between atoms: S_14  and  C_17
REMARK                            x       y       z     vdW  Elec       q    Type
REMARK                         _______ _______ _______ _____ _____    ______ ____
ROOT
ATOM      1  O   UNL     1       7.689   7.535  17.663  0.00  0.00    +0.000 OA
ATOM      2  C   UNL     1       7.179   6.562  17.132  0.00  0.00    +0.000 C 
ATOM      3  N   UNL     1       7.497   6.101  15.891  0.00  0.00    +0.000 N 
ATOM      4  C   UNL     1       6.575   5.192  15.525  0.00  0.00    +0.000 C 
ATOM      5  N   UNL     1       5.698   4.890  16.423  0.00  0.00    +0.000 NA
ATOM      6  C   UNL     1       6.004   5.715  17.624  0.00  0.00    +0.000 C 
ATOM      7  H   UNL     1       8.192   6.541  15.306  0.00  0.00    +0.000 HD
ENDROOT
BRANCH   4   8
ATOM      8  C   UNL     1       6.554   4.647  14.158  0.00  0.00    +0.000 A 
ATOM      9  C   UNL     1       7.525   4.980  13.210  0.00  0.00    +0.000 A 
ATOM     10  C   UNL     1       7.447   4.449  11.925  0.00  0.00    +0.000 A 
ATOM     11  C   UNL     1       6.400   3.587  11.581  0.00  0.00    +0.000 A 
ATOM     12  C   UNL     1       5.435   3.242  12.530  0.00  0.00    +0.000 A 
ATOM     13  C   UNL     1       5.518   3.761  13.821  0.00  0.00    +0.000 A 
ENDBRANCH   4   8
BRANCH   6  14
ATOM     14  C   UNL     1       6.541   4.910  18.836  0.00  0.00    +0.000 C 
ATOM     15  F   UNL     1       6.622   5.659  19.967  0.00  0.00    +0.000 F 
ATOM     16  F   UNL     1       5.752   3.854  19.142  0.00  0.00    +0.000 F 
ATOM     17  F   UNL     1       7.786   4.422  18.617  0.00  0.00    +0.000 F 
ENDBRANCH   6  14
BRANCH   6  18
ATOM     18  N   UNL     1       4.848   6.610  17.857  0.00  0.00    +0.000 NA
ATOM     19  H   UNL     1       4.632   7.270  17.112  0.00  0.00    +0.000 HD
BRANCH  18  20
ATOM     20  S   UNL     1       3.460   6.037  18.589  0.00  0.00    +0.000 S 
ATOM     21  O   UNL     1       2.805   5.234  17.579  0.00  0.00    +0.000 OA
ATOM     22  O   UNL     1       3.788   5.488  19.883  0.00  0.00    +0.000 OA
BRANCH  20  23
ATOM     23  C   UNL     1       2.452   7.469  18.833  0.00  0.00    +0.000 A 
ATOM     24  C   UNL     1       1.892   7.713  20.090  0.00  0.00    +0.000 A 
ATOM     25  C   UNL     1       1.096   8.843  20.273  0.00  0.00    +0.000 A 
ATOM     26  C   UNL     1       0.872   9.723  19.212  0.00  0.00    +0.000 A 
ATOM     27  C   UNL     1       1.446   9.481  17.963  0.00  0.00    +0.000 A 
ATOM     28  C   UNL     1       2.243   8.355  17.771  0.00  0.00    +0.000 A 
ENDBRANCH  20  23
ENDBRANCH  18  20
ENDBRANCH   6  18
TORSDOF 5
ENDMDL
MODEL 6
REMARK VINA RESULT:      -8.5      2.914      5.024
REMARK  Name = 
REMARK  5 active torsions:
REMARK  status: ('A' for Active; 'I' for Inactive)
REMARK    1  A    between atoms: C_4  and  C_5
REMARK    2  A    between atoms: C_12  and  N_13
REMARK    3  A    between atoms: C_12  and  C_23
REMARK    4  A    between atoms: N_13  and  S_14
REMARK    5  A    between atoms: S_14  and  C_17
REMARK                            x       y       z     vdW  Elec       q    Type
REMARK                         _______ _______ _______ _____ _____    ______ ____
ROOT
ATOM      1  O   UNL     1       7.126   5.191  18.032  0.00  0.00    +0.000 OA
ATOM      2  C   UNL     1       5.961   5.447  17.771  0.00  0.00    +0.000 C 
ATOM      3  N   UNL     1       5.279   6.524  18.250  0.00  0.00    +0.000 N 
ATOM      4  C   UNL     1       3.972   6.354  17.978  0.00  0.00    +0.000 C 
ATOM      5  N   UNL     1       3.676   5.319  17.266  0.00  0.00    +0.000 NA
ATOM      6  C   UNL     1       4.952   4.603  16.990  0.00  0.00    +0.000 C 
ATOM      7  H   UNL     1       5.694   7.203  18.869  0.00  0.00    +0.000 HD
ENDROOT
BRANCH   4   8
ATOM      8  C   UNL     1       2.962   7.272  18.530  0.00  0.00    +0.000 A 
ATOM      9  C   UNL     1       2.516   8.396  17.829  0.00  0.00    +0.000 A 
ATOM     10  C   UNL     1       1.572   9.240  18.407  0.00  0.00    +0.000 A 
ATOM     11  C   UNL     1       1.071   8.968  19.685  0.00  0.00    +0.000 A 
ATOM     12  C   UNL     1       1.505   7.840  20.382  0.00  0.00    +0.000 A 
ATOM     13  C   UNL     1       2.440   6.984  19.801  0.00  0.00    +0.000 A 
ENDBRANCH   4   8
BRANCH   6  14
ATOM     14  C   UNL     1       5.412   4.658  15.510  0.00  0.00    +0.000 C 
ATOM     15  F   UNL     1       6.662   4.156  15.331  0.00  0.00    +0.000 F 
ATOM     16  F   UNL     1       4.602   3.945  14.693  0.00  0.00    +0.000 F 
ATOM     17  F   UNL     1       5.441   5.924  15.028  0.00  0.00    +0.000 F 
ENDBRANCH   6  14
BRANCH   6  18
ATOM     18  N   UNL     1       4.865   3.270  17.629  0.00  0.00    +0.000 NA
ATOM     19  H   UNL     1       5.362   3.160  18.511  0.00  0.00    +0.000 HD
BRANCH  18  20
ATOM     20  S   UNL     1       3.430   2.415  17.622  0.00  0.00    +0.000 S 
ATOM     21  O   UNL     1       2.626   3.037  16.591  0.00  0.00    +0.000 OA
ATOM     22  O   UNL     1       3.710   1.000  17.600  0.00  0.00    +0.000 OA
BRANCH  20  23
ATOM     23  C   UNL     1       2.664   2.805  19.167  0.00  0.00    +0.000 A 
ATOM     24  C   UNL     1       3.338   2.531  20.361  0.00  0.00    +0.000 A 
ATOM     25  C   UNL     1       2.726   2.838  21.575  0.00  0.00    +0.000 A 
ATOM     26  C   UNL     1       1.458   3.424  21.593  0.00  0.00    +0.000 A 
ATOM     27  C   UNL     1       0.797   3.710  20.397  0.00  0.00    +0.000 A 
ATOM     28  C   UNL     1       1.400   3.406  19.180  0.00  0.00    +0.000 A 
ENDBRANCH  20  23
ENDBRANCH  18  20
ENDBRANCH   6  18
TORSDOF 5
ENDMDL
MODEL 7
REMARK VINA RESULT:      -8.5      1.420      1.772
REMARK  Name = 
REMARK  5 active torsions:
REMARK  status: ('A' for Active; 'I' for Inactive)
REMARK    1  A    between atoms: C_4  and  C_5
REMARK    2  A    between atoms: C_12  and  N_13
REMARK    3  A    between atoms: C_12  and  C_23
REMARK    4  A    between atoms: N_13  and  S_14
REMARK    5  A    between atoms: S_14  and  C_17
REMARK                            x       y       z     vdW  Elec       q    Type
REMARK                         _______ _______ _______ _____ _____    ______ ____
ROOT
ATOM      1  O   UNL     1       4.600   7.833  17.336  0.00  0.00    +0.000 OA
ATOM      2  C   UNL     1       4.923   6.733  16.915  0.00  0.00    +0.000 C 
ATOM      3  N   UNL     1       5.579   6.515  15.741  0.00  0.00    +0.000 N 
ATOM      4  C   UNL     1       5.539   5.198  15.471  0.00  0.00    +0.000 C 
ATOM      5  N   UNL     1       5.013   4.453  16.385  0.00  0.00    +0.000 NA
ATOM      6  C   UNL     1       4.577   5.357  17.485  0.00  0.00    +0.000 C 
ATOM      7  H   UNL     1       5.850   7.262  15.120  0.00  0.00    +0.000 HD
ENDROOT
BRANCH   4   8
ATOM      8  C   UNL     1       6.012   4.679  14.177  0.00  0.00    +0.000 A 
ATOM      9  C   UNL     1       5.296   3.725  13.451  0.00  0.00    +0.000 A 
ATOM     10  C   UNL     1       5.800   3.257  12.241  0.00  0.00    +0.000 A 
ATOM     11  C   UNL     1       7.020   3.737  11.752  0.00  0.00    +0.000 A 
ATOM     12  C   UNL     1       7.732   4.700  12.469  0.00  0.00    +0.000 A 
ATOM     13  C   UNL     1       7.224   5.181  13.674  0.00  0.00    +0.000 A 
ENDBRANCH   4   8
BRANCH   6  14
ATOM     14  C   UNL     1       5.402   5.221  18.791  0.00  0.00    +0.000 C 
ATOM     15  F   UNL     1       5.853   3.956  18.996  0.00  0.00    +0.000 F 
ATOM     16  F   UNL     1       6.498   6.015  18.791  0.00  0.00    +0.000 F 
ATOM     17  F   UNL     1       4.680   5.546  19.891  0.00  0.00    +0.000 F 
ENDBRANCH   6  14
BRANCH   6  18
ATOM     18  N   UNL     1       3.104   5.252  17.593  0.00  0.00    +0.000 NA
ATOM     19  H   UNL     1       2.564   5.940  17.072  0.00  0.00    +0.000 HD
BRANCH  18  20
ATOM     20  S   UNL     1       2.355   3.759  17.597  0.00  0.00    +0.000 S 
ATOM     21  O   UNL     1       0.992   4.021  17.184  0.00  0.00    +0.000 OA
ATOM     22  O   UNL     1       3.178   2.803  16.895  0.00  0.00    +0.000 OA
BRANCH  20  23
ATOM     23  C   UNL     1       2.289   3.290  19.301  0.00  0.00    +0.000 A 
ATOM     24  C   UNL     1       3.321   2.520  19.845  0.00  0.00    +0.000 A 
ATOM     25  C   UNL     1       3.260   2.152  21.188  0.00  0.00    +0.000 A 
ATOM     26  C   UNL     1       2.183   2.560  21.979  0.00  0.00    +0.000 A 
ATOM     27  C   UNL     1       1.164   3.341  21.433  0.00  0.00    +0.000 A 
ATOM     28  C   UNL     1       1.216   3.714  20.093  0.00  0.00    +0.000 A 
ENDBRANCH  20  23
ENDBRANCH  18  20
ENDBRANCH   6  18
TORSDOF 5
ENDMDL
MODEL 8
REMARK VINA RESULT:      -8.5      3.206      6.861
REMARK  Name = 
REMARK  5 active torsions:
REMARK  status: ('A' for Active; 'I' for Inactive)
REMARK    1  A    between atoms: C_4  and  C_5
REMARK    2  A    between atoms: C_12  and  N_13
REMARK    3  A    between atoms: C_12  and  C_23
REMARK    4  A    between atoms: N_13  and  S_14
REMARK    5  A    between atoms: S_14  and  C_17
REMARK                            x       y       z     vdW  Elec       q    Type
REMARK                         _______ _______ _______ _____ _____    ______ ____
ROOT
ATOM      1  O   UNL     1       1.972   3.203  17.217  0.00  0.00    +0.000 OA
ATOM      2  C   UNL     1       2.465   4.210  17.702  0.00  0.00    +0.000 C 
ATOM      3  N   UNL     1       1.756   5.297  18.116  0.00  0.00    +0.000 N 
ATOM      4  C   UNL     1       2.619   6.303  18.345  0.00  0.00    +0.000 C 
ATOM      5  N   UNL     1       3.870   6.007  18.235  0.00  0.00    +0.000 NA
ATOM      6  C   UNL     1       3.944   4.572  17.843  0.00  0.00    +0.000 C 
ATOM      7  H   UNL     1       0.751   5.352  18.050  0.00  0.00    +0.000 HD
ENDROOT
BRANCH   4   8
ATOM      8  C   UNL     1       2.131   7.662  18.635  0.00  0.00    +0.000 A 
ATOM      9  C   UNL     1       2.119   8.670  17.668  0.00  0.00    +0.000 A 
ATOM     10  C   UNL     1       1.664   9.943  18.003  0.00  0.00    +0.000 A 
ATOM     11  C   UNL     1       1.221  10.214  19.302  0.00  0.00    +0.000 A 
ATOM     12  C   UNL     1       1.220   9.206  20.267  0.00  0.00    +0.000 A 
ATOM     13  C   UNL     1       1.662   7.927  19.933  0.00  0.00    +0.000 A 
ENDBRANCH   4   8
BRANCH   6  14
ATOM     14  C   UNL     1       4.506   3.634  18.943  0.00  0.00    +0.000 C 
ATOM     15  F   UNL     1       5.621   4.134  19.536  0.00  0.00    +0.000 F 
ATOM     16  F   UNL     1       3.616   3.420  19.939  0.00  0.00    +0.000 F 
ATOM     17  F   UNL     1       4.851   2.419  18.454  0.00  0.00    +0.000 F 
ENDBRANCH   6  14
BRANCH   6  18
ATOM     18  N   UNL     1       4.571   4.507  16.503  0.00  0.00    +0.000 NA
ATOM     19  H   UNL     1       3.952   4.659  15.708  0.00  0.00    +0.000 HD
BRANCH  18  20
ATOM     20  S   UNL     1       6.084   5.164  16.238  0.00  0.00    +0.000 S 
ATOM     21  O   UNL     1       5.884   6.597  16.276  0.00  0.00    +0.000 OA
ATOM     22  O   UNL     1       7.048   4.520  17.098  0.00  0.00    +0.000 OA
BRANCH  20  23
ATOM     23  C   UNL     1       6.470   4.749  14.563  0.00  0.00    +0.000 A 
ATOM     24  C   UNL     1       5.693   3.801  13.890  0.00  0.00    +0.000 A 
ATOM     25  C   UNL     1       6.006   3.477  12.571  0.00  0.00    +0.000 A 
ATOM     26  C   UNL     1       7.078   4.103  11.930  0.00  0.00    +0.000 A 
ATOM     27  C   UNL     1       7.840   5.059  12.603  0.00  0.00    +0.000 A 
ATOM     28  C   UNL     1       7.536   5.389  13.921  0.00  0.00    +0.000 A 
ENDBRANCH  20  23
ENDBRANCH  18  20
ENDBRANCH   6  18
TORSDOF 5
ENDMDL
MODEL 9
REMARK VINA RESULT:      -8.5      2.582      3.234
REMARK  Name = 
REMARK  5 active torsions:
REMARK  status: ('A' for Active; 'I' for Inactive)
REMARK    1  A    between atoms: C_4  and  C_5
REMARK    2  A    between atoms: C_12  and  N_13
REMARK    3  A    between atoms: C_12  and  C_23
REMARK    4  A    between atoms: N_13  and  S_14
REMARK    5  A    between atoms: S_14  and  C_17
REMARK                            x       y       z     vdW  Elec       q    Type
REMARK                         _______ _______ _______ _____ _____    ______ ____
ROOT
ATOM      1  O   UNL     1       7.710   7.478  17.261  0.00  0.00    +0.000 OA
ATOM      2  C   UNL     1       7.157   6.480  16.826  0.00  0.00    +0.000 C 
ATOM      3  N   UNL     1       7.363   5.960  15.585  0.00  0.00    +0.000 N 
ATOM      4  C   UNL     1       6.415   5.035  15.350  0.00  0.00    +0.000 C 
ATOM      5  N   UNL     1       5.625   4.776  16.337  0.00  0.00    +0.000 NA
ATOM      6  C   UNL     1       6.035   5.659  17.464  0.00  0.00    +0.000 C 
ATOM      7  H   UNL     1       8.000   6.370  14.919  0.00  0.00    +0.000 HD
ENDROOT
BRANCH   4   8
ATOM      8  C   UNL     1       6.273   4.424  14.018  0.00  0.00    +0.000 A 
ATOM      9  C   UNL     1       7.316   4.413  13.089  0.00  0.00    +0.000 A 
ATOM     10  C   UNL     1       7.119   3.837  11.836  0.00  0.00    +0.000 A 
ATOM     11  C   UNL     1       5.883   3.272  11.506  0.00  0.00    +0.000 A 
ATOM     12  C   UNL     1       4.842   3.270  12.436  0.00  0.00    +0.000 A 
ATOM     13  C   UNL     1       5.039   3.833  13.697  0.00  0.00    +0.000 A 
ENDBRANCH   4   8
BRANCH   6  14
ATOM     14  C   UNL     1       6.684   4.914  18.659  0.00  0.00    +0.000 C 
ATOM     15  F   UNL     1       5.970   3.825  19.047  0.00  0.00    +0.000 F 
ATOM     16  F   UNL     1       7.927   4.463  18.371  0.00  0.00    +0.000 F 
ATOM     17  F   UNL     1       6.795   5.701  19.757  0.00  0.00    +0.000 F 
ENDBRANCH   6  14
BRANCH   6  18
ATOM     18  N   UNL     1       4.902   6.565  17.757  0.00  0.00    +0.000 NA
ATOM     19  H   UNL     1       4.667   7.243  17.034  0.00  0.00    +0.000 HD
BRANCH  18  20
ATOM     20  S   UNL     1       3.535   5.996  18.530  0.00  0.00    +0.000 S 
ATOM     21  O   UNL     1       2.858   5.179  17.546  0.00  0.00    +0.000 OA
ATOM     22  O   UNL     1       3.896   5.464  19.823  0.00  0.00    +0.000 OA
BRANCH  20  23
ATOM     23  C   UNL     1       2.527   7.428  18.781  0.00  0.00    +0.000 A 
ATOM     24  C   UNL     1       2.290   8.300  17.715  0.00  0.00    +0.000 A 
ATOM     25  C   UNL     1       1.498   9.428  17.921  0.00  0.00    +0.000 A 
ATOM     26  C   UNL     1       0.940   9.674  19.178  0.00  0.00    +0.000 A 
ATOM     27  C   UNL     1       1.169   8.791  20.235  0.00  0.00    +0.000 A 
ATOM     28  C   UNL     1       1.959   7.661  20.038  0.00  0.00    +0.000 A 
ENDBRANCH  20  23
ENDBRANCH  18  20
ENDBRANCH   6  18
TORSDOF 5
ENDMDL
