MODEL 1
REMARK VINA RESULT:      -8.1      0.000      0.000
REMARK  Name = 
REMARK  3 active torsions:
REMARK  status: ('A' for Active; 'I' for Inactive)
REMARK    1  A    between atoms: C_2  and  C_14
REMARK    2  A    between atoms: N_3  and  C_4
REMARK    3  A    between atoms: C_4  and  C_5
REMARK                            x       y       z     vdW  Elec       q    Type
REMARK                         _______ _______ _______ _____ _____    ______ ____
ROOT
ATOM      1  O   UNL     1       4.714   7.003  17.660  0.00  0.00    +0.000 OA
ATOM      2  C   UNL     1       4.672   5.922  18.242  0.00  0.00    +0.000 C 
ATOM      3  N   UNL     1       5.746   5.066  18.270  0.00  0.00    +0.000 N 
ATOM      4  H   UNL     1       5.633   4.118  18.617  0.00  0.00    +0.000 HD
ENDROOT
BRANCH   2   5
ATOM      5  C   UNL     1       3.478   5.486  18.935  0.00  0.00    +0.000 A 
ATOM      6  C   UNL     1       2.714   6.247  19.861  0.00  0.00    +0.000 A 
ATOM      7  N   UNL     1       1.659   5.584  20.345  0.00  0.00    +0.000 NA
ATOM      8  N   UNL     1       1.747   4.396  19.729  0.00  0.00    +0.000 N 
ATOM      9  C   UNL     1       2.839   4.260  18.909  0.00  0.00    +0.000 A 
ATOM     10  O   UNL     1       3.108   3.126  18.254  0.00  0.00    +0.000 OA
ATOM     11  C   UNL     1       2.426   1.963  18.749  0.00  0.00    +0.000 C 
ATOM     12  C   UNL     1       0.939   2.238  18.945  0.00  0.00    +0.000 C 
ATOM     13  C   UNL     1       0.776   3.351  19.973  0.00  0.00    +0.000 C 
ENDBRANCH   2   5
BRANCH   3  14
ATOM     14  C   UNL     1       6.951   5.406  17.560  0.00  0.00    +0.000 C 
BRANCH  14  15
ATOM     15  C   UNL     1       6.885   4.943  16.145  0.00  0.00    +0.000 A 
ATOM     16  N   UNL     1       6.114   3.998  15.641  0.00  0.00    +0.000 NA
ATOM     17  C   UNL     1       6.355   4.004  14.288  0.00  0.00    +0.000 A 
ATOM     18  C   UNL     1       5.783   3.226  13.270  0.00  0.00    +0.000 A 
ATOM     19  C   UNL     1       6.200   3.433  11.949  0.00  0.00    +0.000 A 
ATOM     20  C   UNL     1       7.169   4.393  11.646  0.00  0.00    +0.000 A 
ATOM     21  C   UNL     1       7.749   5.183  12.647  0.00  0.00    +0.000 A 
ATOM     22  C   UNL     1       7.310   4.957  13.955  0.00  0.00    +0.000 A 
ATOM     23  N   UNL     1       7.633   5.539  15.156  0.00  0.00    +0.000 N 
ATOM     24  H   UNL     1       8.290   6.296  15.284  0.00  0.00    +0.000 HD
ENDBRANCH  14  15
ENDBRANCH   3  14
TORSDOF 3
ENDMDL
MODEL 2
REMARK VINA RESULT:      -8.0      0.291      1.257
REMARK  Name = 
REMARK  3 active torsions:
REMARK  status: ('A' for Active; 'I' for Inactive)
REMARK    1  A    between atoms: C_2  and  C_14
REMARK    2  A    between atoms: N_3  and  C_4
REMARK    3  A    between atoms: C_4  and  C_5
REMARK                            x       y       z     vdW  Elec       q    Type
REMARK                         _______ _______ _______ _____ _____    ______ ____
ROOT
ATOM      1  O   UNL     1       4.474   7.086  17.445  0.00  0.00    +0.000 OA
ATOM      2  C   UNL     1       4.549   6.078  18.143  0.00  0.00    +0.000 C 
ATOM      3  N   UNL     1       5.718   5.370  18.279  0.00  0.00    +0.000 N 
ATOM      4  H   UNL     1       5.713   4.459  18.727  0.00  0.00    +0.000 HD
ENDROOT
BRANCH   2   5
ATOM      5  C   UNL     1       3.399   5.575  18.866  0.00  0.00    +0.000 A 
ATOM      6  C   UNL     1       2.637   6.282  19.835  0.00  0.00    +0.000 A 
ATOM      7  N   UNL     1       1.629   5.562  20.339  0.00  0.00    +0.000 NA
ATOM      8  N   UNL     1       1.746   4.394  19.692  0.00  0.00    +0.000 N 
ATOM      9  C   UNL     1       2.813   4.323  18.833  0.00  0.00    +0.000 A 
ATOM     10  O   UNL     1       3.108   3.217  18.142  0.00  0.00    +0.000 OA
ATOM     11  C   UNL     1       2.494   2.014  18.632  0.00  0.00    +0.000 C 
ATOM     12  C   UNL     1       1.004   2.220  18.886  0.00  0.00    +0.000 C 
ATOM     13  C   UNL     1       0.830   3.302  19.944  0.00  0.00    +0.000 C 
ENDBRANCH   2   5
BRANCH   3  14
ATOM     14  C   UNL     1       6.890   5.778  17.549  0.00  0.00    +0.000 C 
BRANCH  14  15
ATOM     15  C   UNL     1       6.803   5.360  16.122  0.00  0.00    +0.000 A 
ATOM     16  N   UNL     1       7.637   5.656  15.142  0.00  0.00    +0.000 NA
ATOM     17  C   UNL     1       7.178   4.968  14.045  0.00  0.00    +0.000 A 
ATOM     18  C   UNL     1       7.703   4.897  12.745  0.00  0.00    +0.000 A 
ATOM     19  C   UNL     1       7.044   4.108  11.794  0.00  0.00    +0.000 A 
ATOM     20  C   UNL     1       5.883   3.406  12.127  0.00  0.00    +0.000 A 
ATOM     21  C   UNL     1       5.345   3.459  13.419  0.00  0.00    +0.000 A 
ATOM     22  C   UNL     1       6.028   4.251  14.348  0.00  0.00    +0.000 A 
ATOM     23  N   UNL     1       5.808   4.520  15.677  0.00  0.00    +0.000 N 
ATOM     24  H   UNL     1       5.057   4.141  16.237  0.00  0.00    +0.000 HD
ENDBRANCH  14  15
ENDBRANCH   3  14
TORSDOF 3
ENDMDL
MODEL 3
REMARK VINA RESULT:      -7.6      1.234      2.023
REMARK  Name = 
REMARK  3 active torsions:
REMARK  status: ('A' for Active; 'I' for Inactive)
REMARK    1  A    between atoms: C_2  and  C_14
REMARK    2  A    between atoms: N_3  and  C_4
REMARK    3  A    between atoms: C_4  and  C_5
REMARK                            x       y       z     vdW  Elec       q    Type
REMARK                         _______ _______ _______ _____ _____    ______ ____
ROOT
ATOM      1  O   UNL     1       4.189   6.090  17.092  0.00  0.00    +0.000 OA
ATOM      2  C   UNL     1       4.208   5.036  17.723  0.00  0.00    +0.000 C 
ATOM      3  N   UNL     1       5.380   4.398  18.043  0.00  0.00    +0.000 N 
ATOM      4  H   UNL     1       5.361   3.455  18.421  0.00  0.00    +0.000 HD
ENDROOT
BRANCH   2   5
ATOM      5  C   UNL     1       2.983   4.403  18.167  0.00  0.00    +0.000 A 
ATOM      6  C   UNL     1       1.847   4.110  17.367  0.00  0.00    +0.000 A 
ATOM      7  N   UNL     1       0.859   3.521  18.050  0.00  0.00    +0.000 NA
ATOM      8  N   UNL     1       1.364   3.437  19.289  0.00  0.00    +0.000 N 
ATOM      9  C   UNL     1       2.611   3.989  19.434  0.00  0.00    +0.000 A 
ATOM     10  O   UNL     1       3.245   4.036  20.610  0.00  0.00    +0.000 OA
ATOM     11  C   UNL     1       2.406   3.835  21.759  0.00  0.00    +0.000 C 
ATOM     12  C   UNL     1       1.505   2.618  21.577  0.00  0.00    +0.000 C 
ATOM     13  C   UNL     1       0.603   2.849  20.371  0.00  0.00    +0.000 C 
ENDBRANCH   2   5
BRANCH   3  14
ATOM     14  C   UNL     1       6.636   4.939  17.591  0.00  0.00    +0.000 C 
BRANCH  14  15
ATOM     15  C   UNL     1       6.752   4.848  16.108  0.00  0.00    +0.000 A 
ATOM     16  N   UNL     1       7.550   5.541  15.318  0.00  0.00    +0.000 NA
ATOM     17  C   UNL     1       7.353   5.036  14.055  0.00  0.00    +0.000 A 
ATOM     18  C   UNL     1       7.966   5.384  12.842  0.00  0.00    +0.000 A 
ATOM     19  C   UNL     1       7.591   4.704  11.677  0.00  0.00    +0.000 A 
ATOM     20  C   UNL     1       6.621   3.699  11.716  0.00  0.00    +0.000 A 
ATOM     21  C   UNL     1       6.000   3.332  12.917  0.00  0.00    +0.000 A 
ATOM     22  C   UNL     1       6.399   4.026  14.064  0.00  0.00    +0.000 A 
ATOM     23  N   UNL     1       6.030   3.927  15.383  0.00  0.00    +0.000 N 
ATOM     24  H   UNL     1       5.361   3.270  15.759  0.00  0.00    +0.000 HD
ENDBRANCH  14  15
ENDBRANCH   3  14
TORSDOF 3
ENDMDL
MODEL 4
REMARK VINA RESULT:      -7.5      3.998      7.619
REMARK  Name = 
REMARK  3 active torsions:
REMARK  status: ('A' for Active; 'I' for Inactive)
REMARK    1  A    between atoms: C_2  and  C_14
REMARK    2  A    between atoms: N_3  and  C_4
REMARK    3  A    between atoms: C_4  and  C_5
REMARK                            x       y       z     vdW  Elec       q    Type
REMARK                         _______ _______ _______ _____ _____    ______ ____
ROOT
ATOM      1  O   UNL     1       4.353   6.771  17.005  0.00  0.00    +0.000 OA
ATOM      2  C   UNL     1       3.640   6.486  17.964  0.00  0.00    +0.000 C 
ATOM      3  N   UNL     1       2.619   7.304  18.384  0.00  0.00    +0.000 N 
ATOM      4  H   UNL     1       2.154   7.126  19.268  0.00  0.00    +0.000 HD
ENDROOT
BRANCH   2   5
ATOM      5  C   UNL     1       3.838   5.262  18.713  0.00  0.00    +0.000 A 
ATOM      6  C   UNL     1       5.017   4.470  18.737  0.00  0.00    +0.000 A 
ATOM      7  N   UNL     1       4.911   3.391  19.519  0.00  0.00    +0.000 NA
ATOM      8  N   UNL     1       3.663   3.492  19.997  0.00  0.00    +0.000 N 
ATOM      9  C   UNL     1       2.955   4.564  19.516  0.00  0.00    +0.000 A 
ATOM     10  O   UNL     1       1.680   4.792  19.849  0.00  0.00    +0.000 OA
ATOM     11  C   UNL     1       0.991   3.666  20.415  0.00  0.00    +0.000 C 
ATOM     12  C   UNL     1       1.820   3.006  21.512  0.00  0.00    +0.000 C 
ATOM     13  C   UNL     1       3.124   2.504  20.907  0.00  0.00    +0.000 C 
ENDBRANCH   2   5
BRANCH   3  14
ATOM     14  C   UNL     1       2.394   8.562  17.722  0.00  0.00    +0.000 C 
BRANCH  14  15
ATOM     15  C   UNL     1       1.349   9.356  18.426  0.00  0.00    +0.000 A 
ATOM     16  N   UNL     1       1.172   9.481  19.728  0.00  0.00    +0.000 NA
ATOM     17  C   UNL     1       0.144  10.380  19.878  0.00  0.00    +0.000 A 
ATOM     18  C   UNL     1      -0.433  10.899  21.048  0.00  0.00    +0.000 A 
ATOM     19  C   UNL     1      -1.480  11.822  20.931  0.00  0.00    +0.000 A 
ATOM     20  C   UNL     1      -1.948  12.219  19.676  0.00  0.00    +0.000 A 
ATOM     21  C   UNL     1      -1.383  11.717  18.496  0.00  0.00    +0.000 A 
ATOM     22  C   UNL     1      -0.337  10.801  18.644  0.00  0.00    +0.000 A 
ATOM     23  N   UNL     1       0.446  10.132  17.736  0.00  0.00    +0.000 N 
ATOM     24  H   UNL     1       0.384  10.218  16.731  0.00  0.00    +0.000 HD
ENDBRANCH  14  15
ENDBRANCH   3  14
TORSDOF 3
ENDMDL
MODEL 5
REMARK VINA RESULT:      -7.5      3.843      8.147
REMARK  Name = 
REMARK  3 active torsions:
REMARK  status: ('A' for Active; 'I' for Inactive)
REMARK    1  A    between atoms: C_2  and  C_14
REMARK    2  A    between atoms: N_3  and  C_4
REMARK    3  A    between atoms: C_4  and  C_5
REMARK                            x       y       z     vdW  Elec       q    Type
REMARK                         _______ _______ _______ _____ _____    ______ ____
ROOT
ATOM      1  O   UNL     1       3.954   7.237  17.305  0.00  0.00    +0.000 OA
ATOM      2  C   UNL     1       3.357   6.756  18.264  0.00  0.00    +0.000 C 
ATOM      3  N   UNL     1       2.299   7.397  18.862  0.00  0.00    +0.000 N 
ATOM      4  H   UNL     1       1.930   7.057  19.745  0.00  0.00    +0.000 HD
ENDROOT
BRANCH   2   5
ATOM      5  C   UNL     1       3.739   5.476  18.824  0.00  0.00    +0.000 A 
ATOM      6  C   UNL     1       4.975   4.805  18.628  0.00  0.00    +0.000 A 
ATOM      7  N   UNL     1       5.047   3.635  19.271  0.00  0.00    +0.000 NA
ATOM      8  N   UNL     1       3.856   3.556  19.879  0.00  0.00    +0.000 N 
ATOM      9  C   UNL     1       3.011   4.604  19.613  0.00  0.00    +0.000 A 
ATOM     10  O   UNL     1       1.767   4.666  20.099  0.00  0.00    +0.000 OA
ATOM     11  C   UNL     1       1.241   3.418  20.579  0.00  0.00    +0.000 C 
ATOM     12  C   UNL     1       2.239   2.715  21.493  0.00  0.00    +0.000 C 
ATOM     13  C   UNL     1       3.506   2.418  20.702  0.00  0.00    +0.000 C 
ENDBRANCH   2   5
BRANCH   3  14
ATOM     14  C   UNL     1       1.894   8.697  18.394  0.00  0.00    +0.000 C 
BRANCH  14  15
ATOM     15  C   UNL     1       1.142   9.433  19.448  0.00  0.00    +0.000 A 
ATOM     16  N   UNL     1       0.532  10.598  19.339  0.00  0.00    +0.000 NA
ATOM     17  C   UNL     1      -0.087  10.808  20.548  0.00  0.00    +0.000 A 
ATOM     18  C   UNL     1      -0.898  11.873  20.969  0.00  0.00    +0.000 A 
ATOM     19  C   UNL     1      -1.422  11.848  22.268  0.00  0.00    +0.000 A 
ATOM     20  C   UNL     1      -1.143  10.786  23.132  0.00  0.00    +0.000 A 
ATOM     21  C   UNL     1      -0.341   9.711  22.730  0.00  0.00    +0.000 A 
ATOM     22  C   UNL     1       0.165   9.762  21.427  0.00  0.00    +0.000 A 
ATOM     23  N   UNL     1       0.952   8.900  20.704  0.00  0.00    +0.000 N 
ATOM     24  H   UNL     1       1.308   8.013  21.030  0.00  0.00    +0.000 HD
ENDBRANCH  14  15
ENDBRANCH   3  14
TORSDOF 3
ENDMDL
MODEL 6
REMARK VINA RESULT:      -7.3      5.087      8.122
REMARK  Name = 
REMARK  3 active torsions:
REMARK  status: ('A' for Active; 'I' for Inactive)
REMARK    1  A    between atoms: C_2  and  C_14
REMARK    2  A    between atoms: N_3  and  C_4
REMARK    3  A    between atoms: C_4  and  C_5
REMARK                            x       y       z     vdW  Elec       q    Type
REMARK                         _______ _______ _______ _____ _____    ______ ____
ROOT
ATOM      1  O   UNL     1       1.758   7.538  20.491  0.00  0.00    +0.000 OA
ATOM      2  C   UNL     1       2.026   7.793  19.319  0.00  0.00    +0.000 C 
ATOM      3  N   UNL     1       1.619   8.956  18.714  0.00  0.00    +0.000 N 
ATOM      4  H   UNL     1       1.713   9.068  17.709  0.00  0.00    +0.000 HD
ENDROOT
BRANCH   2   5
ATOM      5  C   UNL     1       2.790   6.871  18.504  0.00  0.00    +0.000 A 
ATOM      6  C   UNL     1       3.853   7.207  17.623  0.00  0.00    +0.000 A 
ATOM      7  N   UNL     1       4.375   6.146  16.999  0.00  0.00    +0.000 NA
ATOM      8  N   UNL     1       3.645   5.130  17.480  0.00  0.00    +0.000 N 
ATOM      9  C   UNL     1       2.651   5.504  18.348  0.00  0.00    +0.000 A 
ATOM     10  O   UNL     1       1.798   4.627  18.887  0.00  0.00    +0.000 OA
ATOM     11  C   UNL     1       1.733   3.357  18.219  0.00  0.00    +0.000 C 
ATOM     12  C   UNL     1       3.128   2.799  17.958  0.00  0.00    +0.000 C 
ATOM     13  C   UNL     1       3.883   3.767  17.055  0.00  0.00    +0.000 C 
ENDBRANCH   2   5
BRANCH   3  14
ATOM     14  C   UNL     1       0.810   9.897  19.444  0.00  0.00    +0.000 C 
BRANCH  14  15
ATOM     15  C   UNL     1      -0.473  10.161  18.736  0.00  0.00    +0.000 A 
ATOM     16  N   UNL     1      -1.509  10.853  19.174  0.00  0.00    +0.000 NA
ATOM     17  C   UNL     1      -2.402  10.884  18.130  0.00  0.00    +0.000 A 
ATOM     18  C   UNL     1      -3.655  11.509  18.039  0.00  0.00    +0.000 A 
ATOM     19  C   UNL     1      -4.379  11.396  16.844  0.00  0.00    +0.000 A 
ATOM     20  C   UNL     1      -3.869  10.673  15.764  0.00  0.00    +0.000 A 
ATOM     21  C   UNL     1      -2.618  10.046  15.832  0.00  0.00    +0.000 A 
ATOM     22  C   UNL     1      -1.917  10.180  17.035  0.00  0.00    +0.000 A 
ATOM     23  N   UNL     1      -0.688   9.727  17.447  0.00  0.00    +0.000 N 
ATOM     24  H   UNL     1      -0.042   9.189  16.888  0.00  0.00    +0.000 HD
ENDBRANCH  14  15
ENDBRANCH   3  14
TORSDOF 3
ENDMDL
MODEL 7
REMARK VINA RESULT:      -7.3      5.116      7.616
REMARK  Name = 
REMARK  3 active torsions:
REMARK  status: ('A' for Active; 'I' for Inactive)
REMARK    1  A    between atoms: C_2  and  C_14
REMARK    2  A    between atoms: N_3  and  C_4
REMARK    3  A    between atoms: C_4  and  C_5
REMARK                            x       y       z     vdW  Elec       q    Type
REMARK                         _______ _______ _______ _____ _____    ______ ____
ROOT
ATOM      1  O   UNL     1       1.368   9.372  20.494  0.00  0.00    +0.000 OA
ATOM      2  C   UNL     1       0.844   9.528  19.394  0.00  0.00    +0.000 C 
ATOM      3  N   UNL     1       1.363   8.969  18.252  0.00  0.00    +0.000 N 
ATOM      4  H   UNL     1       1.006   9.244  17.342  0.00  0.00    +0.000 HD
ENDROOT
BRANCH   2   5
ATOM      5  C   UNL     1      -0.360  10.318  19.238  0.00  0.00    +0.000 A 
ATOM      6  C   UNL     1      -0.890  11.241  20.179  0.00  0.00    +0.000 A 
ATOM      7  N   UNL     1      -2.018  11.827  19.765  0.00  0.00    +0.000 NA
ATOM      8  N   UNL     1      -2.211  11.278  18.557  0.00  0.00    +0.000 N 
ATOM      9  C   UNL     1      -1.279  10.334  18.205  0.00  0.00    +0.000 A 
ATOM     10  O   UNL     1      -1.344   9.653  17.057  0.00  0.00    +0.000 OA
ATOM     11  C   UNL     1      -2.625   9.681  16.407  0.00  0.00    +0.000 C 
ATOM     12  C   UNL     1      -3.171  11.103  16.326  0.00  0.00    +0.000 C 
ATOM     13  C   UNL     1      -3.350  11.641  17.740  0.00  0.00    +0.000 C 
ENDBRANCH   2   5
BRANCH   3  14
ATOM     14  C   UNL     1       2.587   8.214  18.318  0.00  0.00    +0.000 C 
BRANCH  14  15
ATOM     15  C   UNL     1       2.329   6.818  18.770  0.00  0.00    +0.000 A 
ATOM     16  N   UNL     1       2.086   5.759  18.020  0.00  0.00    +0.000 NA
ATOM     17  C   UNL     1       2.005   4.699  18.891  0.00  0.00    +0.000 A 
ATOM     18  C   UNL     1       1.793   3.337  18.629  0.00  0.00    +0.000 A 
ATOM     19  C   UNL     1       1.760   2.441  19.706  0.00  0.00    +0.000 A 
ATOM     20  C   UNL     1       1.930   2.892  21.017  0.00  0.00    +0.000 A 
ATOM     21  C   UNL     1       2.148   4.246  21.300  0.00  0.00    +0.000 A 
ATOM     22  C   UNL     1       2.180   5.116  20.204  0.00  0.00    +0.000 A 
ATOM     23  N   UNL     1       2.382   6.470  20.101  0.00  0.00    +0.000 N 
ATOM     24  H   UNL     1       2.565   7.098  20.871  0.00  0.00    +0.000 HD
ENDBRANCH  14  15
ENDBRANCH   3  14
TORSDOF 3
ENDMDL
MODEL 8
REMARK VINA RESULT:      -7.3      5.020      8.068
REMARK  Name = 
REMARK  3 active torsions:
REMARK  status: ('A' for Active; 'I' for Inactive)
REMARK    1  A    between atoms: C_2  and  C_14
REMARK    2  A    between atoms: N_3  and  C_4
REMARK    3  A    between atoms: C_4  and  C_5
REMARK                            x       y       z     vdW  Elec       q    Type
REMARK                         _______ _______ _______ _____ _____    ______ ____
ROOT
ATOM      1  O   UNL     1       2.508   9.183  17.384  0.00  0.00    +0.000 OA
ATOM      2  C   UNL     1       2.257   8.438  18.327  0.00  0.00    +0.000 C 
ATOM      3  N   UNL     1       1.495   8.844  19.395  0.00  0.00    +0.000 N 
ATOM      4  H   UNL     1       1.438   8.268  20.229  0.00  0.00    +0.000 HD
ENDROOT
BRANCH   2   5
ATOM      5  C   UNL     1       2.755   7.078  18.367  0.00  0.00    +0.000 A 
ATOM      6  C   UNL     1       3.688   6.496  17.468  0.00  0.00    +0.000 A 
ATOM      7  N   UNL     1       3.963   5.218  17.750  0.00  0.00    +0.000 NA
ATOM      8  N   UNL     1       3.205   4.982  18.830  0.00  0.00    +0.000 N 
ATOM      9  C   UNL     1       2.424   6.041  19.219  0.00  0.00    +0.000 A 
ATOM     10  O   UNL     1       1.573   5.966  20.247  0.00  0.00    +0.000 OA
ATOM     11  C   UNL     1       1.241   4.632  20.664  0.00  0.00    +0.000 C 
ATOM     12  C   UNL     1       2.493   3.776  20.822  0.00  0.00    +0.000 C 
ATOM     13  C   UNL     1       3.199   3.686  19.475  0.00  0.00    +0.000 C 
ENDBRANCH   2   5
BRANCH   3  14
ATOM     14  C   UNL     1       1.009  10.198  19.452  0.00  0.00    +0.000 C 
BRANCH  14  15
ATOM     15  C   UNL     1      -0.317  10.317  18.784  0.00  0.00    +0.000 A 
ATOM     16  N   UNL     1      -1.425  10.840  19.276  0.00  0.00    +0.000 NA
ATOM     17  C   UNL     1      -2.342  10.798  18.254  0.00  0.00    +0.000 A 
ATOM     18  C   UNL     1      -3.670  11.250  18.218  0.00  0.00    +0.000 A 
ATOM     19  C   UNL     1      -4.403  11.096  17.035  0.00  0.00    +0.000 A 
ATOM     20  C   UNL     1      -3.829  10.500  15.909  0.00  0.00    +0.000 A 
ATOM     21  C   UNL     1      -2.504  10.046  15.922  0.00  0.00    +0.000 A 
ATOM     22  C   UNL     1      -1.795  10.218  17.116  0.00  0.00    +0.000 A 
ATOM     23  N   UNL     1      -0.506   9.918  17.480  0.00  0.00    +0.000 N 
ATOM     24  H   UNL     1       0.192   9.500  16.882  0.00  0.00    +0.000 HD
ENDBRANCH  14  15
ENDBRANCH   3  14
TORSDOF 3
ENDMDL
MODEL 9
REMARK VINA RESULT:      -7.3      5.101      8.307
REMARK  Name = 
REMARK  3 active torsions:
REMARK  status: ('A' for Active; 'I' for Inactive)
REMARK    1  A    between atoms: C_2  and  C_14
REMARK    2  A    between atoms: N_3  and  C_4
REMARK    3  A    between atoms: C_4  and  C_5
REMARK                            x       y       z     vdW  Elec       q    Type
REMARK                         _______ _______ _______ _____ _____    ______ ____
ROOT
ATOM      1  O   UNL     1       1.412   8.378  21.463  0.00  0.00    +0.000 OA
ATOM      2  C   UNL     1       1.637   8.069  20.295  0.00  0.00    +0.000 C 
ATOM      3  N   UNL     1       1.424   8.941  19.255  0.00  0.00    +0.000 N 
ATOM      4  H   UNL     1       1.464   8.609  18.296  0.00  0.00    +0.000 HD
ENDROOT
BRANCH   2   5
ATOM      5  C   UNL     1       2.142   6.757  19.948  0.00  0.00    +0.000 A 
ATOM      6  C   UNL     1       1.876   5.542  20.634  0.00  0.00    +0.000 A 
ATOM      7  N   UNL     1       2.480   4.484  20.084  0.00  0.00    +0.000 NA
ATOM      8  N   UNL     1       3.134   5.021  19.045  0.00  0.00    +0.000 N 
ATOM      9  C   UNL     1       3.009   6.383  18.937  0.00  0.00    +0.000 A 
ATOM     10  O   UNL     1       3.632   7.089  17.988  0.00  0.00    +0.000 OA
ATOM     11  C   UNL     1       4.722   6.411  17.345  0.00  0.00    +0.000 C 
ATOM     12  C   UNL     1       4.321   5.003  16.919  0.00  0.00    +0.000 C 
ATOM     13  C   UNL     1       3.937   4.205  18.159  0.00  0.00    +0.000 C 
ENDBRANCH   2   5
BRANCH   3  14
ATOM     14  C   UNL     1       0.874  10.245  19.517  0.00  0.00    +0.000 C 
BRANCH  14  15
ATOM     15  C   UNL     1      -0.433  10.422  18.823  0.00  0.00    +0.000 A 
ATOM     16  N   UNL     1      -1.503  11.054  19.267  0.00  0.00    +0.000 NA
ATOM     17  C   UNL     1      -2.410  11.019  18.235  0.00  0.00    +0.000 A 
ATOM     18  C   UNL     1      -3.699  11.566  18.153  0.00  0.00    +0.000 A 
ATOM     19  C   UNL     1      -4.429  11.396  16.970  0.00  0.00    +0.000 A 
ATOM     20  C   UNL     1      -3.889  10.693  15.890  0.00  0.00    +0.000 A 
ATOM     21  C   UNL     1      -2.602  10.144  15.949  0.00  0.00    +0.000 A 
ATOM     22  C   UNL     1      -1.896  10.334  17.141  0.00  0.00    +0.000 A 
ATOM     23  N   UNL     1      -0.637   9.961  17.542  0.00  0.00    +0.000 N 
ATOM     24  H   UNL     1       0.035   9.457  16.980  0.00  0.00    +0.000 HD
ENDBRANCH  14  15
ENDBRANCH   3  14
TORSDOF 3
ENDMDL
