MODEL 1
REMARK VINA RESULT:      -8.0      0.000      0.000
REMARK  Name = 
REMARK  9 active torsions:
REMARK  status: ('A' for Active; 'I' for Inactive)
REMARK    1  A    between atoms: C_1  and  C_2
REMARK    2  A    between atoms: C_2  and  C_3
REMARK    3  A    between atoms: C_3  and  S_4
REMARK    4  A    between atoms: S_4  and  N_7
REMARK    5  A    between atoms: N_7  and  C_8
REMARK    6  A    between atoms: C_8  and  C_9
REMARK    7  A    between atoms: N_11  and  C_12
REMARK    8  A    between atoms: C_18  and  C_19
REMARK    9  A    between atoms: C_19  and  C_20
REMARK                            x       y       z     vdW  Elec       q    Type
REMARK                         _______ _______ _______ _____ _____    ______ ____
ROOT
ATOM      1  C   UNL     1       1.747   5.688  20.612  0.00  0.00    +0.000 A 
ATOM      2  C   UNL     1       0.773   4.806  20.145  0.00  0.00    +0.000 A 
ATOM      3  C   UNL     1       1.125   3.621  19.498  0.00  0.00    +0.000 A 
ATOM      4  C   UNL     1       2.466   3.311  19.289  0.00  0.00    +0.000 A 
ATOM      5  C   UNL     1       3.463   4.236  19.635  0.00  0.00    +0.000 A 
ATOM      6  C   UNL     1       3.095   5.402  20.338  0.00  0.00    +0.000 A 
ATOM      7  C   UNL     1       4.899   3.961  19.204  0.00  0.00    +0.000 C 
ATOM      8  N   UNL     1       5.274   2.544  19.387  0.00  0.00    +0.000 NA
ATOM      9  C   UNL     1       4.227   1.542  19.157  0.00  0.00    +0.000 C 
ATOM     10  C   UNL     1       2.863   2.011  18.645  0.00  0.00    +0.000 C 
ATOM     11  H   UNL     1       5.620   2.425  20.339  0.00  0.00    +0.000 HD
ENDROOT
BRANCH   1  14
ATOM     12  C   UNL     1       1.470   8.168  20.806  0.00  0.00    +0.000 C 
ATOM     13  O   UNL     1       1.653   8.465  19.626  0.00  0.00    +0.000 OA
ATOM     14  N   UNL     1       1.431   6.877  21.320  0.00  0.00    +0.000 N 
ATOM     15  H   UNL     1       1.074   6.755  22.255  0.00  0.00    +0.000 HD
BRANCH  12  16
ATOM     16  C   UNL     1       1.166   9.278  21.803  0.00  0.00    +0.000 C 
BRANCH  16  17
ATOM     17  N   UNL     1       1.074  10.626  21.215  0.00  0.00    +0.000 NA
ATOM     18  H   UNL     1       1.900  11.218  21.295  0.00  0.00    +0.000 HD
BRANCH  17  19
ATOM     19  S   UNL     1      -0.268  11.546  21.657  0.00  0.00    +0.000 S 
ATOM     20  O   UNL     1       0.273  12.838  22.010  0.00  0.00    +0.000 OA
ATOM     21  O   UNL     1      -1.018  10.758  22.602  0.00  0.00    +0.000 OA
BRANCH  19  22
ATOM     22  C   UNL     1      -1.195  11.689  20.120  0.00  0.00    +0.000 C 
BRANCH  22  24
ATOM     23  C   UNL     1      -1.238  10.507  17.887  0.00  0.00    +0.000 C 
ATOM     24  C   UNL     1      -1.218  10.347  19.397  0.00  0.00    +0.000 C 
ENDBRANCH  22  24
ENDBRANCH  19  22
ENDBRANCH  17  19
ENDBRANCH  16  17
ENDBRANCH  12  16
ENDBRANCH   1  14
BRANCH   7  25
ATOM     25  C   UNL     1       5.227   4.475  17.754  0.00  0.00    +0.000 C 
ATOM     26  C   UNL     1       5.601   3.426  16.617  0.00  0.00    +0.000 C 
ATOM     27  C   UNL     1       4.833   4.306  15.622  0.00  0.00    +0.000 C 
ATOM     28  C   UNL     1       3.976   4.778  16.813  0.00  0.00    +0.000 C 
BRANCH  25  29
ATOM     29  C   UNL     1       6.292   5.757  17.848  0.00  0.00    +0.000 A 
ATOM     30  C   UNL     1       6.065   6.956  17.136  0.00  0.00    +0.000 A 
ATOM     31  C   UNL     1       6.874   8.085  17.293  0.00  0.00    +0.000 A 
ATOM     32  C   UNL     1       7.953   8.040  18.165  0.00  0.00    +0.000 A 
ATOM     33 CL   UNL     1       8.922   9.441  18.406  0.00  0.00    +0.000 Cl
ATOM     34  C   UNL     1       8.245   6.867  18.850  0.00  0.00    +0.000 A 
ATOM     35  C   UNL     1       7.429   5.740  18.684  0.00  0.00    +0.000 A 
ENDBRANCH  25  29
ENDBRANCH   7  25
TORSDOF 8
ENDMDL
MODEL 2
REMARK VINA RESULT:      -7.9      1.016      1.458
REMARK  Name = 
REMARK  9 active torsions:
REMARK  status: ('A' for Active; 'I' for Inactive)
REMARK    1  A    between atoms: C_1  and  C_2
REMARK    2  A    between atoms: C_2  and  C_3
REMARK    3  A    between atoms: C_3  and  S_4
REMARK    4  A    between atoms: S_4  and  N_7
REMARK    5  A    between atoms: N_7  and  C_8
REMARK    6  A    between atoms: C_8  and  C_9
REMARK    7  A    between atoms: N_11  and  C_12
REMARK    8  A    between atoms: C_18  and  C_19
REMARK    9  A    between atoms: C_19  and  C_20
REMARK                            x       y       z     vdW  Elec       q    Type
REMARK                         _______ _______ _______ _____ _____    ______ ____
ROOT
ATOM      1  C   UNL     1       1.725   5.703  20.612  0.00  0.00    +0.000 A 
ATOM      2  C   UNL     1       0.757   4.815  20.143  0.00  0.00    +0.000 A 
ATOM      3  C   UNL     1       1.118   3.630  19.501  0.00  0.00    +0.000 A 
ATOM      4  C   UNL     1       2.462   3.326  19.299  0.00  0.00    +0.000 A 
ATOM      5  C   UNL     1       3.452   4.256  19.646  0.00  0.00    +0.000 A 
ATOM      6  C   UNL     1       3.076   5.423  20.345  0.00  0.00    +0.000 A 
ATOM      7  C   UNL     1       4.892   3.988  19.222  0.00  0.00    +0.000 C 
ATOM      8  N   UNL     1       5.272   2.573  19.411  0.00  0.00    +0.000 NA
ATOM      9  C   UNL     1       4.232   1.565  19.180  0.00  0.00    +0.000 C 
ATOM     10  C   UNL     1       2.868   2.026  18.661  0.00  0.00    +0.000 C 
ATOM     11  H   UNL     1       5.616   2.458  20.366  0.00  0.00    +0.000 HD
ENDROOT
BRANCH   1  14
ATOM     12  C   UNL     1       1.425   8.182  20.794  0.00  0.00    +0.000 C 
ATOM     13  O   UNL     1       1.602   8.473  19.611  0.00  0.00    +0.000 OA
ATOM     14  N   UNL     1       1.400   6.892  21.314  0.00  0.00    +0.000 N 
ATOM     15  H   UNL     1       1.047   6.772  22.251  0.00  0.00    +0.000 HD
BRANCH  12  16
ATOM     16  C   UNL     1       1.114   9.294  21.786  0.00  0.00    +0.000 C 
BRANCH  16  17
ATOM     17  N   UNL     1       1.582  10.630  21.380  0.00  0.00    +0.000 NA
ATOM     18  H   UNL     1       2.239  11.095  22.003  0.00  0.00    +0.000 HD
BRANCH  17  19
ATOM     19  S   UNL     1       0.388  11.745  20.959  0.00  0.00    +0.000 S 
ATOM     20  O   UNL     1       0.328  11.690  19.517  0.00  0.00    +0.000 OA
ATOM     21  O   UNL     1       0.698  12.967  21.656  0.00  0.00    +0.000 OA
BRANCH  19  22
ATOM     22  C   UNL     1      -1.112  11.023  21.646  0.00  0.00    +0.000 C 
BRANCH  22  24
ATOM     23  C   UNL     1      -2.684  12.329  23.133  0.00  0.00    +0.000 C 
ATOM     24  C   UNL     1      -1.367  11.578  23.043  0.00  0.00    +0.000 C 
ENDBRANCH  22  24
ENDBRANCH  19  22
ENDBRANCH  17  19
ENDBRANCH  16  17
ENDBRANCH  12  16
ENDBRANCH   1  14
BRANCH   7  25
ATOM     25  C   UNL     1       5.223   4.498  17.772  0.00  0.00    +0.000 C 
ATOM     26  C   UNL     1       5.592   3.446  16.637  0.00  0.00    +0.000 C 
ATOM     27  C   UNL     1       4.830   4.330  15.640  0.00  0.00    +0.000 C 
ATOM     28  C   UNL     1       3.974   4.808  16.830  0.00  0.00    +0.000 C 
BRANCH  25  29
ATOM     29  C   UNL     1       6.296   5.774  17.866  0.00  0.00    +0.000 A 
ATOM     30  C   UNL     1       6.083   6.969  17.142  0.00  0.00    +0.000 A 
ATOM     31  C   UNL     1       6.898   8.094  17.298  0.00  0.00    +0.000 A 
ATOM     32  C   UNL     1       7.969   8.049  18.181  0.00  0.00    +0.000 A 
ATOM     33 CL   UNL     1       8.944   9.445  18.419  0.00  0.00    +0.000 Cl
ATOM     34  C   UNL     1       8.247   6.879  18.878  0.00  0.00    +0.000 A 
ATOM     35  C   UNL     1       7.425   5.756  18.713  0.00  0.00    +0.000 A 
ENDBRANCH  25  29
ENDBRANCH   7  25
TORSDOF 8
ENDMDL
MODEL 3
REMARK VINA RESULT:      -7.7      4.669      7.326
REMARK  Name = 
REMARK  9 active torsions:
REMARK  status: ('A' for Active; 'I' for Inactive)
REMARK    1  A    between atoms: C_1  and  C_2
REMARK    2  A    between atoms: C_2  and  C_3
REMARK    3  A    between atoms: C_3  and  S_4
REMARK    4  A    between atoms: S_4  and  N_7
REMARK    5  A    between atoms: N_7  and  C_8
REMARK    6  A    between atoms: C_8  and  C_9
REMARK    7  A    between atoms: N_11  and  C_12
REMARK    8  A    between atoms: C_18  and  C_19
REMARK    9  A    between atoms: C_19  and  C_20
REMARK                            x       y       z     vdW  Elec       q    Type
REMARK                         _______ _______ _______ _____ _____    ______ ____
ROOT
ATOM      1  C   UNL     1       6.164   6.477  17.318  0.00  0.00    +0.000 A 
ATOM      2  C   UNL     1       6.821   5.251  17.430  0.00  0.00    +0.000 A 
ATOM      3  C   UNL     1       6.108   4.062  17.577  0.00  0.00    +0.000 A 
ATOM      4  C   UNL     1       4.716   4.085  17.636  0.00  0.00    +0.000 A 
ATOM      5  C   UNL     1       4.034   5.311  17.653  0.00  0.00    +0.000 A 
ATOM      6  C   UNL     1       4.766   6.500  17.446  0.00  0.00    +0.000 A 
ATOM      7  C   UNL     1       2.535   5.313  17.930  0.00  0.00    +0.000 C 
ATOM      8  N   UNL     1       1.837   4.221  17.221  0.00  0.00    +0.000 NA
ATOM      9  C   UNL     1       2.561   2.954  17.069  0.00  0.00    +0.000 C 
ATOM     10  C   UNL     1       3.930   2.807  17.737  0.00  0.00    +0.000 C 
ATOM     11  H   UNL     1       1.585   4.554  16.290  0.00  0.00    +0.000 HD
ENDROOT
BRANCH   1  14
ATOM     12  C   UNL     1       7.891   8.194  17.897  0.00  0.00    +0.000 C 
ATOM     13  O   UNL     1       8.460   7.582  18.800  0.00  0.00    +0.000 OA
ATOM     14  N   UNL     1       6.852   7.701  17.116  0.00  0.00    +0.000 N 
ATOM     15  H   UNL     1       6.609   8.215  16.282  0.00  0.00    +0.000 HD
BRANCH  12  16
ATOM     16  C   UNL     1       8.399   9.577  17.513  0.00  0.00    +0.000 C 
BRANCH  16  17
ATOM     17  N   UNL     1       9.200  10.249  18.552  0.00  0.00    +0.000 NA
ATOM     18  H   UNL     1       8.842  10.207  19.505  0.00  0.00    +0.000 HD
BRANCH  17  19
ATOM     19  S   UNL     1       9.649  11.844  18.235  0.00  0.00    +0.000 S 
ATOM     20  O   UNL     1       8.538  12.397  17.496  0.00  0.00    +0.000 OA
ATOM     21  O   UNL     1      10.978  11.797  17.681  0.00  0.00    +0.000 OA
BRANCH  19  22
ATOM     22  C   UNL     1       9.704  12.591  19.873  0.00  0.00    +0.000 C 
BRANCH  22  24
ATOM     23  C   UNL     1      11.157  14.642  20.137  0.00  0.00    +0.000 C 
ATOM     24  C   UNL     1      11.105  13.124  20.157  0.00  0.00    +0.000 C 
ENDBRANCH  22  24
ENDBRANCH  19  22
ENDBRANCH  17  19
ENDBRANCH  16  17
ENDBRANCH  12  16
ENDBRANCH   1  14
BRANCH   7  25
ATOM     25  C   UNL     1       2.182   5.340  19.463  0.00  0.00    +0.000 C 
ATOM     26  C   UNL     1       1.199   4.240  20.060  0.00  0.00    +0.000 C 
ATOM     27  C   UNL     1       2.060   4.234  21.331  0.00  0.00    +0.000 C 
ATOM     28  C   UNL     1       3.244   4.667  20.444  0.00  0.00    +0.000 C 
BRANCH  25  29
ATOM     29  C   UNL     1       1.783   6.898  19.911  0.00  0.00    +0.000 A 
ATOM     30  C   UNL     1       1.907   7.978  19.008  0.00  0.00    +0.000 A 
ATOM     31  C   UNL     1       1.465   9.268  19.318  0.00  0.00    +0.000 A 
ATOM     32  C   UNL     1       0.894   9.517  20.559  0.00  0.00    +0.000 A 
ATOM     33 CL   UNL     1       0.298  11.088  20.928  0.00  0.00    +0.000 Cl
ATOM     34  C   UNL     1       0.796   8.498  21.497  0.00  0.00    +0.000 A 
ATOM     35  C   UNL     1       1.244   7.209  21.178  0.00  0.00    +0.000 A 
ENDBRANCH  25  29
ENDBRANCH   7  25
TORSDOF 8
ENDMDL
MODEL 4
REMARK VINA RESULT:      -7.7      0.597      1.090
REMARK  Name = 
REMARK  9 active torsions:
REMARK  status: ('A' for Active; 'I' for Inactive)
REMARK    1  A    between atoms: C_1  and  C_2
REMARK    2  A    between atoms: C_2  and  C_3
REMARK    3  A    between atoms: C_3  and  S_4
REMARK    4  A    between atoms: S_4  and  N_7
REMARK    5  A    between atoms: N_7  and  C_8
REMARK    6  A    between atoms: C_8  and  C_9
REMARK    7  A    between atoms: N_11  and  C_12
REMARK    8  A    between atoms: C_18  and  C_19
REMARK    9  A    between atoms: C_19  and  C_20
REMARK                            x       y       z     vdW  Elec       q    Type
REMARK                         _______ _______ _______ _____ _____    ______ ____
ROOT
ATOM      1  C   UNL     1       1.707   5.697  20.592  0.00  0.00    +0.000 A 
ATOM      2  C   UNL     1       0.741   4.815  20.106  0.00  0.00    +0.000 A 
ATOM      3  C   UNL     1       1.104   3.629  19.469  0.00  0.00    +0.000 A 
ATOM      4  C   UNL     1       2.449   3.316  19.288  0.00  0.00    +0.000 A 
ATOM      5  C   UNL     1       3.440   4.240  19.653  0.00  0.00    +0.000 A 
ATOM      6  C   UNL     1       3.060   5.407  20.347  0.00  0.00    +0.000 A 
ATOM      7  C   UNL     1       4.885   3.961  19.252  0.00  0.00    +0.000 C 
ATOM      8  N   UNL     1       5.252   2.544  19.445  0.00  0.00    +0.000 NA
ATOM      9  C   UNL     1       4.208   1.544  19.195  0.00  0.00    +0.000 C 
ATOM     10  C   UNL     1       2.857   2.015  18.654  0.00  0.00    +0.000 C 
ATOM     11  H   UNL     1       5.579   2.425  20.405  0.00  0.00    +0.000 HD
ENDROOT
BRANCH   1  14
ATOM     12  C   UNL     1       1.446   8.179  20.781  0.00  0.00    +0.000 C 
ATOM     13  O   UNL     1       1.670   8.475  19.608  0.00  0.00    +0.000 OA
ATOM     14  N   UNL     1       1.379   6.887  21.291  0.00  0.00    +0.000 N 
ATOM     15  H   UNL     1       0.990   6.767  22.214  0.00  0.00    +0.000 HD
BRANCH  12  16
ATOM     16  C   UNL     1       1.119   9.290  21.770  0.00  0.00    +0.000 C 
BRANCH  16  17
ATOM     17  N   UNL     1      -0.161   9.977  21.524  0.00  0.00    +0.000 NA
ATOM     18  H   UNL     1      -0.814   9.517  20.892  0.00  0.00    +0.000 HD
BRANCH  17  19
ATOM     19  S   UNL     1      -0.065  11.601  21.079  0.00  0.00    +0.000 S 
ATOM     20  O   UNL     1       1.083  11.674  20.205  0.00  0.00    +0.000 OA
ATOM     21  O   UNL     1      -0.138  12.369  22.296  0.00  0.00    +0.000 OA
BRANCH  19  22
ATOM     22  C   UNL     1      -1.564  11.855  20.115  0.00  0.00    +0.000 C 
BRANCH  22  24
ATOM     23  C   UNL     1      -1.495  10.538  17.959  0.00  0.00    +0.000 C 
ATOM     24  C   UNL     1      -1.230  11.876  18.627  0.00  0.00    +0.000 C 
ENDBRANCH  22  24
ENDBRANCH  19  22
ENDBRANCH  17  19
ENDBRANCH  16  17
ENDBRANCH  12  16
ENDBRANCH   1  14
BRANCH   7  25
ATOM     25  C   UNL     1       5.243   4.472  17.809  0.00  0.00    +0.000 C 
ATOM     26  C   UNL     1       5.806   3.444  16.732  0.00  0.00    +0.000 C 
ATOM     27  C   UNL     1       5.008   4.204  15.664  0.00  0.00    +0.000 C 
ATOM     28  C   UNL     1       4.028   4.605  16.784  0.00  0.00    +0.000 C 
BRANCH  25  29
ATOM     29  C   UNL     1       6.148   5.871  17.925  0.00  0.00    +0.000 A 
ATOM     30  C   UNL     1       7.331   5.920  18.696  0.00  0.00    +0.000 A 
ATOM     31  C   UNL     1       8.169   7.039  18.711  0.00  0.00    +0.000 A 
ATOM     32  C   UNL     1       7.834   8.157  17.959  0.00  0.00    +0.000 A 
ATOM     33 CL   UNL     1       8.886   9.517  17.928  0.00  0.00    +0.000 Cl
ATOM     34  C   UNL     1       6.655   8.173  17.224  0.00  0.00    +0.000 A 
ATOM     35  C   UNL     1       5.820   7.048  17.217  0.00  0.00    +0.000 A 
ENDBRANCH  25  29
ENDBRANCH   7  25
TORSDOF 8
ENDMDL
MODEL 5
REMARK VINA RESULT:      -7.7      4.424      7.332
REMARK  Name = 
REMARK  9 active torsions:
REMARK  status: ('A' for Active; 'I' for Inactive)
REMARK    1  A    between atoms: C_1  and  C_2
REMARK    2  A    between atoms: C_2  and  C_3
REMARK    3  A    between atoms: C_3  and  S_4
REMARK    4  A    between atoms: S_4  and  N_7
REMARK    5  A    between atoms: N_7  and  C_8
REMARK    6  A    between atoms: C_8  and  C_9
REMARK    7  A    between atoms: N_11  and  C_12
REMARK    8  A    between atoms: C_18  and  C_19
REMARK    9  A    between atoms: C_19  and  C_20
REMARK                            x       y       z     vdW  Elec       q    Type
REMARK                         _______ _______ _______ _____ _____    ______ ____
ROOT
ATOM      1  C   UNL     1       6.219   6.604  17.331  0.00  0.00    +0.000 A 
ATOM      2  C   UNL     1       6.879   5.382  17.468  0.00  0.00    +0.000 A 
ATOM      3  C   UNL     1       6.168   4.193  17.625  0.00  0.00    +0.000 A 
ATOM      4  C   UNL     1       4.776   4.211  17.669  0.00  0.00    +0.000 A 
ATOM      5  C   UNL     1       4.089   5.434  17.659  0.00  0.00    +0.000 A 
ATOM      6  C   UNL     1       4.818   6.622  17.444  0.00  0.00    +0.000 A 
ATOM      7  C   UNL     1       2.587   5.434  17.920  0.00  0.00    +0.000 C 
ATOM      8  N   UNL     1       1.901   4.329  17.219  0.00  0.00    +0.000 NA
ATOM      9  C   UNL     1       2.632   3.063  17.094  0.00  0.00    +0.000 C 
ATOM     10  C   UNL     1       3.994   2.931  17.779  0.00  0.00    +0.000 C 
ATOM     11  H   UNL     1       1.658   4.647  16.281  0.00  0.00    +0.000 HD
ENDROOT
BRANCH   1  14
ATOM     12  C   UNL     1       7.954   8.320  17.884  0.00  0.00    +0.000 C 
ATOM     13  O   UNL     1       8.536   7.708  18.780  0.00  0.00    +0.000 OA
ATOM     14  N   UNL     1       6.903   7.827  17.118  0.00  0.00    +0.000 N 
ATOM     15  H   UNL     1       6.649   8.341  16.289  0.00  0.00    +0.000 HD
BRANCH  12  16
ATOM     16  C   UNL     1       8.458   9.703  17.493  0.00  0.00    +0.000 C 
BRANCH  16  17
ATOM     17  N   UNL     1       9.088  10.461  18.587  0.00  0.00    +0.000 NA
ATOM     18  H   UNL     1       8.753  10.270  19.530  0.00  0.00    +0.000 HD
BRANCH  17  19
ATOM     19  S   UNL     1       9.163  12.135  18.392  0.00  0.00    +0.000 S 
ATOM     20  O   UNL     1       9.047  12.665  19.730  0.00  0.00    +0.000 OA
ATOM     21  O   UNL     1       8.218  12.474  17.359  0.00  0.00    +0.000 OA
BRANCH  19  22
ATOM     22  C   UNL     1      10.839  12.405  17.789  0.00  0.00    +0.000 C 
BRANCH  22  24
ATOM     23  C   UNL     1      12.328  11.706  19.708  0.00  0.00    +0.000 C 
ATOM     24  C   UNL     1      11.736  12.870  18.931  0.00  0.00    +0.000 C 
ENDBRANCH  22  24
ENDBRANCH  19  22
ENDBRANCH  17  19
ENDBRANCH  16  17
ENDBRANCH  12  16
ENDBRANCH   1  14
BRANCH   7  25
ATOM     25  C   UNL     1       2.217   5.483  19.448  0.00  0.00    +0.000 C 
ATOM     26  C   UNL     1       1.314   4.330  20.072  0.00  0.00    +0.000 C 
ATOM     27  C   UNL     1       2.159   4.429  21.349  0.00  0.00    +0.000 C 
ATOM     28  C   UNL     1       3.316   4.924  20.459  0.00  0.00    +0.000 C 
BRANCH  25  29
ATOM     29  C   UNL     1       1.696   7.019  19.843  0.00  0.00    +0.000 A 
ATOM     30  C   UNL     1       1.355   7.362  21.171  0.00  0.00    +0.000 A 
ATOM     31  C   UNL     1       1.034   8.669  21.547  0.00  0.00    +0.000 A 
ATOM     32  C   UNL     1       1.032   9.677  20.593  0.00  0.00    +0.000 A 
ATOM     33 CL   UNL     1       0.692  11.298  21.057  0.00  0.00    +0.000 Cl
ATOM     34  C   UNL     1       1.313   9.379  19.265  0.00  0.00    +0.000 A 
ATOM     35  C   UNL     1       1.630   8.065  18.897  0.00  0.00    +0.000 A 
ENDBRANCH  25  29
ENDBRANCH   7  25
TORSDOF 8
ENDMDL
MODEL 6
REMARK VINA RESULT:      -7.6      5.165      9.625
REMARK  Name = 
REMARK  9 active torsions:
REMARK  status: ('A' for Active; 'I' for Inactive)
REMARK    1  A    between atoms: C_1  and  C_2
REMARK    2  A    between atoms: C_2  and  C_3
REMARK    3  A    between atoms: C_3  and  S_4
REMARK    4  A    between atoms: S_4  and  N_7
REMARK    5  A    between atoms: N_7  and  C_8
REMARK    6  A    between atoms: C_8  and  C_9
REMARK    7  A    between atoms: N_11  and  C_12
REMARK    8  A    between atoms: C_18  and  C_19
REMARK    9  A    between atoms: C_19  and  C_20
REMARK                            x       y       z     vdW  Elec       q    Type
REMARK                         _______ _______ _______ _____ _____    ______ ____
ROOT
ATOM      1  C   UNL     1       3.354  14.636  18.384  0.00  0.00    +0.000 A 
ATOM      2  C   UNL     1       2.537  15.759  18.249  0.00  0.00    +0.000 A 
ATOM      3  C   UNL     1       1.330  15.859  18.941  0.00  0.00    +0.000 A 
ATOM      4  C   UNL     1       0.910  14.820  19.768  0.00  0.00    +0.000 A 
ATOM      5  C   UNL     1       1.647  13.628  19.826  0.00  0.00    +0.000 A 
ATOM      6  C   UNL     1       2.892  13.564  19.166  0.00  0.00    +0.000 A 
ATOM      7  C   UNL     1       1.056  12.436  20.571  0.00  0.00    +0.000 C 
ATOM      8  N   UNL     1       0.415  12.836  21.840  0.00  0.00    +0.000 NA
ATOM      9  C   UNL     1      -0.265  14.136  21.864  0.00  0.00    +0.000 C 
ATOM     10  C   UNL     1      -0.360  14.938  20.565  0.00  0.00    +0.000 C 
ATOM     11  H   UNL     1       1.126  12.839  22.572  0.00  0.00    +0.000 HD
ENDROOT
BRANCH   1  14
ATOM     12  C   UNL     1       5.849  14.819  18.298  0.00  0.00    +0.000 C 
ATOM     13  O   UNL     1       6.051  15.104  19.478  0.00  0.00    +0.000 OA
ATOM     14  N   UNL     1       4.611  14.519  17.739  0.00  0.00    +0.000 N 
ATOM     15  H   UNL     1       4.602  14.106  16.818  0.00  0.00    +0.000 HD
BRANCH  12  16
ATOM     16  C   UNL     1       7.040  14.687  17.359  0.00  0.00    +0.000 C 
BRANCH  16  17
ATOM     17  N   UNL     1       7.756  13.402  17.450  0.00  0.00    +0.000 NA
ATOM     18  H   UNL     1       7.203  12.587  17.712  0.00  0.00    +0.000 HD
BRANCH  17  19
ATOM     19  S   UNL     1       9.164  13.394  18.378  0.00  0.00    +0.000 S 
ATOM     20  O   UNL     1       8.705  13.245  19.740  0.00  0.00    +0.000 OA
ATOM     21  O   UNL     1       9.941  14.533  17.962  0.00  0.00    +0.000 OA
BRANCH  19  22
ATOM     22  C   UNL     1       9.991  11.879  17.861  0.00  0.00    +0.000 C 
BRANCH  22  24
ATOM     23  C   UNL     1       8.668   9.789  18.378  0.00  0.00    +0.000 C 
ATOM     24  C   UNL     1       9.721  10.767  18.869  0.00  0.00    +0.000 C 
ENDBRANCH  22  24
ENDBRANCH  19  22
ENDBRANCH  17  19
ENDBRANCH  16  17
ENDBRANCH  12  16
ENDBRANCH   1  14
BRANCH   7  25
ATOM     25  C   UNL     1       0.105  11.553  19.683  0.00  0.00    +0.000 C 
ATOM     26  C   UNL     1      -1.428  11.403  20.086  0.00  0.00    +0.000 C 
ATOM     27  C   UNL     1      -1.770  11.415  18.590  0.00  0.00    +0.000 C 
ATOM     28  C   UNL     1      -0.491  12.249  18.378  0.00  0.00    +0.000 C 
BRANCH  25  29
ATOM     29  C   UNL     1       0.849  10.094  19.356  0.00  0.00    +0.000 A 
ATOM     30  C   UNL     1       1.427   9.830  18.094  0.00  0.00    +0.000 A 
ATOM     31  C   UNL     1       2.160   8.668  17.835  0.00  0.00    +0.000 A 
ATOM     32  C   UNL     1       2.325   7.723  18.839  0.00  0.00    +0.000 A 
ATOM     33 CL   UNL     1       3.272   6.317  18.547  0.00  0.00    +0.000 Cl
ATOM     34  C   UNL     1       1.733   7.917  20.081  0.00  0.00    +0.000 A 
ATOM     35  C   UNL     1       0.998   9.083  20.330  0.00  0.00    +0.000 A 
ENDBRANCH  25  29
ENDBRANCH   7  25
TORSDOF 8
ENDMDL
MODEL 7
REMARK VINA RESULT:      -7.6      1.314      1.807
REMARK  Name = 
REMARK  9 active torsions:
REMARK  status: ('A' for Active; 'I' for Inactive)
REMARK    1  A    between atoms: C_1  and  C_2
REMARK    2  A    between atoms: C_2  and  C_3
REMARK    3  A    between atoms: C_3  and  S_4
REMARK    4  A    between atoms: S_4  and  N_7
REMARK    5  A    between atoms: N_7  and  C_8
REMARK    6  A    between atoms: C_8  and  C_9
REMARK    7  A    between atoms: N_11  and  C_12
REMARK    8  A    between atoms: C_18  and  C_19
REMARK    9  A    between atoms: C_19  and  C_20
REMARK                            x       y       z     vdW  Elec       q    Type
REMARK                         _______ _______ _______ _____ _____    ______ ____
ROOT
ATOM      1  C   UNL     1       1.830   5.648  20.580  0.00  0.00    +0.000 A 
ATOM      2  C   UNL     1       0.793   4.879  20.050  0.00  0.00    +0.000 A 
ATOM      3  C   UNL     1       1.057   3.720  19.320  0.00  0.00    +0.000 A 
ATOM      4  C   UNL     1       2.372   3.323  19.090  0.00  0.00    +0.000 A 
ATOM      5  C   UNL     1       3.435   4.140  19.501  0.00  0.00    +0.000 A 
ATOM      6  C   UNL     1       3.154   5.278  20.286  0.00  0.00    +0.000 A 
ATOM      7  C   UNL     1       4.848   3.787  19.052  0.00  0.00    +0.000 C 
ATOM      8  N   UNL     1       5.111   2.335  19.133  0.00  0.00    +0.000 NA
ATOM      9  C   UNL     1       3.991   1.437  18.832  0.00  0.00    +0.000 C 
ATOM     10  C   UNL     1       2.671   2.045  18.354  0.00  0.00    +0.000 C 
ATOM     11  H   UNL     1       5.441   2.122  20.075  0.00  0.00    +0.000 HD
ENDROOT
BRANCH   1  14
ATOM     12  C   UNL     1       1.507   8.109  20.901  0.00  0.00    +0.000 C 
ATOM     13  O   UNL     1       1.470   8.443  19.717  0.00  0.00    +0.000 OA
ATOM     14  N   UNL     1       1.603   6.803  21.370  0.00  0.00    +0.000 N 
ATOM     15  H   UNL     1       1.419   6.643  22.349  0.00  0.00    +0.000 HD
BRANCH  12  16
ATOM     16  C   UNL     1       1.344   9.179  21.972  0.00  0.00    +0.000 C 
BRANCH  16  17
ATOM     17  N   UNL     1      -0.045   9.611  22.206  0.00  0.00    +0.000 NA
ATOM     18  H   UNL     1      -0.780   8.974  21.903  0.00  0.00    +0.000 HD
BRANCH  17  19
ATOM     19  S   UNL     1      -0.447  11.159  21.672  0.00  0.00    +0.000 S 
ATOM     20  O   UNL     1      -1.146  10.947  20.426  0.00  0.00    +0.000 OA
ATOM     21  O   UNL     1       0.758  11.946  21.739  0.00  0.00    +0.000 OA
BRANCH  19  22
ATOM     22  C   UNL     1      -1.613  11.736  22.918  0.00  0.00    +0.000 C 
BRANCH  22  24
ATOM     23  C   UNL     1      -3.014  13.839  22.958  0.00  0.00    +0.000 C 
ATOM     24  C   UNL     1      -2.740  12.520  22.254  0.00  0.00    +0.000 C 
ENDBRANCH  22  24
ENDBRANCH  19  22
ENDBRANCH  17  19
ENDBRANCH  16  17
ENDBRANCH  12  16
ENDBRANCH   1  14
BRANCH   7  25
ATOM     25  C   UNL     1       5.222   4.376  17.643  0.00  0.00    +0.000 C 
ATOM     26  C   UNL     1       5.802   3.409  16.519  0.00  0.00    +0.000 C 
ATOM     27  C   UNL     1       5.015   4.223  15.484  0.00  0.00    +0.000 C 
ATOM     28  C   UNL     1       4.020   4.560  16.612  0.00  0.00    +0.000 C 
BRANCH  25  29
ATOM     29  C   UNL     1       6.121   5.769  17.846  0.00  0.00    +0.000 A 
ATOM     30  C   UNL     1       7.314   5.771  18.602  0.00  0.00    +0.000 A 
ATOM     31  C   UNL     1       8.146   6.891  18.685  0.00  0.00    +0.000 A 
ATOM     32  C   UNL     1       7.795   8.057  18.018  0.00  0.00    +0.000 A 
ATOM     33 CL   UNL     1       8.839   9.423  18.070  0.00  0.00    +0.000 Cl
ATOM     34  C   UNL     1       6.605   8.118  17.303  0.00  0.00    +0.000 A 
ATOM     35  C   UNL     1       5.777   6.990  17.228  0.00  0.00    +0.000 A 
ENDBRANCH  25  29
ENDBRANCH   7  25
TORSDOF 8
ENDMDL
MODEL 8
REMARK VINA RESULT:      -7.6      1.034      1.179
REMARK  Name = 
REMARK  9 active torsions:
REMARK  status: ('A' for Active; 'I' for Inactive)
REMARK    1  A    between atoms: C_1  and  C_2
REMARK    2  A    between atoms: C_2  and  C_3
REMARK    3  A    between atoms: C_3  and  S_4
REMARK    4  A    between atoms: S_4  and  N_7
REMARK    5  A    between atoms: N_7  and  C_8
REMARK    6  A    between atoms: C_8  and  C_9
REMARK    7  A    between atoms: N_11  and  C_12
REMARK    8  A    between atoms: C_18  and  C_19
REMARK    9  A    between atoms: C_19  and  C_20
REMARK                            x       y       z     vdW  Elec       q    Type
REMARK                         _______ _______ _______ _____ _____    ______ ____
ROOT
ATOM      1  C   UNL     1       1.652   5.707  20.513  0.00  0.00    +0.000 A 
ATOM      2  C   UNL     1       0.739   4.738  20.093  0.00  0.00    +0.000 A 
ATOM      3  C   UNL     1       1.171   3.534  19.538  0.00  0.00    +0.000 A 
ATOM      4  C   UNL     1       2.533   3.290  19.372  0.00  0.00    +0.000 A 
ATOM      5  C   UNL     1       3.467   4.293  19.668  0.00  0.00    +0.000 A 
ATOM      6  C   UNL     1       3.019   5.481  20.282  0.00  0.00    +0.000 A 
ATOM      7  C   UNL     1       4.925   4.074  19.281  0.00  0.00    +0.000 C 
ATOM      8  N   UNL     1       5.377   2.697  19.569  0.00  0.00    +0.000 NA
ATOM      9  C   UNL     1       4.394   1.622  19.393  0.00  0.00    +0.000 C 
ATOM     10  C   UNL     1       3.016   1.974  18.828  0.00  0.00    +0.000 C 
ATOM     11  H   UNL     1       5.710   2.665  20.533  0.00  0.00    +0.000 HD
ENDROOT
BRANCH   1  14
ATOM     12  C   UNL     1       1.358   8.192  20.575  0.00  0.00    +0.000 C 
ATOM     13  O   UNL     1       1.687   8.442  19.416  0.00  0.00    +0.000 OA
ATOM     14  N   UNL     1       1.254   6.921  21.130  0.00  0.00    +0.000 N 
ATOM     15  H   UNL     1       0.784   6.835  22.018  0.00  0.00    +0.000 HD
BRANCH  12  16
ATOM     16  C   UNL     1       0.937   9.339  21.484  0.00  0.00    +0.000 C 
BRANCH  16  17
ATOM     17  N   UNL     1      -0.216  10.118  20.998  0.00  0.00    +0.000 NA
ATOM     18  H   UNL     1      -0.218  10.364  20.009  0.00  0.00    +0.000 HD
BRANCH  17  19
ATOM     19  S   UNL     1      -0.609  11.501  21.879  0.00  0.00    +0.000 S 
ATOM     20  O   UNL     1      -0.300  11.162  23.249  0.00  0.00    +0.000 OA
ATOM     21  O   UNL     1      -1.938  11.885  21.476  0.00  0.00    +0.000 OA
BRANCH  19  22
ATOM     22  C   UNL     1       0.577  12.720  21.285  0.00  0.00    +0.000 C 
BRANCH  22  24
ATOM     23  C   UNL     1       2.108  12.881  19.281  0.00  0.00    +0.000 C 
ATOM     24  C   UNL     1       0.688  12.643  19.766  0.00  0.00    +0.000 C 
ENDBRANCH  22  24
ENDBRANCH  19  22
ENDBRANCH  17  19
ENDBRANCH  16  17
ENDBRANCH  12  16
ENDBRANCH   1  14
BRANCH   7  25
ATOM     25  C   UNL     1       5.252   4.504  17.803  0.00  0.00    +0.000 C 
ATOM     26  C   UNL     1       5.659   3.395  16.737  0.00  0.00    +0.000 C 
ATOM     27  C   UNL     1       4.878   4.194  15.684  0.00  0.00    +0.000 C 
ATOM     28  C   UNL     1       4.001   4.719  16.838  0.00  0.00    +0.000 C 
BRANCH  25  29
ATOM     29  C   UNL     1       6.287   5.814  17.824  0.00  0.00    +0.000 A 
ATOM     30  C   UNL     1       5.999   6.991  17.097  0.00  0.00    +0.000 A 
ATOM     31  C   UNL     1       6.785   8.142  17.195  0.00  0.00    +0.000 A 
ATOM     32  C   UNL     1       7.901   8.143  18.021  0.00  0.00    +0.000 A 
ATOM     33 CL   UNL     1       8.843   9.573  18.189  0.00  0.00    +0.000 Cl
ATOM     34  C   UNL     1       8.252   6.993  18.717  0.00  0.00    +0.000 A 
ATOM     35  C   UNL     1       7.459   5.843  18.611  0.00  0.00    +0.000 A 
ENDBRANCH  25  29
ENDBRANCH   7  25
TORSDOF 8
ENDMDL
MODEL 9
REMARK VINA RESULT:      -7.5      0.980      1.439
REMARK  Name = 
REMARK  9 active torsions:
REMARK  status: ('A' for Active; 'I' for Inactive)
REMARK    1  A    between atoms: C_1  and  C_2
REMARK    2  A    between atoms: C_2  and  C_3
REMARK    3  A    between atoms: C_3  and  S_4
REMARK    4  A    between atoms: S_4  and  N_7
REMARK    5  A    between atoms: N_7  and  C_8
REMARK    6  A    between atoms: C_8  and  C_9
REMARK    7  A    between atoms: N_11  and  C_12
REMARK    8  A    between atoms: C_18  and  C_19
REMARK    9  A    between atoms: C_19  and  C_20
REMARK                            x       y       z     vdW  Elec       q    Type
REMARK                         _______ _______ _______ _____ _____    ______ ____
ROOT
ATOM      1  C   UNL     1       1.657   5.568  20.624  0.00  0.00    +0.000 A 
ATOM      2  C   UNL     1       0.711   4.673  20.124  0.00  0.00    +0.000 A 
ATOM      3  C   UNL     1       1.100   3.508  19.463  0.00  0.00    +0.000 A 
ATOM      4  C   UNL     1       2.452   3.231  19.272  0.00  0.00    +0.000 A 
ATOM      5  C   UNL     1       3.421   4.171  19.652  0.00  0.00    +0.000 A 
ATOM      6  C   UNL     1       3.016   5.316  20.369  0.00  0.00    +0.000 A 
ATOM      7  C   UNL     1       4.871   3.936  19.241  0.00  0.00    +0.000 C 
ATOM      8  N   UNL     1       5.273   2.524  19.406  0.00  0.00    +0.000 NA
ATOM      9  C   UNL     1       4.253   1.504  19.139  0.00  0.00    +0.000 C 
ATOM     10  C   UNL     1       2.888   1.952  18.612  0.00  0.00    +0.000 C 
ATOM     11  H   UNL     1       5.606   2.395  20.362  0.00  0.00    +0.000 HD
ENDROOT
BRANCH   1  14
ATOM     12  C   UNL     1       1.391   8.043  20.882  0.00  0.00    +0.000 C 
ATOM     13  O   UNL     1       1.662   8.376  19.728  0.00  0.00    +0.000 OA
ATOM     14  N   UNL     1       1.303   6.736  21.347  0.00  0.00    +0.000 N 
ATOM     15  H   UNL     1       0.878   6.588  22.250  0.00  0.00    +0.000 HD
BRANCH  12  16
ATOM     16  C   UNL     1       1.027   9.123  21.892  0.00  0.00    +0.000 C 
BRANCH  16  17
ATOM     17  N   UNL     1       1.494  10.476  21.542  0.00  0.00    +0.000 NA
ATOM     18  H   UNL     1       2.033  10.972  22.250  0.00  0.00    +0.000 HD
BRANCH  17  19
ATOM     19  S   UNL     1       0.331  11.536  20.937  0.00  0.00    +0.000 S 
ATOM     20  O   UNL     1       0.275  12.609  21.904  0.00  0.00    +0.000 OA
ATOM     21  O   UNL     1      -0.829  10.743  20.622  0.00  0.00    +0.000 OA
BRANCH  19  22
ATOM     22  C   UNL     1       1.078  12.145  19.415  0.00  0.00    +0.000 C 
BRANCH  22  24
ATOM     23  C   UNL     1      -0.189  14.200  18.667  0.00  0.00    +0.000 C 
ATOM     24  C   UNL     1       1.038  13.669  19.388  0.00  0.00    +0.000 C 
ENDBRANCH  22  24
ENDBRANCH  19  22
ENDBRANCH  17  19
ENDBRANCH  16  17
ENDBRANCH  12  16
ENDBRANCH   1  14
BRANCH   7  25
ATOM     25  C   UNL     1       5.212   4.483  17.807  0.00  0.00    +0.000 C 
ATOM     26  C   UNL     1       5.747   3.480  16.693  0.00  0.00    +0.000 C 
ATOM     27  C   UNL     1       4.940   4.277  15.659  0.00  0.00    +0.000 C 
ATOM     28  C   UNL     1       3.982   4.656  16.806  0.00  0.00    +0.000 C 
BRANCH  25  29
ATOM     29  C   UNL     1       6.132   5.869  17.947  0.00  0.00    +0.000 A 
ATOM     30  C   UNL     1       7.327   5.885  18.702  0.00  0.00    +0.000 A 
ATOM     31  C   UNL     1       8.176   6.995  18.735  0.00  0.00    +0.000 A 
ATOM     32  C   UNL     1       7.843   8.136  18.017  0.00  0.00    +0.000 A 
ATOM     33 CL   UNL     1       8.908   9.486  18.007  0.00  0.00    +0.000 Cl
ATOM     34  C   UNL     1       6.654   8.184  17.300  0.00  0.00    +0.000 A 
ATOM     35  C   UNL     1       5.807   7.067  17.275  0.00  0.00    +0.000 A 
ENDBRANCH  25  29
ENDBRANCH   7  25
TORSDOF 8
ENDMDL
