MODEL 1
REMARK VINA RESULT:      -7.2      0.000      0.000
REMARK  Name = 
REMARK  6 active torsions:
REMARK  status: ('A' for Active; 'I' for Inactive)
REMARK    1  A    between atoms: C_1  and  O_2
REMARK    2  A    between atoms: O_2  and  C_3
REMARK    3  A    between atoms: C_6  and  N_7
REMARK    4  A    between atoms: N_7  and  S_8
REMARK    5  A    between atoms: S_8  and  C_11
REMARK    6  A    between atoms: C_16  and  S_17
REMARK                            x       y       z     vdW  Elec       q    Type
REMARK                         _______ _______ _______ _____ _____    ______ ____
ROOT
ATOM      1  S   UNL     1       2.743   2.973  18.408  0.00  0.00    +0.000 S 
ATOM      2  O   UNL     1       2.418   2.874  17.003  0.00  0.00    +0.000 OA
ATOM      3  O   UNL     1       2.160   2.066  19.376  0.00  0.00    +0.000 OA
ENDROOT
BRANCH   1   4
ATOM      4  C   UNL     1       2.399   4.642  18.921  0.00  0.00    +0.000 A 
ATOM      5  C   UNL     1       2.186   4.898  20.286  0.00  0.00    +0.000 A 
ATOM      6  C   UNL     1       1.934   6.196  20.744  0.00  0.00    +0.000 A 
ATOM      7  C   UNL     1       1.911   7.181  19.766  0.00  0.00    +0.000 A 
ATOM      8  O   UNL     1       1.722   8.517  19.954  0.00  0.00    +0.000 OA
ATOM      9  C   UNL     1       1.809   9.045  18.693  0.00  0.00    +0.000 A 
ATOM     10  N   UNL     1       2.021   8.157  17.740  0.00  0.00    +0.000 NA
ATOM     11  C   UNL     1       2.096   6.964  18.410  0.00  0.00    +0.000 A 
ATOM     12  C   UNL     1       2.334   5.661  17.953  0.00  0.00    +0.000 A 
BRANCH   9  13
ATOM     13  S   UNL     1       1.683  10.753  18.408  0.00  0.00    +0.000 S 
ATOM     14  H   UNL     1       0.731  10.674  17.468  0.00  0.00    +0.000 HD
ENDBRANCH   9  13
ENDBRANCH   1   4
BRANCH   1  15
ATOM     15  N   UNL     1       4.420   2.900  18.508  0.00  0.00    +0.000 N 
ATOM     16  H   UNL     1       4.755   2.368  19.309  0.00  0.00    +0.000 HD
BRANCH  15  20
ATOM     17  C   UNL     1       6.846   6.018  17.036  0.00  0.00    +0.000 A 
ATOM     18  C   UNL     1       6.652   5.876  18.412  0.00  0.00    +0.000 A 
ATOM     19  C   UNL     1       5.841   4.853  18.917  0.00  0.00    +0.000 A 
ATOM     20  C   UNL     1       5.209   3.980  18.036  0.00  0.00    +0.000 A 
ATOM     21  C   UNL     1       5.377   4.132  16.661  0.00  0.00    +0.000 A 
ATOM     22  C   UNL     1       6.191   5.151  16.158  0.00  0.00    +0.000 A 
BRANCH  17  24
ATOM     23  C   UNL     1       7.824   8.094  17.611  0.00  0.00    +0.000 C 
ATOM     24  O   UNL     1       7.664   7.047  16.659  0.00  0.00    +0.000 OA
ENDBRANCH  17  24
ENDBRANCH  15  20
ENDBRANCH   1  15
TORSDOF 5
ENDMDL
MODEL 2
REMARK VINA RESULT:      -7.1      3.153      5.243
REMARK  Name = 
REMARK  6 active torsions:
REMARK  status: ('A' for Active; 'I' for Inactive)
REMARK    1  A    between atoms: C_1  and  O_2
REMARK    2  A    between atoms: O_2  and  C_3
REMARK    3  A    between atoms: C_6  and  N_7
REMARK    4  A    between atoms: N_7  and  S_8
REMARK    5  A    between atoms: S_8  and  C_11
REMARK    6  A    between atoms: C_16  and  S_17
REMARK                            x       y       z     vdW  Elec       q    Type
REMARK                         _______ _______ _______ _____ _____    ______ ____
ROOT
ATOM      1  S   UNL     1       7.359   5.625  17.395  0.00  0.00    +0.000 S 
ATOM      2  O   UNL     1       7.933   4.308  17.233  0.00  0.00    +0.000 OA
ATOM      3  O   UNL     1       8.050   6.653  18.146  0.00  0.00    +0.000 OA
ENDROOT
BRANCH   1   4
ATOM      4  C   UNL     1       5.733   5.418  18.086  0.00  0.00    +0.000 A 
ATOM      5  C   UNL     1       4.735   6.350  17.754  0.00  0.00    +0.000 A 
ATOM      6  C   UNL     1       3.434   6.221  18.253  0.00  0.00    +0.000 A 
ATOM      7  C   UNL     1       3.217   5.127  19.081  0.00  0.00    +0.000 A 
ATOM      8  O   UNL     1       2.041   4.761  19.662  0.00  0.00    +0.000 OA
ATOM      9  C   UNL     1       2.353   3.619  20.351  0.00  0.00    +0.000 A 
ATOM     10  N   UNL     1       3.617   3.251  20.260  0.00  0.00    +0.000 NA
ATOM     11  C   UNL     1       4.180   4.200  19.446  0.00  0.00    +0.000 A 
ATOM     12  C   UNL     1       5.485   4.340  18.957  0.00  0.00    +0.000 A 
BRANCH   9  13
ATOM     13  S   UNL     1       1.152   2.728  21.233  0.00  0.00    +0.000 S 
ATOM     14  H   UNL     1       1.843   2.644  22.377  0.00  0.00    +0.000 HD
ENDBRANCH   9  13
ENDBRANCH   1   4
BRANCH   1  15
ATOM     15  N   UNL     1       7.027   6.185  15.846  0.00  0.00    +0.000 N 
ATOM     16  H   UNL     1       6.607   7.113  15.832  0.00  0.00    +0.000 HD
BRANCH  15  20
ATOM     17  C   UNL     1       6.012   3.574  12.694  0.00  0.00    +0.000 A 
ATOM     18  C   UNL     1       5.138   3.739  13.771  0.00  0.00    +0.000 A 
ATOM     19  C   UNL     1       5.465   4.593  14.831  0.00  0.00    +0.000 A 
ATOM     20  C   UNL     1       6.680   5.272  14.817  0.00  0.00    +0.000 A 
ATOM     21  C   UNL     1       7.568   5.092  13.758  0.00  0.00    +0.000 A 
ATOM     22  C   UNL     1       7.239   4.243  12.698  0.00  0.00    +0.000 A 
BRANCH  17  24
ATOM     23  C   UNL     1       4.261   2.937  11.237  0.00  0.00    +0.000 C 
ATOM     24  O   UNL     1       5.585   2.722  11.714  0.00  0.00    +0.000 OA
ENDBRANCH  17  24
ENDBRANCH  15  20
ENDBRANCH   1  15
TORSDOF 5
ENDMDL
MODEL 3
REMARK VINA RESULT:      -7.1      0.158      1.039
REMARK  Name = 
REMARK  6 active torsions:
REMARK  status: ('A' for Active; 'I' for Inactive)
REMARK    1  A    between atoms: C_1  and  O_2
REMARK    2  A    between atoms: O_2  and  C_3
REMARK    3  A    between atoms: C_6  and  N_7
REMARK    4  A    between atoms: N_7  and  S_8
REMARK    5  A    between atoms: S_8  and  C_11
REMARK    6  A    between atoms: C_16  and  S_17
REMARK                            x       y       z     vdW  Elec       q    Type
REMARK                         _______ _______ _______ _____ _____    ______ ____
ROOT
ATOM      1  S   UNL     1       2.758   3.056  18.234  0.00  0.00    +0.000 S 
ATOM      2  O   UNL     1       2.555   3.050  16.802  0.00  0.00    +0.000 OA
ATOM      3  O   UNL     1       2.073   2.109  19.090  0.00  0.00    +0.000 OA
ENDROOT
BRANCH   1   4
ATOM      4  C   UNL     1       2.408   4.700  18.816  0.00  0.00    +0.000 A 
ATOM      5  C   UNL     1       2.208   4.900  20.193  0.00  0.00    +0.000 A 
ATOM      6  C   UNL     1       1.951   6.176  20.706  0.00  0.00    +0.000 A 
ATOM      7  C   UNL     1       1.910   7.200  19.768  0.00  0.00    +0.000 A 
ATOM      8  O   UNL     1       1.712   8.525  20.011  0.00  0.00    +0.000 OA
ATOM      9  C   UNL     1       1.781   9.104  18.772  0.00  0.00    +0.000 A 
ATOM     10  N   UNL     1       1.990   8.256  17.781  0.00  0.00    +0.000 NA
ATOM     11  C   UNL     1       2.081   7.038  18.402  0.00  0.00    +0.000 A 
ATOM     12  C   UNL     1       2.324   5.757  17.891  0.00  0.00    +0.000 A 
BRANCH   9  13
ATOM     13  S   UNL     1       1.639  10.820  18.557  0.00  0.00    +0.000 S 
ATOM     14  H   UNL     1       0.311  10.836  18.379  0.00  0.00    +0.000 HD
ENDBRANCH   9  13
ENDBRANCH   1   4
BRANCH   1  15
ATOM     15  N   UNL     1       4.418   2.932  18.472  0.00  0.00    +0.000 N 
ATOM     16  H   UNL     1       4.668   2.415  19.312  0.00  0.00    +0.000 HD
BRANCH  15  20
ATOM     17  C   UNL     1       6.903   6.111  17.248  0.00  0.00    +0.000 A 
ATOM     18  C   UNL     1       6.298   5.291  16.292  0.00  0.00    +0.000 A 
ATOM     19  C   UNL     1       5.479   4.225  16.682  0.00  0.00    +0.000 A 
ATOM     20  C   UNL     1       5.280   3.971  18.036  0.00  0.00    +0.000 A 
ATOM     21  C   UNL     1       5.901   4.769  18.995  0.00  0.00    +0.000 A 
ATOM     22  C   UNL     1       6.715   5.836  18.605  0.00  0.00    +0.000 A 
BRANCH  17  24
ATOM     23  C   UNL     1       7.834   8.256  17.602  0.00  0.00    +0.000 C 
ATOM     24  O   UNL     1       7.674   7.125  16.751  0.00  0.00    +0.000 OA
ENDBRANCH  17  24
ENDBRANCH  15  20
ENDBRANCH   1  15
TORSDOF 5
ENDMDL
MODEL 4
REMARK VINA RESULT:      -7.0      2.964      5.096
REMARK  Name = 
REMARK  6 active torsions:
REMARK  status: ('A' for Active; 'I' for Inactive)
REMARK    1  A    between atoms: C_1  and  O_2
REMARK    2  A    between atoms: O_2  and  C_3
REMARK    3  A    between atoms: C_6  and  N_7
REMARK    4  A    between atoms: N_7  and  S_8
REMARK    5  A    between atoms: S_8  and  C_11
REMARK    6  A    between atoms: C_16  and  S_17
REMARK                            x       y       z     vdW  Elec       q    Type
REMARK                         _______ _______ _______ _____ _____    ______ ____
ROOT
ATOM      1  S   UNL     1       7.165   6.373  17.619  0.00  0.00    +0.000 S 
ATOM      2  O   UNL     1       7.993   6.483  18.800  0.00  0.00    +0.000 OA
ATOM      3  O   UNL     1       7.065   7.465  16.673  0.00  0.00    +0.000 OA
ENDROOT
BRANCH   1   4
ATOM      4  C   UNL     1       5.525   5.939  18.156  0.00  0.00    +0.000 A 
ATOM      5  C   UNL     1       4.431   6.633  17.612  0.00  0.00    +0.000 A 
ATOM      6  C   UNL     1       3.120   6.316  17.984  0.00  0.00    +0.000 A 
ATOM      7  C   UNL     1       2.993   5.289  18.909  0.00  0.00    +0.000 A 
ATOM      8  O   UNL     1       1.834   4.771  19.404  0.00  0.00    +0.000 OA
ATOM      9  C   UNL     1       2.249   3.781  20.253  0.00  0.00    +0.000 A 
ATOM     10  N   UNL     1       3.559   3.645  20.340  0.00  0.00    +0.000 NA
ATOM     11  C   UNL     1       4.047   4.596  19.482  0.00  0.00    +0.000 A 
ATOM     12  C   UNL     1       5.360   4.926  19.119  0.00  0.00    +0.000 A 
BRANCH   9  13
ATOM     13  S   UNL     1       1.119   2.775  21.105  0.00  0.00    +0.000 S 
ATOM     14  H   UNL     1       0.175   2.778  20.154  0.00  0.00    +0.000 HD
ENDBRANCH   9  13
ENDBRANCH   1   4
BRANCH   1  15
ATOM     15  N   UNL     1       7.667   4.981  16.822  0.00  0.00    +0.000 N 
ATOM     16  H   UNL     1       8.627   4.718  17.034  0.00  0.00    +0.000 HD
BRANCH  15  20
ATOM     17  C   UNL     1       6.130   3.910  13.045  0.00  0.00    +0.000 A 
ATOM     18  C   UNL     1       7.254   4.735  13.132  0.00  0.00    +0.000 A 
ATOM     19  C   UNL     1       7.770   5.109  14.378  0.00  0.00    +0.000 A 
ATOM     20  C   UNL     1       7.146   4.666  15.541  0.00  0.00    +0.000 A 
ATOM     21  C   UNL     1       6.009   3.864  15.461  0.00  0.00    +0.000 A 
ATOM     22  C   UNL     1       5.497   3.488  14.217  0.00  0.00    +0.000 A 
BRANCH  17  24
ATOM     23  C   UNL     1       4.357   3.212  11.642  0.00  0.00    +0.000 C 
ATOM     24  O   UNL     1       5.720   3.604  11.777  0.00  0.00    +0.000 OA
ENDBRANCH  17  24
ENDBRANCH  15  20
ENDBRANCH   1  15
TORSDOF 5
ENDMDL
MODEL 5
REMARK VINA RESULT:      -7.0      2.510      5.863
REMARK  Name = 
REMARK  6 active torsions:
REMARK  status: ('A' for Active; 'I' for Inactive)
REMARK    1  A    between atoms: C_1  and  O_2
REMARK    2  A    between atoms: O_2  and  C_3
REMARK    3  A    between atoms: C_6  and  N_7
REMARK    4  A    between atoms: N_7  and  S_8
REMARK    5  A    between atoms: S_8  and  C_11
REMARK    6  A    between atoms: C_16  and  S_17
REMARK                            x       y       z     vdW  Elec       q    Type
REMARK                         _______ _______ _______ _____ _____    ______ ____
ROOT
ATOM      1  S   UNL     1       3.298   4.220  19.182  0.00  0.00    +0.000 S 
ATOM      2  O   UNL     1       3.685   3.175  20.102  0.00  0.00    +0.000 OA
ATOM      3  O   UNL     1       2.032   4.168  18.481  0.00  0.00    +0.000 OA
ENDROOT
BRANCH   1   4
ATOM      4  C   UNL     1       4.602   4.384  17.981  0.00  0.00    +0.000 A 
ATOM      5  C   UNL     1       5.909   4.628  18.434  0.00  0.00    +0.000 A 
ATOM      6  C   UNL     1       6.974   4.743  17.533  0.00  0.00    +0.000 A 
ATOM      7  C   UNL     1       6.640   4.602  16.193  0.00  0.00    +0.000 A 
ATOM      8  O   UNL     1       7.491   4.637  15.130  0.00  0.00    +0.000 OA
ATOM      9  C   UNL     1       6.677   4.429  14.047  0.00  0.00    +0.000 A 
ATOM     10  N   UNL     1       5.399   4.281  14.341  0.00  0.00    +0.000 NA
ATOM     11  C   UNL     1       5.361   4.381  15.708  0.00  0.00    +0.000 A 
ATOM     12  C   UNL     1       4.295   4.281  16.612  0.00  0.00    +0.000 A 
BRANCH   9  13
ATOM     13  S   UNL     1       7.311   4.335  12.434  0.00  0.00    +0.000 S 
ATOM     14  H   UNL     1       6.125   4.252  11.816  0.00  0.00    +0.000 HD
ENDBRANCH   9  13
ENDBRANCH   1   4
BRANCH   1  15
ATOM     15  N   UNL     1       3.410   5.663  20.037  0.00  0.00    +0.000 N 
ATOM     16  H   UNL     1       3.547   5.531  21.037  0.00  0.00    +0.000 HD
BRANCH  15  20
ATOM     17  C   UNL     1       1.413   9.129  18.703  0.00  0.00    +0.000 A 
ATOM     18  C   UNL     1       1.187   8.648  19.995  0.00  0.00    +0.000 A 
ATOM     19  C   UNL     1       1.833   7.493  20.450  0.00  0.00    +0.000 A 
ATOM     20  C   UNL     1       2.697   6.808  19.599  0.00  0.00    +0.000 A 
ATOM     21  C   UNL     1       2.906   7.268  18.300  0.00  0.00    +0.000 A 
ATOM     22  C   UNL     1       2.264   8.424  17.848  0.00  0.00    +0.000 A 
BRANCH  17  24
ATOM     23  C   UNL     1      -0.101  10.812  19.388  0.00  0.00    +0.000 C 
ATOM     24  O   UNL     1       0.734  10.268  18.371  0.00  0.00    +0.000 OA
ENDBRANCH  17  24
ENDBRANCH  15  20
ENDBRANCH   1  15
TORSDOF 5
ENDMDL
MODEL 6
REMARK VINA RESULT:      -7.0      2.915      5.082
REMARK  Name = 
REMARK  6 active torsions:
REMARK  status: ('A' for Active; 'I' for Inactive)
REMARK    1  A    between atoms: C_1  and  O_2
REMARK    2  A    between atoms: O_2  and  C_3
REMARK    3  A    between atoms: C_6  and  N_7
REMARK    4  A    between atoms: N_7  and  S_8
REMARK    5  A    between atoms: S_8  and  C_11
REMARK    6  A    between atoms: C_16  and  S_17
REMARK                            x       y       z     vdW  Elec       q    Type
REMARK                         _______ _______ _______ _____ _____    ______ ____
ROOT
ATOM      1  S   UNL     1       7.210   6.403  17.639  0.00  0.00    +0.000 S 
ATOM      2  O   UNL     1       8.029   6.526  18.824  0.00  0.00    +0.000 OA
ATOM      3  O   UNL     1       7.115   7.486  16.681  0.00  0.00    +0.000 OA
ENDROOT
BRANCH   1   4
ATOM      4  C   UNL     1       5.567   5.971  18.168  0.00  0.00    +0.000 A 
ATOM      5  C   UNL     1       4.477   6.680  17.632  0.00  0.00    +0.000 A 
ATOM      6  C   UNL     1       3.164   6.365  17.997  0.00  0.00    +0.000 A 
ATOM      7  C   UNL     1       3.030   5.326  18.909  0.00  0.00    +0.000 A 
ATOM      8  O   UNL     1       1.868   4.809  19.395  0.00  0.00    +0.000 OA
ATOM      9  C   UNL     1       2.276   3.804  20.231  0.00  0.00    +0.000 A 
ATOM     10  N   UNL     1       3.585   3.659  20.317  0.00  0.00    +0.000 NA
ATOM     11  C   UNL     1       4.080   4.619  19.473  0.00  0.00    +0.000 A 
ATOM     12  C   UNL     1       5.394   4.946  19.116  0.00  0.00    +0.000 A 
BRANCH   9  13
ATOM     13  S   UNL     1       1.138   2.793  21.067  0.00  0.00    +0.000 S 
ATOM     14  H   UNL     1       2.045   1.967  21.606  0.00  0.00    +0.000 HD
ENDBRANCH   9  13
ENDBRANCH   1   4
BRANCH   1  15
ATOM     15  N   UNL     1       7.720   5.004  16.859  0.00  0.00    +0.000 N 
ATOM     16  H   UNL     1       8.706   4.797  17.005  0.00  0.00    +0.000 HD
BRANCH  15  20
ATOM     17  C   UNL     1       5.920   3.968  13.190  0.00  0.00    +0.000 A 
ATOM     18  C   UNL     1       5.394   3.478  14.388  0.00  0.00    +0.000 A 
ATOM     19  C   UNL     1       5.986   3.803  15.614  0.00  0.00    +0.000 A 
ATOM     20  C   UNL     1       7.120   4.610  15.636  0.00  0.00    +0.000 A 
ATOM     21  C   UNL     1       7.665   5.081  14.443  0.00  0.00    +0.000 A 
ATOM     22  C   UNL     1       7.071   4.759  13.220  0.00  0.00    +0.000 A 
BRANCH  17  24
ATOM     23  C   UNL     1       5.475   2.253  11.623  0.00  0.00    +0.000 C 
ATOM     24  O   UNL     1       5.255   3.592  12.056  0.00  0.00    +0.000 OA
ENDBRANCH  17  24
ENDBRANCH  15  20
ENDBRANCH   1  15
TORSDOF 5
ENDMDL
MODEL 7
REMARK VINA RESULT:      -7.0      2.518      5.946
REMARK  Name = 
REMARK  6 active torsions:
REMARK  status: ('A' for Active; 'I' for Inactive)
REMARK    1  A    between atoms: C_1  and  O_2
REMARK    2  A    between atoms: O_2  and  C_3
REMARK    3  A    between atoms: C_6  and  N_7
REMARK    4  A    between atoms: N_7  and  S_8
REMARK    5  A    between atoms: S_8  and  C_11
REMARK    6  A    between atoms: C_16  and  S_17
REMARK                            x       y       z     vdW  Elec       q    Type
REMARK                         _______ _______ _______ _____ _____    ______ ____
ROOT
ATOM      1  S   UNL     1       3.156   4.329  19.189  0.00  0.00    +0.000 S 
ATOM      2  O   UNL     1       3.483   3.257  20.103  0.00  0.00    +0.000 OA
ATOM      3  O   UNL     1       1.911   4.325  18.449  0.00  0.00    +0.000 OA
ENDROOT
BRANCH   1   4
ATOM      4  C   UNL     1       4.501   4.472  18.032  0.00  0.00    +0.000 A 
ATOM      5  C   UNL     1       5.800   4.673  18.529  0.00  0.00    +0.000 A 
ATOM      6  C   UNL     1       6.895   4.770  17.664  0.00  0.00    +0.000 A 
ATOM      7  C   UNL     1       6.600   4.657  16.311  0.00  0.00    +0.000 A 
ATOM      8  O   UNL     1       7.484   4.683  15.276  0.00  0.00    +0.000 OA
ATOM      9  C   UNL     1       6.699   4.513  14.166  0.00  0.00    +0.000 A 
ATOM     10  N   UNL     1       5.409   4.397  14.418  0.00  0.00    +0.000 NA
ATOM     11  C   UNL     1       5.330   4.480  15.784  0.00  0.00    +0.000 A 
ATOM     12  C   UNL     1       4.235   4.397  16.652  0.00  0.00    +0.000 A 
BRANCH   9  13
ATOM     13  S   UNL     1       7.381   4.424  12.572  0.00  0.00    +0.000 S 
ATOM     14  H   UNL     1       8.624   4.777  12.924  0.00  0.00    +0.000 HD
ENDBRANCH   9  13
ENDBRANCH   1   4
BRANCH   1  15
ATOM     15  N   UNL     1       3.283   5.754  20.072  0.00  0.00    +0.000 N 
ATOM     16  H   UNL     1       3.370   5.601  21.075  0.00  0.00    +0.000 HD
BRANCH  15  20
ATOM     17  C   UNL     1       1.233   9.199  18.766  0.00  0.00    +0.000 A 
ATOM     18  C   UNL     1       2.088   8.523  17.892  0.00  0.00    +0.000 A 
ATOM     19  C   UNL     1       2.785   7.384  18.313  0.00  0.00    +0.000 A 
ATOM     20  C   UNL     1       2.635   6.932  19.621  0.00  0.00    +0.000 A 
ATOM     21  C   UNL     1       1.804   7.616  20.505  0.00  0.00    +0.000 A 
ATOM     22  C   UNL     1       1.106   8.751  20.083  0.00  0.00    +0.000 A 
BRANCH  17  24
ATOM     23  C   UNL     1      -0.311  10.957  19.113  0.00  0.00    +0.000 C 
ATOM     24  O   UNL     1       0.600  10.292  18.243  0.00  0.00    +0.000 OA
ENDBRANCH  17  24
ENDBRANCH  15  20
ENDBRANCH   1  15
TORSDOF 5
ENDMDL
MODEL 8
REMARK VINA RESULT:      -6.9      2.421      5.596
REMARK  Name = 
REMARK  6 active torsions:
REMARK  status: ('A' for Active; 'I' for Inactive)
REMARK    1  A    between atoms: C_1  and  O_2
REMARK    2  A    between atoms: O_2  and  C_3
REMARK    3  A    between atoms: C_6  and  N_7
REMARK    4  A    between atoms: N_7  and  S_8
REMARK    5  A    between atoms: S_8  and  C_11
REMARK    6  A    between atoms: C_16  and  S_17
REMARK                            x       y       z     vdW  Elec       q    Type
REMARK                         _______ _______ _______ _____ _____    ______ ____
ROOT
ATOM      1  S   UNL     1       3.655   2.741  18.897  0.00  0.00    +0.000 S 
ATOM      2  O   UNL     1       3.995   2.998  20.279  0.00  0.00    +0.000 OA
ATOM      3  O   UNL     1       3.527   1.387  18.399  0.00  0.00    +0.000 OA
ENDROOT
BRANCH   1   4
ATOM      4  C   UNL     1       4.838   3.605  17.886  0.00  0.00    +0.000 A 
ATOM      5  C   UNL     1       5.789   4.427  18.514  0.00  0.00    +0.000 A 
ATOM      6  C   UNL     1       6.754   5.111  17.768  0.00  0.00    +0.000 A 
ATOM      7  C   UNL     1       6.696   4.917  16.394  0.00  0.00    +0.000 A 
ATOM      8  O   UNL     1       7.535   5.439  15.457  0.00  0.00    +0.000 OA
ATOM      9  C   UNL     1       7.066   4.934  14.273  0.00  0.00    +0.000 A 
ATOM     10  N   UNL     1       6.005   4.158  14.390  0.00  0.00    +0.000 NA
ATOM     11  C   UNL     1       5.761   4.132  15.738  0.00  0.00    +0.000 A 
ATOM     12  C   UNL     1       4.786   3.460  16.488  0.00  0.00    +0.000 A 
BRANCH   9  13
ATOM     13  S   UNL     1       7.848   5.274  12.761  0.00  0.00    +0.000 S 
ATOM     14  H   UNL     1       6.863   6.027  12.253  0.00  0.00    +0.000 HD
ENDBRANCH   9  13
ENDBRANCH   1   4
BRANCH   1  15
ATOM     15  N   UNL     1       2.234   3.589  18.599  0.00  0.00    +0.000 N 
ATOM     16  H   UNL     1       1.795   3.342  17.714  0.00  0.00    +0.000 HD
BRANCH  15  20
ATOM     17  C   UNL     1       1.904   7.541  20.028  0.00  0.00    +0.000 A 
ATOM     18  C   UNL     1       1.470   6.475  20.820  0.00  0.00    +0.000 A 
ATOM     19  C   UNL     1       1.562   5.158  20.356  0.00  0.00    +0.000 A 
ATOM     20  C   UNL     1       2.077   4.911  19.086  0.00  0.00    +0.000 A 
ATOM     21  C   UNL     1       2.488   5.972  18.281  0.00  0.00    +0.000 A 
ATOM     22  C   UNL     1       2.399   7.287  18.747  0.00  0.00    +0.000 A 
BRANCH  17  24
ATOM     23  C   UNL     1       1.212   8.818  21.896  0.00  0.00    +0.000 C 
ATOM     24  O   UNL     1       1.773   8.782  20.587  0.00  0.00    +0.000 OA
ENDBRANCH  17  24
ENDBRANCH  15  20
ENDBRANCH   1  15
TORSDOF 5
ENDMDL
MODEL 9
REMARK VINA RESULT:      -6.8      2.406      5.696
REMARK  Name = 
REMARK  6 active torsions:
REMARK  status: ('A' for Active; 'I' for Inactive)
REMARK    1  A    between atoms: C_1  and  O_2
REMARK    2  A    between atoms: O_2  and  C_3
REMARK    3  A    between atoms: C_6  and  N_7
REMARK    4  A    between atoms: N_7  and  S_8
REMARK    5  A    between atoms: S_8  and  C_11
REMARK    6  A    between atoms: C_16  and  S_17
REMARK                            x       y       z     vdW  Elec       q    Type
REMARK                         _______ _______ _______ _____ _____    ______ ____
ROOT
ATOM      1  S   UNL     1       3.684   2.764  18.798  0.00  0.00    +0.000 S 
ATOM      2  O   UNL     1       4.055   2.974  20.179  0.00  0.00    +0.000 OA
ATOM      3  O   UNL     1       3.507   1.428  18.267  0.00  0.00    +0.000 OA
ENDROOT
BRANCH   1   4
ATOM      4  C   UNL     1       4.874   3.620  17.789  0.00  0.00    +0.000 A 
ATOM      5  C   UNL     1       5.845   4.415  18.420  0.00  0.00    +0.000 A 
ATOM      6  C   UNL     1       6.817   5.091  17.675  0.00  0.00    +0.000 A 
ATOM      7  C   UNL     1       6.744   4.917  16.299  0.00  0.00    +0.000 A 
ATOM      8  O   UNL     1       7.586   5.436  15.362  0.00  0.00    +0.000 OA
ATOM      9  C   UNL     1       7.098   4.956  14.176  0.00  0.00    +0.000 A 
ATOM     10  N   UNL     1       6.023   4.199  14.290  0.00  0.00    +0.000 NA
ATOM     11  C   UNL     1       5.789   4.159  15.640  0.00  0.00    +0.000 A 
ATOM     12  C   UNL     1       4.808   3.495  16.389  0.00  0.00    +0.000 A 
BRANCH   9  13
ATOM     13  S   UNL     1       7.874   5.303  12.662  0.00  0.00    +0.000 S 
ATOM     14  H   UNL     1       8.438   6.455  13.047  0.00  0.00    +0.000 HD
ENDBRANCH   9  13
ENDBRANCH   1   4
BRANCH   1  15
ATOM     15  N   UNL     1       2.284   3.660  18.547  0.00  0.00    +0.000 N 
ATOM     16  H   UNL     1       1.819   3.447  17.666  0.00  0.00    +0.000 HD
BRANCH  15  20
ATOM     17  C   UNL     1       1.832   7.548  20.114  0.00  0.00    +0.000 A 
ATOM     18  C   UNL     1       2.335   7.371  18.823  0.00  0.00    +0.000 A 
ATOM     19  C   UNL     1       2.501   6.087  18.291  0.00  0.00    +0.000 A 
ATOM     20  C   UNL     1       2.177   4.976  19.065  0.00  0.00    +0.000 A 
ATOM     21  C   UNL     1       1.699   5.145  20.363  0.00  0.00    +0.000 A 
ATOM     22  C   UNL     1       1.529   6.428  20.891  0.00  0.00    +0.000 A 
BRANCH  17  24
ATOM     23  C   UNL     1       1.091   9.039  21.795  0.00  0.00    +0.000 C 
ATOM     24  O   UNL     1       1.704   8.847  20.524  0.00  0.00    +0.000 OA
ENDBRANCH  17  24
ENDBRANCH  15  20
ENDBRANCH   1  15
TORSDOF 5
ENDMDL
