MODEL 1
REMARK VINA RESULT:      -9.1      0.000      0.000
REMARK  Name = 
REMARK  6 active torsions:
REMARK  status: ('A' for Active; 'I' for Inactive)
REMARK    1  A    between atoms: C_1  and  C_2
REMARK    2  A    between atoms: C_5  and  C_6
REMARK    3  A    between atoms: C_7  and  C_8
REMARK    4  A    between atoms: N_10  and  C_11
REMARK    5  A    between atoms: C_15  and  S_16
REMARK    6  A    between atoms: S_16  and  N_19
REMARK                            x       y       z     vdW  Elec       q    Type
REMARK                         _______ _______ _______ _____ _____    ______ ____
ROOT
ATOM      1  C   UNL     1       6.324   6.398  16.729  0.00  0.00    +0.000 A 
ATOM      2  C   UNL     1       6.905   5.472  15.855  0.00  0.00    +0.000 A 
ATOM      3  C   UNL     1       6.266   4.262  15.548  0.00  0.00    +0.000 A 
ATOM      4  C   UNL     1       5.029   3.959  16.103  0.00  0.00    +0.000 A 
ATOM      5  C   UNL     1       4.435   4.875  16.974  0.00  0.00    +0.000 A 
ATOM      6  C   UNL     1       5.084   6.080  17.304  0.00  0.00    +0.000 A 
ENDROOT
BRANCH   1   9
ATOM      7  C   UNL     1       7.878   7.894  18.007  0.00  0.00    +0.000 C 
ATOM      8  O   UNL     1       8.338   7.076  18.795  0.00  0.00    +0.000 OA
ATOM      9  N   UNL     1       6.911   7.654  17.045  0.00  0.00    +0.000 N 
ATOM     10  H   UNL     1       6.627   8.435  16.466  0.00  0.00    +0.000 HD
BRANCH   7  12
ATOM     11  C   UNL     1       9.039   9.740  19.092  0.00  0.00    +0.000 C 
ATOM     12  C   UNL     1       8.395   9.297  18.001  0.00  0.00    +0.000 C 
BRANCH  11  17
ATOM     13  C   UNL     1      10.012  14.363  17.848  0.00  0.00    +0.000 C 
ATOM     14  C   UNL     1      10.101  13.157  18.694  0.00  0.00    +0.000 A 
ATOM     15  C   UNL     1      10.759  12.879  19.865  0.00  0.00    +0.000 A 
ATOM     16  C   UNL     1      10.444  11.536  20.178  0.00  0.00    +0.000 A 
ATOM     17  C   UNL     1       9.600  11.046  19.184  0.00  0.00    +0.000 A 
ATOM     18  O   UNL     1       9.402  12.063  18.277  0.00  0.00    +0.000 OA
ENDBRANCH  11  17
ENDBRANCH   7  12
ENDBRANCH   1   9
BRANCH   5  19
ATOM     19  S   UNL     1       2.859   4.471  17.694  0.00  0.00    +0.000 S 
ATOM     20  O   UNL     1       2.128   5.709  17.839  0.00  0.00    +0.000 OA
ATOM     21  O   UNL     1       2.306   3.364  16.943  0.00  0.00    +0.000 OA
BRANCH  19  22
ATOM     22  N   UNL     1       3.234   3.901  19.260  0.00  0.00    +0.000 NA
ATOM     23  C   UNL     1       3.006   2.452  19.547  0.00  0.00    +0.000 C 
ATOM     24  C   UNL     1       1.535   2.155  19.860  0.00  0.00    +0.000 C 
ATOM     25  O   UNL     1       1.067   2.951  20.956  0.00  0.00    +0.000 OA
ATOM     26  C   UNL     1       1.202   4.352  20.674  0.00  0.00    +0.000 C 
ATOM     27  C   UNL     1       2.663   4.725  20.381  0.00  0.00    +0.000 C 
ENDBRANCH  19  22
ENDBRANCH   5  19
TORSDOF 5
ENDMDL
MODEL 2
REMARK VINA RESULT:      -9.1      1.295      1.795
REMARK  Name = 
REMARK  6 active torsions:
REMARK  status: ('A' for Active; 'I' for Inactive)
REMARK    1  A    between atoms: C_1  and  C_2
REMARK    2  A    between atoms: C_5  and  C_6
REMARK    3  A    between atoms: C_7  and  C_8
REMARK    4  A    between atoms: N_10  and  C_11
REMARK    5  A    between atoms: C_15  and  S_16
REMARK    6  A    between atoms: S_16  and  N_19
REMARK                            x       y       z     vdW  Elec       q    Type
REMARK                         _______ _______ _______ _____ _____    ______ ____
ROOT
ATOM      1  C   UNL     1       6.341   6.005  16.474  0.00  0.00    +0.000 A 
ATOM      2  C   UNL     1       6.567   5.337  15.266  0.00  0.00    +0.000 A 
ATOM      3  C   UNL     1       6.061   4.049  15.040  0.00  0.00    +0.000 A 
ATOM      4  C   UNL     1       5.309   3.407  16.018  0.00  0.00    +0.000 A 
ATOM      5  C   UNL     1       5.071   4.064  17.228  0.00  0.00    +0.000 A 
ATOM      6  C   UNL     1       5.598   5.346  17.467  0.00  0.00    +0.000 A 
ENDROOT
BRANCH   1   9
ATOM      7  C   UNL     1       7.688   7.704  17.732  0.00  0.00    +0.000 C 
ATOM      8  O   UNL     1       8.171   6.977  18.593  0.00  0.00    +0.000 OA
ATOM      9  N   UNL     1       6.800   7.325  16.739  0.00  0.00    +0.000 N 
ATOM     10  H   UNL     1       6.483   8.042  16.099  0.00  0.00    +0.000 HD
BRANCH   7  12
ATOM     11  C   UNL     1       8.845   9.641  18.652  0.00  0.00    +0.000 C 
ATOM     12  C   UNL     1       8.083   9.145  17.664  0.00  0.00    +0.000 C 
BRANCH  11  17
ATOM     13  C   UNL     1      11.414  13.539  20.088  0.00  0.00    +0.000 C 
ATOM     14  C   UNL     1      10.429  12.816  19.262  0.00  0.00    +0.000 A 
ATOM     15  C   UNL     1       9.614  13.195  18.226  0.00  0.00    +0.000 A 
ATOM     16  C   UNL     1       8.897  12.035  17.851  0.00  0.00    +0.000 A 
ATOM     17  C   UNL     1       9.306  10.988  18.673  0.00  0.00    +0.000 A 
ATOM     18  O   UNL     1      10.252  11.492  19.539  0.00  0.00    +0.000 OA
ENDBRANCH  11  17
ENDBRANCH   7  12
ENDBRANCH   1   9
BRANCH   5  19
ATOM     19  S   UNL     1       4.122   3.229  18.480  0.00  0.00    +0.000 S 
ATOM     20  O   UNL     1       3.563   2.043  17.871  0.00  0.00    +0.000 OA
ATOM     21  O   UNL     1       4.948   3.137  19.665  0.00  0.00    +0.000 OA
BRANCH  19  22
ATOM     22  N   UNL     1       2.833   4.295  18.825  0.00  0.00    +0.000 NA
ATOM     23  C   UNL     1       2.780   4.905  20.189  0.00  0.00    +0.000 C 
ATOM     24  C   UNL     1       2.182   3.945  21.224  0.00  0.00    +0.000 C 
ATOM     25  O   UNL     1       0.873   3.510  20.831  0.00  0.00    +0.000 OA
ATOM     26  C   UNL     1       0.907   2.849  19.557  0.00  0.00    +0.000 C 
ATOM     27  C   UNL     1       1.471   3.769  18.465  0.00  0.00    +0.000 C 
ENDBRANCH  19  22
ENDBRANCH   5  19
TORSDOF 5
ENDMDL
MODEL 3
REMARK VINA RESULT:      -8.9      0.764      1.060
REMARK  Name = 
REMARK  6 active torsions:
REMARK  status: ('A' for Active; 'I' for Inactive)
REMARK    1  A    between atoms: C_1  and  C_2
REMARK    2  A    between atoms: C_5  and  C_6
REMARK    3  A    between atoms: C_7  and  C_8
REMARK    4  A    between atoms: N_10  and  C_11
REMARK    5  A    between atoms: C_15  and  S_16
REMARK    6  A    between atoms: S_16  and  N_19
REMARK                            x       y       z     vdW  Elec       q    Type
REMARK                         _______ _______ _______ _____ _____    ______ ____
ROOT
ATOM      1  C   UNL     1       6.266   6.055  16.505  0.00  0.00    +0.000 A 
ATOM      2  C   UNL     1       6.770   5.190  15.528  0.00  0.00    +0.000 A 
ATOM      3  C   UNL     1       6.140   3.971  15.241  0.00  0.00    +0.000 A 
ATOM      4  C   UNL     1       4.987   3.597  15.923  0.00  0.00    +0.000 A 
ATOM      5  C   UNL     1       4.471   4.452  16.898  0.00  0.00    +0.000 A 
ATOM      6  C   UNL     1       5.114   5.666  17.205  0.00  0.00    +0.000 A 
ENDROOT
BRANCH   1   9
ATOM      7  C   UNL     1       7.716   7.598  17.848  0.00  0.00    +0.000 C 
ATOM      8  O   UNL     1       8.078   6.819  18.723  0.00  0.00    +0.000 OA
ATOM      9  N   UNL     1       6.845   7.319  16.808  0.00  0.00    +0.000 N 
ATOM     10  H   UNL     1       6.636   8.069  16.161  0.00  0.00    +0.000 HD
BRANCH   7  12
ATOM     11  C   UNL     1       8.863   9.461  18.920  0.00  0.00    +0.000 C 
ATOM     12  C   UNL     1       8.260   8.991  17.816  0.00  0.00    +0.000 C 
BRANCH  11  17
ATOM     13  C   UNL     1      10.501  13.599  20.934  0.00  0.00    +0.000 C 
ATOM     14  C   UNL     1      10.211  12.676  19.820  0.00  0.00    +0.000 A 
ATOM     15  C   UNL     1      10.402  12.752  18.464  0.00  0.00    +0.000 A 
ATOM     16  C   UNL     1       9.914  11.535  17.934  0.00  0.00    +0.000 A 
ATOM     17  C   UNL     1       9.444  10.759  18.991  0.00  0.00    +0.000 A 
ATOM     18  O   UNL     1       9.636  11.483  20.147  0.00  0.00    +0.000 OA
ENDBRANCH  11  17
ENDBRANCH   7  12
ENDBRANCH   1   9
BRANCH   5  19
ATOM     19  S   UNL     1       3.005   3.959  17.778  0.00  0.00    +0.000 S 
ATOM     20  O   UNL     1       2.027   5.007  17.596  0.00  0.00    +0.000 OA
ATOM     21  O   UNL     1       2.710   2.593  17.403  0.00  0.00    +0.000 OA
BRANCH  19  22
ATOM     22  N   UNL     1       3.469   3.958  19.421  0.00  0.00    +0.000 NA
ATOM     23  C   UNL     1       3.457   2.651  20.148  0.00  0.00    +0.000 C 
ATOM     24  C   UNL     1       2.047   2.266  20.611  0.00  0.00    +0.000 C 
ATOM     25  O   UNL     1       1.474   3.290  21.435  0.00  0.00    +0.000 OA
ATOM     26  C   UNL     1       1.402   4.540  20.733  0.00  0.00    +0.000 C 
ATOM     27  C   UNL     1       2.790   5.001  20.266  0.00  0.00    +0.000 C 
ENDBRANCH  19  22
ENDBRANCH   5  19
TORSDOF 5
ENDMDL
MODEL 4
REMARK VINA RESULT:      -8.8      1.532      1.814
REMARK  Name = 
REMARK  6 active torsions:
REMARK  status: ('A' for Active; 'I' for Inactive)
REMARK    1  A    between atoms: C_1  and  C_2
REMARK    2  A    between atoms: C_5  and  C_6
REMARK    3  A    between atoms: C_7  and  C_8
REMARK    4  A    between atoms: N_10  and  C_11
REMARK    5  A    between atoms: C_15  and  S_16
REMARK    6  A    between atoms: S_16  and  N_19
REMARK                            x       y       z     vdW  Elec       q    Type
REMARK                         _______ _______ _______ _____ _____    ______ ____
ROOT
ATOM      1  C   UNL     1       7.050   5.712  17.120  0.00  0.00    +0.000 A 
ATOM      2  C   UNL     1       7.045   5.387  15.760  0.00  0.00    +0.000 A 
ATOM      3  C   UNL     1       6.181   4.407  15.250  0.00  0.00    +0.000 A 
ATOM      4  C   UNL     1       5.299   3.738  16.092  0.00  0.00    +0.000 A 
ATOM      5  C   UNL     1       5.291   4.056  17.452  0.00  0.00    +0.000 A 
ATOM      6  C   UNL     1       6.173   5.022  17.971  0.00  0.00    +0.000 A 
ENDROOT
BRANCH   1   9
ATOM      7  C   UNL     1       7.631   8.086  17.681  0.00  0.00    +0.000 C 
ATOM      8  O   UNL     1       6.693   8.655  17.133  0.00  0.00    +0.000 OA
ATOM      9  N   UNL     1       7.878   6.723  17.682  0.00  0.00    +0.000 N 
ATOM     10  H   UNL     1       8.700   6.400  18.178  0.00  0.00    +0.000 HD
BRANCH   7  12
ATOM     11  C   UNL     1       8.845  10.151  18.125  0.00  0.00    +0.000 C 
ATOM     12  C   UNL     1       8.621   8.875  18.478  0.00  0.00    +0.000 C 
BRANCH  11  17
ATOM     13  C   UNL     1      12.332  13.502  18.812  0.00  0.00    +0.000 C 
ATOM     14  C   UNL     1      11.322  12.515  19.238  0.00  0.00    +0.000 A 
ATOM     15  C   UNL     1      10.897  12.078  20.467  0.00  0.00    +0.000 A 
ATOM     16  C   UNL     1       9.893  11.115  20.211  0.00  0.00    +0.000 A 
ATOM     17  C   UNL     1       9.741  11.004  18.830  0.00  0.00    +0.000 A 
ATOM     18  O   UNL     1      10.634  11.877  18.249  0.00  0.00    +0.000 OA
ENDBRANCH  11  17
ENDBRANCH   7  12
ENDBRANCH   1   9
BRANCH   5  19
ATOM     19  S   UNL     1       4.172   3.184  18.525  0.00  0.00    +0.000 S 
ATOM     20  O   UNL     1       3.578   2.121  17.747  0.00  0.00    +0.000 OA
ATOM     21  O   UNL     1       4.878   2.899  19.755  0.00  0.00    +0.000 OA
BRANCH  19  22
ATOM     22  N   UNL     1       2.945   4.318  18.880  0.00  0.00    +0.000 NA
ATOM     23  C   UNL     1       2.865   4.844  20.278  0.00  0.00    +0.000 C 
ATOM     24  C   UNL     1       2.148   3.868  21.217  0.00  0.00    +0.000 C 
ATOM     25  O   UNL     1       0.834   3.556  20.736  0.00  0.00    +0.000 OA
ATOM     26  C   UNL     1       0.887   2.976  19.424  0.00  0.00    +0.000 C 
ATOM     27  C   UNL     1       1.569   3.919  18.422  0.00  0.00    +0.000 C 
ENDBRANCH  19  22
ENDBRANCH   5  19
TORSDOF 5
ENDMDL
MODEL 5
REMARK VINA RESULT:      -8.8      1.072      1.290
REMARK  Name = 
REMARK  6 active torsions:
REMARK  status: ('A' for Active; 'I' for Inactive)
REMARK    1  A    between atoms: C_1  and  C_2
REMARK    2  A    between atoms: C_5  and  C_6
REMARK    3  A    between atoms: C_7  and  C_8
REMARK    4  A    between atoms: N_10  and  C_11
REMARK    5  A    between atoms: C_15  and  S_16
REMARK    6  A    between atoms: S_16  and  N_19
REMARK                            x       y       z     vdW  Elec       q    Type
REMARK                         _______ _______ _______ _____ _____    ______ ____
ROOT
ATOM      1  C   UNL     1       5.778   6.131  16.878  0.00  0.00    +0.000 A 
ATOM      2  C   UNL     1       6.251   5.113  16.044  0.00  0.00    +0.000 A 
ATOM      3  C   UNL     1       5.537   3.917  15.878  0.00  0.00    +0.000 A 
ATOM      4  C   UNL     1       4.329   3.722  16.539  0.00  0.00    +0.000 A 
ATOM      5  C   UNL     1       3.842   4.731  17.372  0.00  0.00    +0.000 A 
ATOM      6  C   UNL     1       4.568   5.923  17.560  0.00  0.00    +0.000 A 
ENDROOT
BRANCH   1   9
ATOM      7  C   UNL     1       7.533   7.621  17.872  0.00  0.00    +0.000 C 
ATOM      8  O   UNL     1       8.061   6.822  18.639  0.00  0.00    +0.000 OA
ATOM      9  N   UNL     1       6.444   7.376  17.052  0.00  0.00    +0.000 N 
ATOM     10  H   UNL     1       6.116   8.140  16.474  0.00  0.00    +0.000 HD
BRANCH   7  12
ATOM     11  C   UNL     1       8.880   9.470  18.710  0.00  0.00    +0.000 C 
ATOM     12  C   UNL     1       8.094   9.000  17.728  0.00  0.00    +0.000 C 
BRANCH  11  17
ATOM     13  C   UNL     1      11.537  13.172  16.952  0.00  0.00    +0.000 C 
ATOM     14  C   UNL     1      10.686  12.489  17.944  0.00  0.00    +0.000 A 
ATOM     15  C   UNL     1      10.191  12.858  19.169  0.00  0.00    +0.000 A 
ATOM     16  C   UNL     1       9.433  11.756  19.630  0.00  0.00    +0.000 A 
ATOM     17  C   UNL     1       9.493  10.754  18.663  0.00  0.00    +0.000 A 
ATOM     18  O   UNL     1      10.273  11.227  17.631  0.00  0.00    +0.000 OA
ENDBRANCH  11  17
ENDBRANCH   7  12
ENDBRANCH   1   9
BRANCH   5  19
ATOM     19  S   UNL     1       2.305   4.466  18.227  0.00  0.00    +0.000 S 
ATOM     20  O   UNL     1       2.279   5.377  19.348  0.00  0.00    +0.000 OA
ATOM     21  O   UNL     1       1.248   4.473  17.238  0.00  0.00    +0.000 OA
BRANCH  19  22
ATOM     22  N   UNL     1       2.426   2.879  18.847  0.00  0.00    +0.000 NA
ATOM     23  C   UNL     1       1.251   2.330  19.590  0.00  0.00    +0.000 C 
ATOM     24  C   UNL     1       1.207   2.826  21.040  0.00  0.00    +0.000 C 
ATOM     25  O   UNL     1       2.419   2.504  21.734  0.00  0.00    +0.000 OA
ATOM     26  C   UNL     1       3.559   3.086  21.084  0.00  0.00    +0.000 C 
ATOM     27  C   UNL     1       3.680   2.605  19.631  0.00  0.00    +0.000 C 
ENDBRANCH  19  22
ENDBRANCH   5  19
TORSDOF 5
ENDMDL
MODEL 6
REMARK VINA RESULT:      -8.4      1.199      1.274
REMARK  Name = 
REMARK  6 active torsions:
REMARK  status: ('A' for Active; 'I' for Inactive)
REMARK    1  A    between atoms: C_1  and  C_2
REMARK    2  A    between atoms: C_5  and  C_6
REMARK    3  A    between atoms: C_7  and  C_8
REMARK    4  A    between atoms: N_10  and  C_11
REMARK    5  A    between atoms: C_15  and  S_16
REMARK    6  A    between atoms: S_16  and  N_19
REMARK                            x       y       z     vdW  Elec       q    Type
REMARK                         _______ _______ _______ _____ _____    ______ ____
ROOT
ATOM      1  C   UNL     1       6.961   5.840  17.494  0.00  0.00    +0.000 A 
ATOM      2  C   UNL     1       7.397   5.037  16.435  0.00  0.00    +0.000 A 
ATOM      3  C   UNL     1       6.548   4.091  15.843  0.00  0.00    +0.000 A 
ATOM      4  C   UNL     1       5.242   3.936  16.295  0.00  0.00    +0.000 A 
ATOM      5  C   UNL     1       4.792   4.733  17.349  0.00  0.00    +0.000 A 
ATOM      6  C   UNL     1       5.649   5.667  17.962  0.00  0.00    +0.000 A 
ENDROOT
BRANCH   1   9
ATOM      7  C   UNL     1       7.796   8.187  17.784  0.00  0.00    +0.000 C 
ATOM      8  O   UNL     1       7.182   8.730  16.872  0.00  0.00    +0.000 OA
ATOM      9  N   UNL     1       7.768   6.839  18.105  0.00  0.00    +0.000 N 
ATOM     10  H   UNL     1       8.334   6.536  18.888  0.00  0.00    +0.000 HD
BRANCH   7  12
ATOM     11  C   UNL     1       8.918  10.272  18.355  0.00  0.00    +0.000 C 
ATOM     12  C   UNL     1       8.644   9.005  18.704  0.00  0.00    +0.000 C 
BRANCH  11  17
ATOM     13  C   UNL     1       9.869  13.652  21.751  0.00  0.00    +0.000 C 
ATOM     14  C   UNL     1      10.214  12.685  20.691  0.00  0.00    +0.000 A 
ATOM     15  C   UNL     1      11.402  12.300  20.123  0.00  0.00    +0.000 A 
ATOM     16  C   UNL     1      11.070  11.325  19.153  0.00  0.00    +0.000 A 
ATOM     17  C   UNL     1       9.688  11.151  19.168  0.00  0.00    +0.000 A 
ATOM     18  O   UNL     1       9.179  12.001  20.125  0.00  0.00    +0.000 OA
ENDBRANCH  11  17
ENDBRANCH   7  12
ENDBRANCH   1   9
BRANCH   5  19
ATOM     19  S   UNL     1       3.126   4.516  17.933  0.00  0.00    +0.000 S 
ATOM     20  O   UNL     1       2.488   5.812  17.890  0.00  0.00    +0.000 OA
ATOM     21  O   UNL     1       2.560   3.385  17.230  0.00  0.00    +0.000 OA
BRANCH  19  22
ATOM     22  N   UNL     1       3.299   4.075  19.574  0.00  0.00    +0.000 NA
ATOM     23  C   UNL     1       3.159   2.628  19.925  0.00  0.00    +0.000 C 
ATOM     24  C   UNL     1       1.690   2.203  20.029  0.00  0.00    +0.000 C 
ATOM     25  O   UNL     1       0.985   3.008  20.983  0.00  0.00    +0.000 OA
ATOM     26  C   UNL     1       1.036   4.397  20.627  0.00  0.00    +0.000 C 
ATOM     27  C   UNL     1       2.485   4.898  20.534  0.00  0.00    +0.000 C 
ENDBRANCH  19  22
ENDBRANCH   5  19
TORSDOF 5
ENDMDL
MODEL 7
REMARK VINA RESULT:      -8.3      1.402      1.561
REMARK  Name = 
REMARK  6 active torsions:
REMARK  status: ('A' for Active; 'I' for Inactive)
REMARK    1  A    between atoms: C_1  and  C_2
REMARK    2  A    between atoms: C_5  and  C_6
REMARK    3  A    between atoms: C_7  and  C_8
REMARK    4  A    between atoms: N_10  and  C_11
REMARK    5  A    between atoms: C_15  and  S_16
REMARK    6  A    between atoms: S_16  and  N_19
REMARK                            x       y       z     vdW  Elec       q    Type
REMARK                         _______ _______ _______ _____ _____    ______ ____
ROOT
ATOM      1  C   UNL     1       7.006   5.968  17.844  0.00  0.00    +0.000 A 
ATOM      2  C   UNL     1       7.332   5.085  16.810  0.00  0.00    +0.000 A 
ATOM      3  C   UNL     1       6.413   4.130  16.351  0.00  0.00    +0.000 A 
ATOM      4  C   UNL     1       5.145   4.046  16.915  0.00  0.00    +0.000 A 
ATOM      5  C   UNL     1       4.804   4.924  17.946  0.00  0.00    +0.000 A 
ATOM      6  C   UNL     1       5.732   5.867  18.425  0.00  0.00    +0.000 A 
ENDROOT
BRANCH   1   9
ATOM      7  C   UNL     1       7.895   8.310  17.941  0.00  0.00    +0.000 C 
ATOM      8  O   UNL     1       7.193   8.825  17.078  0.00  0.00    +0.000 OA
ATOM      9  N   UNL     1       7.886   6.978  18.321  0.00  0.00    +0.000 N 
ATOM     10  H   UNL     1       8.530   6.698  19.050  0.00  0.00    +0.000 HD
BRANCH   7  12
ATOM     11  C   UNL     1       9.039  10.424  18.343  0.00  0.00    +0.000 C 
ATOM     12  C   UNL     1       8.849   9.152  18.729  0.00  0.00    +0.000 C 
BRANCH  11  17
ATOM     13  C   UNL     1      10.344  14.094  21.290  0.00  0.00    +0.000 C 
ATOM     14  C   UNL     1      10.583  12.978  20.355  0.00  0.00    +0.000 A 
ATOM     15  C   UNL     1      11.722  12.423  19.829  0.00  0.00    +0.000 A 
ATOM     16  C   UNL     1      11.289  11.371  18.988  0.00  0.00    +0.000 A 
ATOM     17  C   UNL     1       9.897  11.323  19.036  0.00  0.00    +0.000 A 
ATOM     18  O   UNL     1       9.482  12.325  19.885  0.00  0.00    +0.000 OA
ENDBRANCH  11  17
ENDBRANCH   7  12
ENDBRANCH   1   9
BRANCH   5  19
ATOM     19  S   UNL     1       3.185   4.799  18.673  0.00  0.00    +0.000 S 
ATOM     20  O   UNL     1       3.210   5.561  19.900  0.00  0.00    +0.000 OA
ATOM     21  O   UNL     1       2.217   5.088  17.637  0.00  0.00    +0.000 OA
BRANCH  19  22
ATOM     22  N   UNL     1       3.026   3.149  19.087  0.00  0.00    +0.000 NA
ATOM     23  C   UNL     1       1.709   2.490  18.829  0.00  0.00    +0.000 C 
ATOM     24  C   UNL     1       0.687   2.800  19.929  0.00  0.00    +0.000 C 
ATOM     25  O   UNL     1       1.182   2.417  21.219  0.00  0.00    +0.000 OA
ATOM     26  C   UNL     1       2.409   3.097  21.526  0.00  0.00    +0.000 C 
ATOM     27  C   UNL     1       3.489   2.804  20.476  0.00  0.00    +0.000 C 
ENDBRANCH  19  22
ENDBRANCH   5  19
TORSDOF 5
ENDMDL
MODEL 8
REMARK VINA RESULT:      -8.2      1.787      2.225
REMARK  Name = 
REMARK  6 active torsions:
REMARK  status: ('A' for Active; 'I' for Inactive)
REMARK    1  A    between atoms: C_1  and  C_2
REMARK    2  A    between atoms: C_5  and  C_6
REMARK    3  A    between atoms: C_7  and  C_8
REMARK    4  A    between atoms: N_10  and  C_11
REMARK    5  A    between atoms: C_15  and  S_16
REMARK    6  A    between atoms: S_16  and  N_19
REMARK                            x       y       z     vdW  Elec       q    Type
REMARK                         _______ _______ _______ _____ _____    ______ ____
ROOT
ATOM      1  C   UNL     1       6.360   5.367  17.698  0.00  0.00    +0.000 A 
ATOM      2  C   UNL     1       6.050   5.337  16.334  0.00  0.00    +0.000 A 
ATOM      3  C   UNL     1       5.122   4.420  15.819  0.00  0.00    +0.000 A 
ATOM      4  C   UNL     1       4.481   3.519  16.662  0.00  0.00    +0.000 A 
ATOM      5  C   UNL     1       4.778   3.540  18.026  0.00  0.00    +0.000 A 
ATOM      6  C   UNL     1       5.726   4.443  18.543  0.00  0.00    +0.000 A 
ENDROOT
BRANCH   1   9
ATOM      7  C   UNL     1       7.608   7.541  17.766  0.00  0.00    +0.000 C 
ATOM      8  O   UNL     1       7.246   8.012  16.694  0.00  0.00    +0.000 OA
ATOM      9  N   UNL     1       7.264   6.300  18.277  0.00  0.00    +0.000 N 
ATOM     10  H   UNL     1       7.647   6.046  19.180  0.00  0.00    +0.000 HD
BRANCH   7  12
ATOM     11  C   UNL     1       8.656   9.647  18.400  0.00  0.00    +0.000 C 
ATOM     12  C   UNL     1       8.475   8.346  18.681  0.00  0.00    +0.000 C 
BRANCH  11  17
ATOM     13  C   UNL     1      12.332  12.599  19.678  0.00  0.00    +0.000 C 
ATOM     14  C   UNL     1      11.068  11.867  19.888  0.00  0.00    +0.000 A 
ATOM     15  C   UNL     1      10.205  11.770  20.949  0.00  0.00    +0.000 A 
ATOM     16  C   UNL     1       9.165  10.909  20.527  0.00  0.00    +0.000 A 
ATOM     17  C   UNL     1       9.433  10.515  19.218  0.00  0.00    +0.000 A 
ATOM     18  O   UNL     1      10.614  11.117  18.843  0.00  0.00    +0.000 OA
ENDBRANCH  11  17
ENDBRANCH   7  12
ENDBRANCH   1   9
BRANCH   5  19
ATOM     19  S   UNL     1       3.965   2.373  19.095  0.00  0.00    +0.000 S 
ATOM     20  O   UNL     1       3.890   1.120  18.378  0.00  0.00    +0.000 OA
ATOM     21  O   UNL     1       4.602   2.450  20.392  0.00  0.00    +0.000 OA
BRANCH  19  22
ATOM     22  N   UNL     1       2.375   2.975  19.260  0.00  0.00    +0.000 NA
ATOM     23  C   UNL     1       2.161   4.441  19.062  0.00  0.00    +0.000 C 
ATOM     24  C   UNL     1       2.529   5.248  20.312  0.00  0.00    +0.000 C 
ATOM     25  O   UNL     1       1.793   4.796  21.456  0.00  0.00    +0.000 OA
ATOM     26  C   UNL     1       2.041   3.407  21.716  0.00  0.00    +0.000 C 
ATOM     27  C   UNL     1       1.664   2.535  20.510  0.00  0.00    +0.000 C 
ENDBRANCH  19  22
ENDBRANCH   5  19
TORSDOF 5
ENDMDL
MODEL 9
REMARK VINA RESULT:      -8.2      1.820      2.200
REMARK  Name = 
REMARK  6 active torsions:
REMARK  status: ('A' for Active; 'I' for Inactive)
REMARK    1  A    between atoms: C_1  and  C_2
REMARK    2  A    between atoms: C_5  and  C_6
REMARK    3  A    between atoms: C_7  and  C_8
REMARK    4  A    between atoms: N_10  and  C_11
REMARK    5  A    between atoms: C_15  and  S_16
REMARK    6  A    between atoms: S_16  and  N_19
REMARK                            x       y       z     vdW  Elec       q    Type
REMARK                         _______ _______ _______ _____ _____    ______ ____
ROOT
ATOM      1  C   UNL     1       7.358   6.211  17.770  0.00  0.00    +0.000 A 
ATOM      2  C   UNL     1       7.447   5.788  16.440  0.00  0.00    +0.000 A 
ATOM      3  C   UNL     1       6.630   4.760  15.948  0.00  0.00    +0.000 A 
ATOM      4  C   UNL     1       5.702   4.140  16.777  0.00  0.00    +0.000 A 
ATOM      5  C   UNL     1       5.600   4.555  18.107  0.00  0.00    +0.000 A 
ATOM      6  C   UNL     1       6.435   5.570  18.610  0.00  0.00    +0.000 A 
ENDROOT
BRANCH   1   9
ATOM      7  C   UNL     1       8.022   8.619  17.998  0.00  0.00    +0.000 C 
ATOM      8  O   UNL     1       7.281   9.110  17.154  0.00  0.00    +0.000 OA
ATOM      9  N   UNL     1       8.136   7.274  18.309  0.00  0.00    +0.000 N 
ATOM     10  H   UNL     1       8.798   7.017  19.031  0.00  0.00    +0.000 HD
BRANCH   7  12
ATOM     11  C   UNL     1       9.340  10.645  18.299  0.00  0.00    +0.000 C 
ATOM     12  C   UNL     1       8.886   9.503  18.840  0.00  0.00    +0.000 C 
BRANCH  11  17
ATOM     13  C   UNL     1      10.411  14.419  21.210  0.00  0.00    +0.000 C 
ATOM     14  C   UNL     1      10.723  13.280  20.325  0.00  0.00    +0.000 A 
ATOM     15  C   UNL     1      11.899  12.726  19.888  0.00  0.00    +0.000 A 
ATOM     16  C   UNL     1      11.533  11.644  19.055  0.00  0.00    +0.000 A 
ATOM     17  C   UNL     1      10.142  11.577  19.017  0.00  0.00    +0.000 A 
ATOM     18  O   UNL     1       9.662  12.598  19.808  0.00  0.00    +0.000 OA
ENDBRANCH  11  17
ENDBRANCH   7  12
ENDBRANCH   1   9
BRANCH   5  19
ATOM     19  S   UNL     1       4.422   3.746  19.166  0.00  0.00    +0.000 S 
ATOM     20  O   UNL     1       5.153   2.785  19.960  0.00  0.00    +0.000 OA
ATOM     21  O   UNL     1       3.621   4.773  19.795  0.00  0.00    +0.000 OA
BRANCH  19  22
ATOM     22  N   UNL     1       3.409   2.878  18.099  0.00  0.00    +0.000 NA
ATOM     23  C   UNL     1       2.324   3.631  17.400  0.00  0.00    +0.000 C 
ATOM     24  C   UNL     1       1.098   3.835  18.297  0.00  0.00    +0.000 C 
ATOM     25  O   UNL     1       0.593   2.582  18.777  0.00  0.00    +0.000 OA
ATOM     26  C   UNL     1       1.594   1.870  19.521  0.00  0.00    +0.000 C 
ATOM     27  C   UNL     1       2.842   1.606  18.667  0.00  0.00    +0.000 C 
ENDBRANCH  19  22
ENDBRANCH   5  19
TORSDOF 5
ENDMDL
