MODEL 1
REMARK VINA RESULT:      -8.8      0.000      0.000
REMARK  Name = 
REMARK  6 active torsions:
REMARK  status: ('A' for Active; 'I' for Inactive)
REMARK    1  A    between atoms: C_1  and  O_2
REMARK    2  A    between atoms: O_2  and  C_3
REMARK    3  A    between atoms: C_8  and  C_9
REMARK    4  A    between atoms: N_11  and  C_12
REMARK    5  A    between atoms: C_17  and  N_18
REMARK    6  A    between atoms: N_18  and  C_19
REMARK                            x       y       z     vdW  Elec       q    Type
REMARK                         _______ _______ _______ _____ _____    ______ ____
ROOT
ATOM      1  C   UNL     1       2.809   3.854  18.955  0.00  0.00    +0.000 A 
ATOM      2  C   UNL     1       2.155   2.616  19.071  0.00  0.00    +0.000 A 
ATOM      3  C   UNL     1       1.351   2.325  20.173  0.00  0.00    +0.000 A 
ATOM      4  C   UNL     1       1.207   3.260  21.187  0.00  0.00    +0.000 A 
ATOM      5  C   UNL     1       1.863   4.487  21.092  0.00  0.00    +0.000 A 
ATOM      6  C   UNL     1       2.631   4.828  19.960  0.00  0.00    +0.000 A 
ENDROOT
BRANCH   1   9
ATOM      7  C   UNL     1       5.039   4.071  17.905  0.00  0.00    +0.000 C 
ATOM      8  O   UNL     1       5.671   3.645  18.872  0.00  0.00    +0.000 OA
ATOM      9  N   UNL     1       3.656   4.115  17.849  0.00  0.00    +0.000 N 
ATOM     10  H   UNL     1       3.216   4.331  16.963  0.00  0.00    +0.000 HD
BRANCH   7  16
ATOM     11  C   UNL     1       6.725   5.542  16.665  0.00  0.00    +0.000 A 
ATOM     12  N   UNL     1       7.432   5.870  15.554  0.00  0.00    +0.000 NA
ATOM     13  C   UNL     1       7.242   5.118  14.448  0.00  0.00    +0.000 A 
ATOM     14  C   UNL     1       6.367   4.052  14.388  0.00  0.00    +0.000 A 
ATOM     15  C   UNL     1       5.651   3.734  15.535  0.00  0.00    +0.000 A 
ATOM     16  C   UNL     1       5.816   4.488  16.710  0.00  0.00    +0.000 A 
BRANCH  11  18
ATOM     17  C   UNL     1       7.605   7.536  17.533  0.00  0.00    +0.000 C 
ATOM     18  O   UNL     1       6.894   6.326  17.791  0.00  0.00    +0.000 OA
ENDBRANCH  11  18
ENDBRANCH   7  16
ENDBRANCH   1   9
BRANCH   6  19
ATOM     19  N   UNL     1       3.203   6.130  19.860  0.00  0.00    +0.000 N 
ATOM     20  H   UNL     1       4.108   6.099  19.398  0.00  0.00    +0.000 HD
BRANCH  19  21
ATOM     21  C   UNL     1       2.507   7.303  19.460  0.00  0.00    +0.000 A 
ATOM     22  C   UNL     1       2.623   7.750  18.146  0.00  0.00    +0.000 A 
ATOM     23  C   UNL     1       1.969   8.915  17.779  0.00  0.00    +0.000 A 
ATOM     24  N   UNL     1       1.197   9.643  18.613  0.00  0.00    +0.000 NA
ATOM     25  C   UNL     1       1.055   9.168  19.867  0.00  0.00    +0.000 A 
ATOM     26  C   UNL     1       1.660   8.009  20.321  0.00  0.00    +0.000 A 
ENDBRANCH  19  21
ENDBRANCH   6  19
TORSDOF 5
ENDMDL
MODEL 2
REMARK VINA RESULT:      -8.4      0.870      1.292
REMARK  Name = 
REMARK  6 active torsions:
REMARK  status: ('A' for Active; 'I' for Inactive)
REMARK    1  A    between atoms: C_1  and  O_2
REMARK    2  A    between atoms: O_2  and  C_3
REMARK    3  A    between atoms: C_8  and  C_9
REMARK    4  A    between atoms: N_11  and  C_12
REMARK    5  A    between atoms: C_17  and  N_18
REMARK    6  A    between atoms: N_18  and  C_19
REMARK                            x       y       z     vdW  Elec       q    Type
REMARK                         _______ _______ _______ _____ _____    ______ ____
ROOT
ATOM      1  C   UNL     1       2.434   4.135  18.465  0.00  0.00    +0.000 A 
ATOM      2  C   UNL     1       1.715   2.938  18.311  0.00  0.00    +0.000 A 
ATOM      3  C   UNL     1       0.804   2.514  19.277  0.00  0.00    +0.000 A 
ATOM      4  C   UNL     1       0.615   3.269  20.425  0.00  0.00    +0.000 A 
ATOM      5  C   UNL     1       1.333   4.451  20.599  0.00  0.00    +0.000 A 
ATOM      6  C   UNL     1       2.214   4.932  19.608  0.00  0.00    +0.000 A 
ENDROOT
BRANCH   1   9
ATOM      7  C   UNL     1       4.427   3.724  17.058  0.00  0.00    +0.000 C 
ATOM      8  O   UNL     1       4.536   2.532  17.346  0.00  0.00    +0.000 OA
ATOM      9  N   UNL     1       3.387   4.528  17.493  0.00  0.00    +0.000 N 
ATOM     10  H   UNL     1       3.288   5.449  17.085  0.00  0.00    +0.000 HD
BRANCH   7  16
ATOM     11  C   UNL     1       6.353   5.294  16.448  0.00  0.00    +0.000 A 
ATOM     12  N   UNL     1       7.272   5.769  15.570  0.00  0.00    +0.000 NA
ATOM     13  C   UNL     1       7.292   5.229  14.332  0.00  0.00    +0.000 A 
ATOM     14  C   UNL     1       6.426   4.237  13.915  0.00  0.00    +0.000 A 
ATOM     15  C   UNL     1       5.491   3.766  14.828  0.00  0.00    +0.000 A 
ATOM     16  C   UNL     1       5.433   4.298  16.128  0.00  0.00    +0.000 A 
BRANCH  11  18
ATOM     17  C   UNL     1       7.482   5.605  18.480  0.00  0.00    +0.000 C 
ATOM     18  O   UNL     1       6.310   5.861  17.707  0.00  0.00    +0.000 OA
ENDBRANCH  11  18
ENDBRANCH   7  16
ENDBRANCH   1   9
BRANCH   6  19
ATOM     19  N   UNL     1       2.854   6.194  19.784  0.00  0.00    +0.000 N 
ATOM     20  H   UNL     1       3.824   6.159  19.486  0.00  0.00    +0.000 HD
BRANCH  19  21
ATOM     21  C   UNL     1       2.295   7.453  19.431  0.00  0.00    +0.000 A 
ATOM     22  C   UNL     1       1.579   8.172  20.385  0.00  0.00    +0.000 A 
ATOM     23  C   UNL     1       1.009   9.380  20.016  0.00  0.00    +0.000 A 
ATOM     24  N   UNL     1       1.122   9.926  18.787  0.00  0.00    +0.000 NA
ATOM     25  C   UNL     1       1.861   9.240  17.892  0.00  0.00    +0.000 A 
ATOM     26  C   UNL     1       2.477   8.033  18.171  0.00  0.00    +0.000 A 
ENDBRANCH  19  21
ENDBRANCH   6  19
TORSDOF 5
ENDMDL
MODEL 3
REMARK VINA RESULT:      -8.1      1.330      2.434
REMARK  Name = 
REMARK  6 active torsions:
REMARK  status: ('A' for Active; 'I' for Inactive)
REMARK    1  A    between atoms: C_1  and  O_2
REMARK    2  A    between atoms: O_2  and  C_3
REMARK    3  A    between atoms: C_8  and  C_9
REMARK    4  A    between atoms: N_11  and  C_12
REMARK    5  A    between atoms: C_17  and  N_18
REMARK    6  A    between atoms: N_18  and  C_19
REMARK                            x       y       z     vdW  Elec       q    Type
REMARK                         _______ _______ _______ _____ _____    ______ ____
ROOT
ATOM      1  C   UNL     1       2.693   4.379  18.845  0.00  0.00    +0.000 A 
ATOM      2  C   UNL     1       2.314   3.214  18.156  0.00  0.00    +0.000 A 
ATOM      3  C   UNL     1       1.255   2.425  18.603  0.00  0.00    +0.000 A 
ATOM      4  C   UNL     1       0.573   2.775  19.759  0.00  0.00    +0.000 A 
ATOM      5  C   UNL     1       0.949   3.920  20.461  0.00  0.00    +0.000 A 
ATOM      6  C   UNL     1       1.975   4.768  19.995  0.00  0.00    +0.000 A 
ENDROOT
BRANCH   1   9
ATOM      7  C   UNL     1       5.115   4.870  18.730  0.00  0.00    +0.000 C 
ATOM      8  O   UNL     1       5.475   3.844  19.307  0.00  0.00    +0.000 OA
ATOM      9  N   UNL     1       3.799   5.145  18.400  0.00  0.00    +0.000 N 
ATOM     10  H   UNL     1       3.609   5.932  17.791  0.00  0.00    +0.000 HD
BRANCH   7  16
ATOM     11  C   UNL     1       6.153   6.582  17.137  0.00  0.00    +0.000 A 
ATOM     12  N   UNL     1       7.132   7.460  16.802  0.00  0.00    +0.000 NA
ATOM     13  C   UNL     1       8.165   7.602  17.661  0.00  0.00    +0.000 A 
ATOM     14  C   UNL     1       8.279   6.899  18.844  0.00  0.00    +0.000 A 
ATOM     15  C   UNL     1       7.267   6.003  19.167  0.00  0.00    +0.000 A 
ATOM     16  C   UNL     1       6.173   5.823  18.304  0.00  0.00    +0.000 A 
BRANCH  11  18
ATOM     17  C   UNL     1       5.449   5.597  15.127  0.00  0.00    +0.000 C 
ATOM     18  O   UNL     1       5.108   6.413  16.248  0.00  0.00    +0.000 OA
ENDBRANCH  11  18
ENDBRANCH   7  16
ENDBRANCH   1   9
BRANCH   6  19
ATOM     19  N   UNL     1       2.261   5.980  20.691  0.00  0.00    +0.000 N 
ATOM     20  H   UNL     1       3.243   6.033  20.946  0.00  0.00    +0.000 HD
BRANCH  19  21
ATOM     21  C   UNL     1       1.798   7.270  20.314  0.00  0.00    +0.000 A 
ATOM     22  C   UNL     1       1.043   8.013  21.219  0.00  0.00    +0.000 A 
ATOM     23  C   UNL     1       0.567   9.253  20.825  0.00  0.00    +0.000 A 
ATOM     24  N   UNL     1       0.808   9.808  19.618  0.00  0.00    +0.000 NA
ATOM     25  C   UNL     1       1.582   9.096  18.775  0.00  0.00    +0.000 A 
ATOM     26  C   UNL     1       2.112   7.855  19.083  0.00  0.00    +0.000 A 
ENDBRANCH  19  21
ENDBRANCH   6  19
TORSDOF 5
ENDMDL
MODEL 4
REMARK VINA RESULT:      -7.7      1.035      2.185
REMARK  Name = 
REMARK  6 active torsions:
REMARK  status: ('A' for Active; 'I' for Inactive)
REMARK    1  A    between atoms: C_1  and  O_2
REMARK    2  A    between atoms: O_2  and  C_3
REMARK    3  A    between atoms: C_8  and  C_9
REMARK    4  A    between atoms: N_11  and  C_12
REMARK    5  A    between atoms: C_17  and  N_18
REMARK    6  A    between atoms: N_18  and  C_19
REMARK                            x       y       z     vdW  Elec       q    Type
REMARK                         _______ _______ _______ _____ _____    ______ ____
ROOT
ATOM      1  C   UNL     1       2.575   4.077  18.661  0.00  0.00    +0.000 A 
ATOM      2  C   UNL     1       1.997   2.882  18.203  0.00  0.00    +0.000 A 
ATOM      3  C   UNL     1       0.949   2.276  18.896  0.00  0.00    +0.000 A 
ATOM      4  C   UNL     1       0.480   2.844  20.071  0.00  0.00    +0.000 A 
ATOM      5  C   UNL     1       1.055   4.022  20.545  0.00  0.00    +0.000 A 
ATOM      6  C   UNL     1       2.073   4.686  19.830  0.00  0.00    +0.000 A 
ENDROOT
BRANCH   1   9
ATOM      7  C   UNL     1       4.989   4.529  18.360  0.00  0.00    +0.000 C 
ATOM      8  O   UNL     1       5.368   3.771  19.253  0.00  0.00    +0.000 OA
ATOM      9  N   UNL     1       3.668   4.655  17.967  0.00  0.00    +0.000 N 
ATOM     10  H   UNL     1       3.463   5.179  17.124  0.00  0.00    +0.000 HD
BRANCH   7  16
ATOM     11  C   UNL     1       6.496   4.984  16.342  0.00  0.00    +0.000 A 
ATOM     12  N   UNL     1       7.431   5.723  15.695  0.00  0.00    +0.000 NA
ATOM     13  C   UNL     1       7.918   6.812  16.329  0.00  0.00    +0.000 A 
ATOM     14  C   UNL     1       7.522   7.200  17.594  0.00  0.00    +0.000 A 
ATOM     15  C   UNL     1       6.565   6.429  18.241  0.00  0.00    +0.000 A 
ATOM     16  C   UNL     1       6.030   5.287  17.619  0.00  0.00    +0.000 A 
BRANCH  11  18
ATOM     17  C   UNL     1       6.032   3.956  14.285  0.00  0.00    +0.000 C 
ATOM     18  O   UNL     1       6.015   3.853  15.708  0.00  0.00    +0.000 OA
ENDBRANCH  11  18
ENDBRANCH   7  16
ENDBRANCH   1   9
BRANCH   6  19
ATOM     19  N   UNL     1       2.565   5.940  20.300  0.00  0.00    +0.000 N 
ATOM     20  H   UNL     1       3.580   5.949  20.327  0.00  0.00    +0.000 HD
BRANCH  19  21
ATOM     21  C   UNL     1       2.090   7.214  19.887  0.00  0.00    +0.000 A 
ATOM     22  C   UNL     1       1.386   8.005  20.792  0.00  0.00    +0.000 A 
ATOM     23  C   UNL     1       0.897   9.229  20.365  0.00  0.00    +0.000 A 
ATOM     24  N   UNL     1       1.080   9.725  19.123  0.00  0.00    +0.000 NA
ATOM     25  C   UNL     1       1.807   8.968  18.277  0.00  0.00    +0.000 A 
ATOM     26  C   UNL     1       2.345   7.739  18.616  0.00  0.00    +0.000 A 
ENDBRANCH  19  21
ENDBRANCH   6  19
TORSDOF 5
ENDMDL
MODEL 5
REMARK VINA RESULT:      -7.7      1.659      4.416
REMARK  Name = 
REMARK  6 active torsions:
REMARK  status: ('A' for Active; 'I' for Inactive)
REMARK    1  A    between atoms: C_1  and  O_2
REMARK    2  A    between atoms: O_2  and  C_3
REMARK    3  A    between atoms: C_8  and  C_9
REMARK    4  A    between atoms: N_11  and  C_12
REMARK    5  A    between atoms: C_17  and  N_18
REMARK    6  A    between atoms: N_18  and  C_19
REMARK                            x       y       z     vdW  Elec       q    Type
REMARK                         _______ _______ _______ _____ _____    ______ ____
ROOT
ATOM      1  C   UNL     1       2.439   7.488  18.400  0.00  0.00    +0.000 A 
ATOM      2  C   UNL     1       1.957   8.631  17.740  0.00  0.00    +0.000 A 
ATOM      3  C   UNL     1       1.215   9.596  18.419  0.00  0.00    +0.000 A 
ATOM      4  C   UNL     1       0.923   9.423  19.763  0.00  0.00    +0.000 A 
ATOM      5  C   UNL     1       1.382   8.286  20.427  0.00  0.00    +0.000 A 
ATOM      6  C   UNL     1       2.186   7.326  19.778  0.00  0.00    +0.000 A 
ENDROOT
BRANCH   1   9
ATOM      7  C   UNL     1       4.485   6.611  17.320  0.00  0.00    +0.000 C 
ATOM      8  O   UNL     1       5.228   7.507  17.720  0.00  0.00    +0.000 OA
ATOM      9  N   UNL     1       3.154   6.496  17.683  0.00  0.00    +0.000 N 
ATOM     10  H   UNL     1       2.659   5.647  17.438  0.00  0.00    +0.000 HD
BRANCH   7  16
ATOM     11  C   UNL     1       5.098   4.194  16.746  0.00  0.00    +0.000 A 
ATOM     12  N   UNL     1       5.636   3.265  15.916  0.00  0.00    +0.000 NA
ATOM     13  C   UNL     1       6.172   3.699  14.754  0.00  0.00    +0.000 A 
ATOM     14  C   UNL     1       6.208   5.027  14.377  0.00  0.00    +0.000 A 
ATOM     15  C   UNL     1       5.653   5.963  15.242  0.00  0.00    +0.000 A 
ATOM     16  C   UNL     1       5.085   5.557  16.461  0.00  0.00    +0.000 A 
BRANCH  11  18
ATOM     17  C   UNL     1       3.758   2.595  17.818  0.00  0.00    +0.000 C 
ATOM     18  O   UNL     1       4.574   3.758  17.948  0.00  0.00    +0.000 OA
ENDBRANCH  11  18
ENDBRANCH   7  16
ENDBRANCH   1   9
BRANCH   6  19
ATOM     19  N   UNL     1       2.715   6.229  20.520  0.00  0.00    +0.000 N 
ATOM     20  H   UNL     1       2.983   6.515  21.457  0.00  0.00    +0.000 HD
BRANCH  19  21
ATOM     21  C   UNL     1       2.154   4.924  20.565  0.00  0.00    +0.000 A 
ATOM     22  C   UNL     1       2.560   4.042  21.564  0.00  0.00    +0.000 A 
ATOM     23  C   UNL     1       2.034   2.761  21.575  0.00  0.00    +0.000 A 
ATOM     24  N   UNL     1       1.123   2.310  20.685  0.00  0.00    +0.000 NA
ATOM     25  C   UNL     1       0.705   3.193  19.756  0.00  0.00    +0.000 A 
ATOM     26  C   UNL     1       1.165   4.496  19.674  0.00  0.00    +0.000 A 
ENDBRANCH  19  21
ENDBRANCH   6  19
TORSDOF 5
ENDMDL
MODEL 6
REMARK VINA RESULT:      -7.6      1.405      3.957
REMARK  Name = 
REMARK  6 active torsions:
REMARK  status: ('A' for Active; 'I' for Inactive)
REMARK    1  A    between atoms: C_1  and  O_2
REMARK    2  A    between atoms: O_2  and  C_3
REMARK    3  A    between atoms: C_8  and  C_9
REMARK    4  A    between atoms: N_11  and  C_12
REMARK    5  A    between atoms: C_17  and  N_18
REMARK    6  A    between atoms: N_18  and  C_19
REMARK                            x       y       z     vdW  Elec       q    Type
REMARK                         _______ _______ _______ _____ _____    ______ ____
ROOT
ATOM      1  C   UNL     1       2.541   7.287  18.835  0.00  0.00    +0.000 A 
ATOM      2  C   UNL     1       2.044   8.571  18.554  0.00  0.00    +0.000 A 
ATOM      3  C   UNL     1       1.220   9.239  19.459  0.00  0.00    +0.000 A 
ATOM      4  C   UNL     1       0.860   8.624  20.649  0.00  0.00    +0.000 A 
ATOM      5  C   UNL     1       1.334   7.344  20.934  0.00  0.00    +0.000 A 
ATOM      6  C   UNL     1       2.218   6.674  20.064  0.00  0.00    +0.000 A 
ENDROOT
BRANCH   1   9
ATOM      7  C   UNL     1       4.634   6.175  18.128  0.00  0.00    +0.000 C 
ATOM      8  O   UNL     1       5.163   6.191  19.239  0.00  0.00    +0.000 OA
ATOM      9  N   UNL     1       3.342   6.607  17.885  0.00  0.00    +0.000 N 
ATOM     10  H   UNL     1       2.932   6.414  16.979  0.00  0.00    +0.000 HD
BRANCH   7  16
ATOM     11  C   UNL     1       6.494   6.190  16.370  0.00  0.00    +0.000 A 
ATOM     12  N   UNL     1       7.192   5.600  15.368  0.00  0.00    +0.000 NA
ATOM     13  C   UNL     1       6.815   4.359  14.989  0.00  0.00    +0.000 A 
ATOM     14  C   UNL     1       5.761   3.673  15.557  0.00  0.00    +0.000 A 
ATOM     15  C   UNL     1       5.057   4.295  16.581  0.00  0.00    +0.000 A 
ATOM     16  C   UNL     1       5.413   5.585  17.008  0.00  0.00    +0.000 A 
BRANCH  11  18
ATOM     17  C   UNL     1       7.885   7.498  17.733  0.00  0.00    +0.000 C 
ATOM     18  O   UNL     1       6.857   7.470  16.743  0.00  0.00    +0.000 OA
ENDBRANCH  11  18
ENDBRANCH   7  16
ENDBRANCH   1   9
BRANCH   6  19
ATOM     19  N   UNL     1       2.756   5.407  20.440  0.00  0.00    +0.000 N 
ATOM     20  H   UNL     1       2.855   5.336  21.449  0.00  0.00    +0.000 HD
BRANCH  19  21
ATOM     21  C   UNL     1       2.344   4.153  19.915  0.00  0.00    +0.000 A 
ATOM     22  C   UNL     1       3.304   3.184  19.631  0.00  0.00    +0.000 A 
ATOM     23  C   UNL     1       2.892   1.980  19.085  0.00  0.00    +0.000 A 
ATOM     24  N   UNL     1       1.604   1.667  18.827  0.00  0.00    +0.000 NA
ATOM     25  C   UNL     1       0.684   2.597  19.155  0.00  0.00    +0.000 A 
ATOM     26  C   UNL     1       0.999   3.823  19.714  0.00  0.00    +0.000 A 
ENDBRANCH  19  21
ENDBRANCH   6  19
TORSDOF 5
ENDMDL
MODEL 7
REMARK VINA RESULT:      -7.5      1.989      5.896
REMARK  Name = 
REMARK  6 active torsions:
REMARK  status: ('A' for Active; 'I' for Inactive)
REMARK    1  A    between atoms: C_1  and  O_2
REMARK    2  A    between atoms: O_2  and  C_3
REMARK    3  A    between atoms: C_8  and  C_9
REMARK    4  A    between atoms: N_11  and  C_12
REMARK    5  A    between atoms: C_17  and  N_18
REMARK    6  A    between atoms: N_18  and  C_19
REMARK                            x       y       z     vdW  Elec       q    Type
REMARK                         _______ _______ _______ _____ _____    ______ ____
ROOT
ATOM      1  C   UNL     1       2.013   4.338  18.724  0.00  0.00    +0.000 A 
ATOM      2  C   UNL     1       1.406   3.549  19.715  0.00  0.00    +0.000 A 
ATOM      3  C   UNL     1       1.662   2.181  19.806  0.00  0.00    +0.000 A 
ATOM      4  C   UNL     1       2.511   1.576  18.891  0.00  0.00    +0.000 A 
ATOM      5  C   UNL     1       3.109   2.345  17.893  0.00  0.00    +0.000 A 
ATOM      6  C   UNL     1       2.914   3.740  17.819  0.00  0.00    +0.000 A 
ENDROOT
BRANCH   1   9
ATOM      7  C   UNL     1       2.522   6.730  19.098  0.00  0.00    +0.000 C 
ATOM      8  O   UNL     1       3.666   6.548  19.514  0.00  0.00    +0.000 OA
ATOM      9  N   UNL     1       1.707   5.717  18.621  0.00  0.00    +0.000 N 
ATOM     10  H   UNL     1       0.844   5.973  18.155  0.00  0.00    +0.000 HD
BRANCH   7  16
ATOM     11  C   UNL     1       1.412   8.812  20.088  0.00  0.00    +0.000 A 
ATOM     12  N   UNL     1       1.002  10.102  19.997  0.00  0.00    +0.000 NA
ATOM     13  C   UNL     1       1.221  10.748  18.831  0.00  0.00    +0.000 A 
ATOM     14  C   UNL     1       1.826  10.164  17.735  0.00  0.00    +0.000 A 
ATOM     15  C   UNL     1       2.237   8.842  17.848  0.00  0.00    +0.000 A 
ATOM     16  C   UNL     1       2.029   8.131  19.042  0.00  0.00    +0.000 A 
BRANCH  11  18
ATOM     17  C   UNL     1       0.943   9.010  22.378  0.00  0.00    +0.000 C 
ATOM     18  O   UNL     1       1.165   8.139  21.269  0.00  0.00    +0.000 OA
ENDBRANCH  11  18
ENDBRANCH   7  16
ENDBRANCH   1   9
BRANCH   6  19
ATOM     19  N   UNL     1       3.622   4.501  16.842  0.00  0.00    +0.000 N 
ATOM     20  H   UNL     1       3.241   5.439  16.762  0.00  0.00    +0.000 HD
BRANCH  19  21
ATOM     21  C   UNL     1       5.036   4.551  16.708  0.00  0.00    +0.000 A 
ATOM     22  C   UNL     1       5.599   4.576  15.434  0.00  0.00    +0.000 A 
ATOM     23  C   UNL     1       6.980   4.587  15.318  0.00  0.00    +0.000 A 
ATOM     24  N   UNL     1       7.827   4.599  16.369  0.00  0.00    +0.000 NA
ATOM     25  C   UNL     1       7.264   4.626  17.593  0.00  0.00    +0.000 A 
ATOM     26  C   UNL     1       5.896   4.628  17.808  0.00  0.00    +0.000 A 
ENDBRANCH  19  21
ENDBRANCH   6  19
TORSDOF 5
ENDMDL
MODEL 8
REMARK VINA RESULT:      -7.4      1.629      4.260
REMARK  Name = 
REMARK  6 active torsions:
REMARK  status: ('A' for Active; 'I' for Inactive)
REMARK    1  A    between atoms: C_1  and  O_2
REMARK    2  A    between atoms: O_2  and  C_3
REMARK    3  A    between atoms: C_8  and  C_9
REMARK    4  A    between atoms: N_11  and  C_12
REMARK    5  A    between atoms: C_17  and  N_18
REMARK    6  A    between atoms: N_18  and  C_19
REMARK                            x       y       z     vdW  Elec       q    Type
REMARK                         _______ _______ _______ _____ _____    ______ ____
ROOT
ATOM      1  C   UNL     1       2.455   7.496  18.340  0.00  0.00    +0.000 A 
ATOM      2  C   UNL     1       1.967   8.647  17.700  0.00  0.00    +0.000 A 
ATOM      3  C   UNL     1       1.230   9.603  18.399  0.00  0.00    +0.000 A 
ATOM      4  C   UNL     1       0.949   9.409  19.743  0.00  0.00    +0.000 A 
ATOM      5  C   UNL     1       1.414   8.263  20.387  0.00  0.00    +0.000 A 
ATOM      6  C   UNL     1       2.213   7.314  19.718  0.00  0.00    +0.000 A 
ENDROOT
BRANCH   1   9
ATOM      7  C   UNL     1       4.512   6.603  17.293  0.00  0.00    +0.000 C 
ATOM      8  O   UNL     1       5.267   7.456  17.759  0.00  0.00    +0.000 OA
ATOM      9  N   UNL     1       3.165   6.515  17.604  0.00  0.00    +0.000 N 
ATOM     10  H   UNL     1       2.654   5.694  17.302  0.00  0.00    +0.000 HD
BRANCH   7  16
ATOM     11  C   UNL     1       5.038   4.195  16.608  0.00  0.00    +0.000 A 
ATOM     12  N   UNL     1       5.578   3.288  15.756  0.00  0.00    +0.000 NA
ATOM     13  C   UNL     1       6.205   3.760  14.655  0.00  0.00    +0.000 A 
ATOM     14  C   UNL     1       6.330   5.104  14.364  0.00  0.00    +0.000 A 
ATOM     15  C   UNL     1       5.772   6.016  15.250  0.00  0.00    +0.000 A 
ATOM     16  C   UNL     1       5.110   5.571  16.407  0.00  0.00    +0.000 A 
BRANCH  11  18
ATOM     17  C   UNL     1       5.252   3.777  18.906  0.00  0.00    +0.000 C 
ATOM     18  O   UNL     1       4.420   3.718  17.749  0.00  0.00    +0.000 OA
ENDBRANCH  11  18
ENDBRANCH   7  16
ENDBRANCH   1   9
BRANCH   6  19
ATOM     19  N   UNL     1       2.749   6.206  20.439  0.00  0.00    +0.000 N 
ATOM     20  H   UNL     1       3.043   6.483  21.371  0.00  0.00    +0.000 HD
BRANCH  19  21
ATOM     21  C   UNL     1       2.176   4.906  20.490  0.00  0.00    +0.000 A 
ATOM     22  C   UNL     1       1.445   4.442  19.399  0.00  0.00    +0.000 A 
ATOM     23  C   UNL     1       0.861   3.188  19.476  0.00  0.00    +0.000 A 
ATOM     24  N   UNL     1       0.974   2.364  20.540  0.00  0.00    +0.000 NA
ATOM     25  C   UNL     1       1.728   2.810  21.565  0.00  0.00    +0.000 A 
ATOM     26  C   UNL     1       2.358   4.043  21.575  0.00  0.00    +0.000 A 
ENDBRANCH  19  21
ENDBRANCH   6  19
TORSDOF 5
ENDMDL
MODEL 9
REMARK VINA RESULT:      -7.4      2.123      5.683
REMARK  Name = 
REMARK  6 active torsions:
REMARK  status: ('A' for Active; 'I' for Inactive)
REMARK    1  A    between atoms: C_1  and  O_2
REMARK    2  A    between atoms: O_2  and  C_3
REMARK    3  A    between atoms: C_8  and  C_9
REMARK    4  A    between atoms: N_11  and  C_12
REMARK    5  A    between atoms: C_17  and  N_18
REMARK    6  A    between atoms: N_18  and  C_19
REMARK                            x       y       z     vdW  Elec       q    Type
REMARK                         _______ _______ _______ _____ _____    ______ ____
ROOT
ATOM      1  C   UNL     1       2.380   4.244  18.335  0.00  0.00    +0.000 A 
ATOM      2  C   UNL     1       1.643   3.394  19.175  0.00  0.00    +0.000 A 
ATOM      3  C   UNL     1       1.907   2.026  19.229  0.00  0.00    +0.000 A 
ATOM      4  C   UNL     1       2.897   1.483  18.424  0.00  0.00    +0.000 A 
ATOM      5  C   UNL     1       3.626   2.312  17.574  0.00  0.00    +0.000 A 
ATOM      6  C   UNL     1       3.420   3.707  17.547  0.00  0.00    +0.000 A 
ENDROOT
BRANCH   1   9
ATOM      7  C   UNL     1       2.559   6.577  19.138  0.00  0.00    +0.000 C 
ATOM      8  O   UNL     1       3.440   6.354  19.967  0.00  0.00    +0.000 OA
ATOM      9  N   UNL     1       2.069   5.624  18.261  0.00  0.00    +0.000 N 
ATOM     10  H   UNL     1       1.460   5.928  17.510  0.00  0.00    +0.000 HD
BRANCH   7  16
ATOM     11  C   UNL     1       1.316   8.639  20.003  0.00  0.00    +0.000 A 
ATOM     12  N   UNL     1       0.901   9.924  19.872  0.00  0.00    +0.000 NA
ATOM     13  C   UNL     1       1.243  10.580  18.741  0.00  0.00    +0.000 A 
ATOM     14  C   UNL     1       1.976  10.010  17.719  0.00  0.00    +0.000 A 
ATOM     15  C   UNL     1       2.389   8.693  17.872  0.00  0.00    +0.000 A 
ATOM     16  C   UNL     1       2.057   7.972  19.032  0.00  0.00    +0.000 A 
BRANCH  11  18
ATOM     17  C   UNL     1      -0.189   8.524  21.799  0.00  0.00    +0.000 C 
ATOM     18  O   UNL     1       0.945   7.956  21.146  0.00  0.00    +0.000 OA
ENDBRANCH  11  18
ENDBRANCH   7  16
ENDBRANCH   1   9
BRANCH   6  19
ATOM     19  N   UNL     1       4.255   4.530  16.734  0.00  0.00    +0.000 N 
ATOM     20  H   UNL     1       3.702   5.113  16.113  0.00  0.00    +0.000 HD
BRANCH  19  21
ATOM     21  C   UNL     1       5.382   5.263  17.195  0.00  0.00    +0.000 A 
ATOM     22  C   UNL     1       6.340   4.620  17.976  0.00  0.00    +0.000 A 
ATOM     23  C   UNL     1       7.414   5.355  18.450  0.00  0.00    +0.000 A 
ATOM     24  N   UNL     1       7.612   6.664  18.182  0.00  0.00    +0.000 NA
ATOM     25  C   UNL     1       6.702   7.256  17.384  0.00  0.00    +0.000 A 
ATOM     26  C   UNL     1       5.603   6.601  16.855  0.00  0.00    +0.000 A 
ENDBRANCH  19  21
ENDBRANCH   6  19
TORSDOF 5
ENDMDL
