MODEL 1
REMARK VINA RESULT:      -7.1      0.000      0.000
REMARK  Name = 
REMARK  13 active torsions:
REMARK  status: ('A' for Active; 'I' for Inactive)
REMARK    1  A    between atoms: C_1  and  S_2
REMARK    2  A    between atoms: S_2  and  C_3
REMARK    3  A    between atoms: C_8  and  N_9
REMARK    4  A    between atoms: C_10  and  C_12
REMARK    5  A    between atoms: C_12  and  N_13
REMARK    6  A    between atoms: N_13  and  C_14
REMARK    7  A    between atoms: N_13  and  C_15
REMARK    8  A    between atoms: C_15  and  C_16
REMARK    9  A    between atoms: C_16  and  C_18
REMARK   10  A    between atoms: C_20  and  C_21
REMARK   11  A    between atoms: C_22  and  C_23
REMARK   12  A    between atoms: C_23  and  C_24
REMARK   13  A    between atoms: C_26  and  C_27
REMARK                            x       y       z     vdW  Elec       q    Type
REMARK                         _______ _______ _______ _____ _____    ______ ____
ROOT
ATOM      1  N   UNL     1       2.608   2.839  21.424  0.00  0.00    +0.000 NA
ATOM      2  C   UNL     1       1.604   1.834  21.769  0.00  0.00    +0.000 C 
ENDROOT
BRANCH   1   3
ATOM      3  C   UNL     1       2.250   4.179  21.954  0.00  0.00    +0.000 C 
BRANCH   3   5
ATOM      4  N   UNL     1       2.408   6.300  20.733  0.00  0.00    +0.000 N 
ATOM      5  C   UNL     1       1.688   5.128  20.890  0.00  0.00    +0.000 C 
ATOM      6  O   UNL     1       0.688   4.812  20.243  0.00  0.00    +0.000 OA
ATOM      7  H   UNL     1       3.057   6.575  21.465  0.00  0.00    +0.000 HD
BRANCH   4  13
ATOM      8  C   UNL     1       1.531   8.452  19.982  0.00  0.00    +0.000 A 
ATOM      9  C   UNL     1       1.362   9.423  18.982  0.00  0.00    +0.000 A 
ATOM     10  C   UNL     1       1.863   9.204  17.700  0.00  0.00    +0.000 A 
ATOM     11  C   UNL     1       2.547   8.024  17.412  0.00  0.00    +0.000 A 
ATOM     12  C   UNL     1       2.733   7.068  18.409  0.00  0.00    +0.000 A 
ATOM     13  C   UNL     1       2.226   7.260  19.699  0.00  0.00    +0.000 A 
BRANCH   8  15
ATOM     14  C   UNL     1      -0.156  10.240  21.132  0.00  0.00    +0.000 C 
ATOM     15  S   UNL     1       0.761   8.739  21.576  0.00  0.00    +0.000 S 
ENDBRANCH   8  15
ENDBRANCH   4  13
ENDBRANCH   3   5
ENDBRANCH   1   3
BRANCH   1  16
ATOM     16  C   UNL     1       2.941   2.816  19.985  0.00  0.00    +0.000 C 
BRANCH  16  17
ATOM     17  C   UNL     1       4.458   2.651  19.728  0.00  0.00    +0.000 C 
ATOM     18  O   UNL     1       5.089   1.688  20.165  0.00  0.00    +0.000 OA
BRANCH  17  19
ATOM     19  C   UNL     1       5.127   3.716  18.978  0.00  0.00    +0.000 A 
ATOM     20  N   UNL     1       6.079   4.567  19.485  0.00  0.00    +0.000 N 
ATOM     21  C   UNL     1       6.613   5.333  18.487  0.00  0.00    +0.000 A 
ATOM     22  C   UNL     1       7.788   6.213  18.740  0.00  0.00    +0.000 C 
ATOM     23  C   UNL     1       5.895   5.103  17.318  0.00  0.00    +0.000 A 
ATOM     24  C   UNL     1       4.931   4.079  17.640  0.00  0.00    +0.000 A 
ATOM     25  C   UNL     1       3.892   3.467  16.756  0.00  0.00    +0.000 C 
ATOM     26  H   UNL     1       6.391   4.599  20.447  0.00  0.00    +0.000 HD
BRANCH  23  27
ATOM     27  C   UNL     1       6.181   5.818  16.060  0.00  0.00    +0.000 C 
ATOM     28  C   UNL     1       5.153   6.728  15.443  0.00  0.00    +0.000 C 
ATOM     29  O   UNL     1       7.258   5.667  15.478  0.00  0.00    +0.000 OA
ENDBRANCH  23  27
ENDBRANCH  17  19
ENDBRANCH  16  17
ENDBRANCH   1  16
TORSDOF 8
ENDMDL
MODEL 2
REMARK VINA RESULT:      -6.8      2.709      6.014
REMARK  Name = 
REMARK  13 active torsions:
REMARK  status: ('A' for Active; 'I' for Inactive)
REMARK    1  A    between atoms: C_1  and  S_2
REMARK    2  A    between atoms: S_2  and  C_3
REMARK    3  A    between atoms: C_8  and  N_9
REMARK    4  A    between atoms: C_10  and  C_12
REMARK    5  A    between atoms: C_12  and  N_13
REMARK    6  A    between atoms: N_13  and  C_14
REMARK    7  A    between atoms: N_13  and  C_15
REMARK    8  A    between atoms: C_15  and  C_16
REMARK    9  A    between atoms: C_16  and  C_18
REMARK   10  A    between atoms: C_20  and  C_21
REMARK   11  A    between atoms: C_22  and  C_23
REMARK   12  A    between atoms: C_23  and  C_24
REMARK   13  A    between atoms: C_26  and  C_27
REMARK                            x       y       z     vdW  Elec       q    Type
REMARK                         _______ _______ _______ _____ _____    ______ ____
ROOT
ATOM      1  N   UNL     1       2.011   3.580  19.559  0.00  0.00    +0.000 NA
ATOM      2  C   UNL     1       0.890   2.807  20.091  0.00  0.00    +0.000 C 
ENDROOT
BRANCH   1   3
ATOM      3  C   UNL     1       2.970   2.721  18.820  0.00  0.00    +0.000 C 
BRANCH   3   5
ATOM      4  N   UNL     1       4.793   3.588  17.428  0.00  0.00    +0.000 N 
ATOM      5  C   UNL     1       3.435   3.326  17.491  0.00  0.00    +0.000 C 
ATOM      6  O   UNL     1       2.627   3.521  16.582  0.00  0.00    +0.000 OA
ATOM      7  H   UNL     1       5.324   3.623  18.293  0.00  0.00    +0.000 HD
BRANCH   4  13
ATOM      8  C   UNL     1       6.764   4.604  16.404  0.00  0.00    +0.000 A 
ATOM      9  C   UNL     1       7.505   4.963  15.267  0.00  0.00    +0.000 A 
ATOM     10  C   UNL     1       7.002   4.706  13.992  0.00  0.00    +0.000 A 
ATOM     11  C   UNL     1       5.766   4.080  13.845  0.00  0.00    +0.000 A 
ATOM     12  C   UNL     1       5.038   3.705  14.973  0.00  0.00    +0.000 A 
ATOM     13  C   UNL     1       5.517   3.966  16.263  0.00  0.00    +0.000 A 
BRANCH   8  15
ATOM     14  C   UNL     1       7.450   6.862  17.745  0.00  0.00    +0.000 C 
ATOM     15  S   UNL     1       7.409   5.067  18.013  0.00  0.00    +0.000 S 
ENDBRANCH   8  15
ENDBRANCH   4  13
ENDBRANCH   3   5
ENDBRANCH   1   3
BRANCH   1  16
ATOM     16  C   UNL     1       2.625   4.441  20.591  0.00  0.00    +0.000 C 
BRANCH  16  17
ATOM     17  C   UNL     1       3.256   5.722  19.997  0.00  0.00    +0.000 C 
ATOM     18  O   UNL     1       4.427   5.754  19.617  0.00  0.00    +0.000 OA
BRANCH  17  19
ATOM     19  C   UNL     1       2.412   6.919  19.945  0.00  0.00    +0.000 A 
ATOM     20  N   UNL     1       1.664   7.408  20.987  0.00  0.00    +0.000 N 
ATOM     21  C   UNL     1       1.124   8.620  20.658  0.00  0.00    +0.000 A 
ATOM     22  C   UNL     1       0.414   9.446  21.674  0.00  0.00    +0.000 C 
ATOM     23  C   UNL     1       1.385   8.873  19.315  0.00  0.00    +0.000 A 
ATOM     24  C   UNL     1       2.196   7.771  18.856  0.00  0.00    +0.000 A 
ATOM     25  C   UNL     1       2.745   7.526  17.486  0.00  0.00    +0.000 C 
ATOM     26  H   UNL     1       1.560   6.974  21.895  0.00  0.00    +0.000 HD
BRANCH  23  27
ATOM     27  C   UNL     1       0.889  10.077  18.625  0.00  0.00    +0.000 C 
ATOM     28  C   UNL     1       1.659  11.369  18.682  0.00  0.00    +0.000 C 
ATOM     29  O   UNL     1      -0.180  10.056  18.008  0.00  0.00    +0.000 OA
ENDBRANCH  23  27
ENDBRANCH  17  19
ENDBRANCH  16  17
ENDBRANCH   1  16
TORSDOF 8
ENDMDL
MODEL 3
REMARK VINA RESULT:      -6.7      2.430      6.458
REMARK  Name = 
REMARK  13 active torsions:
REMARK  status: ('A' for Active; 'I' for Inactive)
REMARK    1  A    between atoms: C_1  and  S_2
REMARK    2  A    between atoms: S_2  and  C_3
REMARK    3  A    between atoms: C_8  and  N_9
REMARK    4  A    between atoms: C_10  and  C_12
REMARK    5  A    between atoms: C_12  and  N_13
REMARK    6  A    between atoms: N_13  and  C_14
REMARK    7  A    between atoms: N_13  and  C_15
REMARK    8  A    between atoms: C_15  and  C_16
REMARK    9  A    between atoms: C_16  and  C_18
REMARK   10  A    between atoms: C_20  and  C_21
REMARK   11  A    between atoms: C_22  and  C_23
REMARK   12  A    between atoms: C_23  and  C_24
REMARK   13  A    between atoms: C_26  and  C_27
REMARK                            x       y       z     vdW  Elec       q    Type
REMARK                         _______ _______ _______ _____ _____    ______ ____
ROOT
ATOM      1  N   UNL     1       2.034   4.033  19.995  0.00  0.00    +0.000 NA
ATOM      2  C   UNL     1       0.646   3.627  20.213  0.00  0.00    +0.000 C 
ENDROOT
BRANCH   1   3
ATOM      3  C   UNL     1       2.978   2.913  20.231  0.00  0.00    +0.000 C 
BRANCH   3   5
ATOM      4  N   UNL     1       4.013   3.728  18.162  0.00  0.00    +0.000 N 
ATOM      5  C   UNL     1       4.162   2.895  19.259  0.00  0.00    +0.000 C 
ATOM      6  O   UNL     1       5.148   2.195  19.495  0.00  0.00    +0.000 OA
ATOM      7  H   UNL     1       3.085   4.069  17.933  0.00  0.00    +0.000 HD
BRANCH   4  13
ATOM      8  C   UNL     1       6.123   4.831  17.617  0.00  0.00    +0.000 A 
ATOM      9  C   UNL     1       7.144   5.136  16.703  0.00  0.00    +0.000 A 
ATOM     10  C   UNL     1       7.066   4.682  15.387  0.00  0.00    +0.000 A 
ATOM     11  C   UNL     1       5.979   3.911  14.980  0.00  0.00    +0.000 A 
ATOM     12  C   UNL     1       4.974   3.590  15.892  0.00  0.00    +0.000 A 
ATOM     13  C   UNL     1       5.024   4.047  17.214  0.00  0.00    +0.000 A 
BRANCH   8  15
ATOM     14  C   UNL     1       8.017   5.797  19.304  0.00  0.00    +0.000 C 
ATOM     15  S   UNL     1       6.220   5.542  19.261  0.00  0.00    +0.000 S 
ENDBRANCH   8  15
ENDBRANCH   4  13
ENDBRANCH   3   5
ENDBRANCH   1   3
BRANCH   1  16
ATOM     16  C   UNL     1       2.364   5.279  20.716  0.00  0.00    +0.000 C 
BRANCH  16  17
ATOM     17  C   UNL     1       2.311   6.527  19.803  0.00  0.00    +0.000 C 
ATOM     18  O   UNL     1       2.834   6.539  18.689  0.00  0.00    +0.000 OA
BRANCH  17  19
ATOM     19  C   UNL     1       1.647   7.718  20.339  0.00  0.00    +0.000 A 
ATOM     20  N   UNL     1       1.099   7.824  21.594  0.00  0.00    +0.000 N 
ATOM     21  C   UNL     1       0.703   9.111  21.833  0.00  0.00    +0.000 A 
ATOM     22  C   UNL     1       0.238   9.532  23.184  0.00  0.00    +0.000 C 
ATOM     23  C   UNL     1       0.845   9.844  20.660  0.00  0.00    +0.000 A 
ATOM     24  C   UNL     1       1.432   8.943  19.698  0.00  0.00    +0.000 A 
ATOM     25  C   UNL     1       1.783   9.207  18.268  0.00  0.00    +0.000 C 
ATOM     26  H   UNL     1       1.036   7.080  22.277  0.00  0.00    +0.000 HD
BRANCH  23  27
ATOM     27  C   UNL     1       0.451  11.262  20.561  0.00  0.00    +0.000 C 
ATOM     28  C   UNL     1      -0.808  11.662  19.840  0.00  0.00    +0.000 C 
ATOM     29  O   UNL     1       1.159  12.149  21.046  0.00  0.00    +0.000 OA
ENDBRANCH  23  27
ENDBRANCH  17  19
ENDBRANCH  16  17
ENDBRANCH   1  16
TORSDOF 8
ENDMDL
MODEL 4
REMARK VINA RESULT:      -6.7      3.895      8.304
REMARK  Name = 
REMARK  13 active torsions:
REMARK  status: ('A' for Active; 'I' for Inactive)
REMARK    1  A    between atoms: C_1  and  S_2
REMARK    2  A    between atoms: S_2  and  C_3
REMARK    3  A    between atoms: C_8  and  N_9
REMARK    4  A    between atoms: C_10  and  C_12
REMARK    5  A    between atoms: C_12  and  N_13
REMARK    6  A    between atoms: N_13  and  C_14
REMARK    7  A    between atoms: N_13  and  C_15
REMARK    8  A    between atoms: C_15  and  C_16
REMARK    9  A    between atoms: C_16  and  C_18
REMARK   10  A    between atoms: C_20  and  C_21
REMARK   11  A    between atoms: C_22  and  C_23
REMARK   12  A    between atoms: C_23  and  C_24
REMARK   13  A    between atoms: C_26  and  C_27
REMARK                            x       y       z     vdW  Elec       q    Type
REMARK                         _______ _______ _______ _____ _____    ______ ____
ROOT
ATOM      1  N   UNL     1       0.433   9.302  20.777  0.00  0.00    +0.000 NA
ATOM      2  C   UNL     1      -0.720   9.001  21.624  0.00  0.00    +0.000 C 
ENDROOT
BRANCH   1   3
ATOM      3  C   UNL     1       1.552   8.357  21.015  0.00  0.00    +0.000 C 
BRANCH   3   5
ATOM      4  N   UNL     1       2.730   6.489  19.948  0.00  0.00    +0.000 N 
ATOM      5  C   UNL     1       2.074   7.690  19.738  0.00  0.00    +0.000 C 
ATOM      6  O   UNL     1       1.877   8.214  18.640  0.00  0.00    +0.000 OA
ATOM      7  H   UNL     1       3.051   6.266  20.885  0.00  0.00    +0.000 HD
BRANCH   4  13
ATOM      8  C   UNL     1       2.468   4.345  18.807  0.00  0.00    +0.000 A 
ATOM      9  C   UNL     1       2.841   3.440  17.801  0.00  0.00    +0.000 A 
ATOM     10  C   UNL     1       3.894   3.746  16.939  0.00  0.00    +0.000 A 
ATOM     11  C   UNL     1       4.568   4.958  17.067  0.00  0.00    +0.000 A 
ATOM     12  C   UNL     1       4.185   5.867  18.052  0.00  0.00    +0.000 A 
ATOM     13  C   UNL     1       3.141   5.575  18.938  0.00  0.00    +0.000 A 
BRANCH   8  15
ATOM     14  C   UNL     1       2.269   3.091  21.207  0.00  0.00    +0.000 C 
ATOM     15  S   UNL     1       1.187   3.845  19.960  0.00  0.00    +0.000 S 
ENDBRANCH   8  15
ENDBRANCH   4  13
ENDBRANCH   3   5
ENDBRANCH   1   3
BRANCH   1  16
ATOM     16  C   UNL     1       0.808  10.729  20.842  0.00  0.00    +0.000 C 
BRANCH  16  17
ATOM     17  C   UNL     1       0.700  11.436  19.470  0.00  0.00    +0.000 C 
ATOM     18  O   UNL     1       1.617  12.123  19.020  0.00  0.00    +0.000 OA
BRANCH  17  19
ATOM     19  C   UNL     1      -0.563  11.290  18.742  0.00  0.00    +0.000 A 
ATOM     20  N   UNL     1      -0.773  10.449  17.677  0.00  0.00    +0.000 N 
ATOM     21  C   UNL     1      -2.096  10.437  17.334  0.00  0.00    +0.000 A 
ATOM     22  C   UNL     1      -2.618   9.474  16.325  0.00  0.00    +0.000 C 
ATOM     23  C   UNL     1      -2.757  11.407  18.080  0.00  0.00    +0.000 A 
ATOM     24  C   UNL     1      -1.768  11.966  18.969  0.00  0.00    +0.000 A 
ATOM     25  C   UNL     1      -1.932  13.058  19.977  0.00  0.00    +0.000 C 
ATOM     26  H   UNL     1      -0.071   9.872  17.232  0.00  0.00    +0.000 HD
BRANCH  23  27
ATOM     27  C   UNL     1      -4.194  11.693  17.910  0.00  0.00    +0.000 C 
ATOM     28  C   UNL     1      -5.136  11.624  19.082  0.00  0.00    +0.000 C 
ATOM     29  O   UNL     1      -4.655  11.971  16.800  0.00  0.00    +0.000 OA
ENDBRANCH  23  27
ENDBRANCH  17  19
ENDBRANCH  16  17
ENDBRANCH   1  16
TORSDOF 8
ENDMDL
MODEL 5
REMARK VINA RESULT:      -6.6      4.422      7.221
REMARK  Name = 
REMARK  13 active torsions:
REMARK  status: ('A' for Active; 'I' for Inactive)
REMARK    1  A    between atoms: C_1  and  S_2
REMARK    2  A    between atoms: S_2  and  C_3
REMARK    3  A    between atoms: C_8  and  N_9
REMARK    4  A    between atoms: C_10  and  C_12
REMARK    5  A    between atoms: C_12  and  N_13
REMARK    6  A    between atoms: N_13  and  C_14
REMARK    7  A    between atoms: N_13  and  C_15
REMARK    8  A    between atoms: C_15  and  C_16
REMARK    9  A    between atoms: C_16  and  C_18
REMARK   10  A    between atoms: C_20  and  C_21
REMARK   11  A    between atoms: C_22  and  C_23
REMARK   12  A    between atoms: C_23  and  C_24
REMARK   13  A    between atoms: C_26  and  C_27
REMARK                            x       y       z     vdW  Elec       q    Type
REMARK                         _______ _______ _______ _____ _____    ______ ____
ROOT
ATOM      1  N   UNL     1       7.319   6.839  17.558  0.00  0.00    +0.000 NA
ATOM      2  C   UNL     1       7.632   5.416  17.439  0.00  0.00    +0.000 C 
ENDROOT
BRANCH   1   3
ATOM      3  C   UNL     1       8.166   7.506  18.578  0.00  0.00    +0.000 C 
BRANCH   3   5
ATOM      4  N   UNL     1       9.313   9.600  19.139  0.00  0.00    +0.000 N 
ATOM      5  C   UNL     1       8.361   9.005  18.328  0.00  0.00    +0.000 C 
ATOM      6  O   UNL     1       7.712   9.576  17.450  0.00  0.00    +0.000 OA
ATOM      7  H   UNL     1       9.610   9.113  19.979  0.00  0.00    +0.000 HD
BRANCH   4  13
ATOM      8  C   UNL     1       9.772  11.802  20.089  0.00  0.00    +0.000 A 
ATOM      9  C   UNL     1      10.295  13.100  19.975  0.00  0.00    +0.000 A 
ATOM     10  C   UNL     1      10.854  13.527  18.771  0.00  0.00    +0.000 A 
ATOM     11  C   UNL     1      10.906  12.659  17.681  0.00  0.00    +0.000 A 
ATOM     12  C   UNL     1      10.404  11.364  17.799  0.00  0.00    +0.000 A 
ATOM     13  C   UNL     1       9.826  10.919  18.994  0.00  0.00    +0.000 A 
BRANCH   8  15
ATOM     14  C   UNL     1       8.369  13.007  22.076  0.00  0.00    +0.000 C 
ATOM     15  S   UNL     1       8.960  11.352  21.624  0.00  0.00    +0.000 S 
ENDBRANCH   8  15
ENDBRANCH   4  13
ENDBRANCH   3   5
ENDBRANCH   1   3
BRANCH   1  16
ATOM     16  C   UNL     1       5.869   7.074  17.714  0.00  0.00    +0.000 C 
BRANCH  16  17
ATOM     17  C   UNL     1       5.026   6.308  16.667  0.00  0.00    +0.000 C 
ATOM     18  O   UNL     1       5.055   6.600  15.471  0.00  0.00    +0.000 OA
BRANCH  17  19
ATOM     19  C   UNL     1       4.153   5.242  17.164  0.00  0.00    +0.000 A 
ATOM     20  N   UNL     1       4.401   3.896  17.052  0.00  0.00    +0.000 N 
ATOM     21  C   UNL     1       3.473   3.180  17.756  0.00  0.00    +0.000 A 
ATOM     22  C   UNL     1       3.618   1.710  17.943  0.00  0.00    +0.000 C 
ATOM     23  C   UNL     1       2.495   4.055  18.218  0.00  0.00    +0.000 A 
ATOM     24  C   UNL     1       2.923   5.374  17.819  0.00  0.00    +0.000 A 
ATOM     25  C   UNL     1       2.236   6.684  18.042  0.00  0.00    +0.000 C 
ATOM     26  H   UNL     1       5.184   3.477  16.566  0.00  0.00    +0.000 HD
BRANCH  23  27
ATOM     27  C   UNL     1       1.313   3.595  18.970  0.00  0.00    +0.000 C 
ATOM     28  C   UNL     1       1.086   4.036  20.390  0.00  0.00    +0.000 C 
ATOM     29  O   UNL     1       0.500   2.821  18.456  0.00  0.00    +0.000 OA
ENDBRANCH  23  27
ENDBRANCH  17  19
ENDBRANCH  16  17
ENDBRANCH   1  16
TORSDOF 8
ENDMDL
MODEL 6
REMARK VINA RESULT:      -6.4      1.269      1.522
REMARK  Name = 
REMARK  13 active torsions:
REMARK  status: ('A' for Active; 'I' for Inactive)
REMARK    1  A    between atoms: C_1  and  S_2
REMARK    2  A    between atoms: S_2  and  C_3
REMARK    3  A    between atoms: C_8  and  N_9
REMARK    4  A    between atoms: C_10  and  C_12
REMARK    5  A    between atoms: C_12  and  N_13
REMARK    6  A    between atoms: N_13  and  C_14
REMARK    7  A    between atoms: N_13  and  C_15
REMARK    8  A    between atoms: C_15  and  C_16
REMARK    9  A    between atoms: C_16  and  C_18
REMARK   10  A    between atoms: C_20  and  C_21
REMARK   11  A    between atoms: C_22  and  C_23
REMARK   12  A    between atoms: C_23  and  C_24
REMARK   13  A    between atoms: C_26  and  C_27
REMARK                            x       y       z     vdW  Elec       q    Type
REMARK                         _______ _______ _______ _____ _____    ______ ____
ROOT
ATOM      1  N   UNL     1       2.040   3.690  20.503  0.00  0.00    +0.000 NA
ATOM      2  C   UNL     1       0.612   3.806  20.207  0.00  0.00    +0.000 C 
ENDROOT
BRANCH   1   3
ATOM      3  C   UNL     1       2.612   4.978  20.965  0.00  0.00    +0.000 C 
BRANCH   3   5
ATOM      4  N   UNL     1       1.666   7.217  20.640  0.00  0.00    +0.000 N 
ATOM      5  C   UNL     1       2.310   6.154  20.030  0.00  0.00    +0.000 C 
ATOM      6  O   UNL     1       2.653   6.110  18.848  0.00  0.00    +0.000 OA
ATOM      7  H   UNL     1       1.215   7.064  21.537  0.00  0.00    +0.000 HD
BRANCH   4  13
ATOM      8  C   UNL     1       1.002   9.555  20.884  0.00  0.00    +0.000 A 
ATOM      9  C   UNL     1       0.796  10.833  20.339  0.00  0.00    +0.000 A 
ATOM     10  C   UNL     1       1.006  11.056  18.979  0.00  0.00    +0.000 A 
ATOM     11  C   UNL     1       1.434  10.013  18.160  0.00  0.00    +0.000 A 
ATOM     12  C   UNL     1       1.658   8.749  18.703  0.00  0.00    +0.000 A 
ATOM     13  C   UNL     1       1.439   8.498  20.063  0.00  0.00    +0.000 A 
BRANCH   8  15
ATOM     14  C   UNL     1      -0.734  10.525  22.732  0.00  0.00    +0.000 C 
ATOM     15  S   UNL     1       0.601   9.301  22.614  0.00  0.00    +0.000 S 
ENDBRANCH   8  15
ENDBRANCH   4  13
ENDBRANCH   3   5
ENDBRANCH   1   3
BRANCH   1  16
ATOM     16  C   UNL     1       2.781   3.048  19.398  0.00  0.00    +0.000 C 
BRANCH  16  17
ATOM     17  C   UNL     1       4.292   2.909  19.699  0.00  0.00    +0.000 C 
ATOM     18  O   UNL     1       4.721   2.078  20.500  0.00  0.00    +0.000 OA
BRANCH  17  19
ATOM     19  C   UNL     1       5.196   3.843  19.021  0.00  0.00    +0.000 A 
ATOM     20  N   UNL     1       6.118   4.647  19.644  0.00  0.00    +0.000 N 
ATOM     21  C   UNL     1       6.905   5.275  18.719  0.00  0.00    +0.000 A 
ATOM     22  C   UNL     1       8.096   6.066  19.134  0.00  0.00    +0.000 C 
ATOM     23  C   UNL     1       6.398   5.007  17.451  0.00  0.00    +0.000 A 
ATOM     24  C   UNL     1       5.291   4.105  17.650  0.00  0.00    +0.000 A 
ATOM     25  C   UNL     1       4.377   3.511  16.625  0.00  0.00    +0.000 C 
ATOM     26  H   UNL     1       6.247   4.735  20.644  0.00  0.00    +0.000 HD
BRANCH  23  27
ATOM     27  C   UNL     1       6.985   5.584  16.227  0.00  0.00    +0.000 C 
ATOM     28  C   UNL     1       6.976   4.814  14.934  0.00  0.00    +0.000 C 
ATOM     29  O   UNL     1       7.515   6.698  16.245  0.00  0.00    +0.000 OA
ENDBRANCH  23  27
ENDBRANCH  17  19
ENDBRANCH  16  17
ENDBRANCH   1  16
TORSDOF 8
ENDMDL
MODEL 7
REMARK VINA RESULT:      -6.3      1.483      1.874
REMARK  Name = 
REMARK  13 active torsions:
REMARK  status: ('A' for Active; 'I' for Inactive)
REMARK    1  A    between atoms: C_1  and  S_2
REMARK    2  A    between atoms: S_2  and  C_3
REMARK    3  A    between atoms: C_8  and  N_9
REMARK    4  A    between atoms: C_10  and  C_12
REMARK    5  A    between atoms: C_12  and  N_13
REMARK    6  A    between atoms: N_13  and  C_14
REMARK    7  A    between atoms: N_13  and  C_15
REMARK    8  A    between atoms: C_15  and  C_16
REMARK    9  A    between atoms: C_16  and  C_18
REMARK   10  A    between atoms: C_20  and  C_21
REMARK   11  A    between atoms: C_22  and  C_23
REMARK   12  A    between atoms: C_23  and  C_24
REMARK   13  A    between atoms: C_26  and  C_27
REMARK                            x       y       z     vdW  Elec       q    Type
REMARK                         _______ _______ _______ _____ _____    ______ ____
ROOT
ATOM      1  N   UNL     1       2.043   3.839  20.041  0.00  0.00    +0.000 NA
ATOM      2  C   UNL     1       1.627   4.225  18.693  0.00  0.00    +0.000 C 
ENDROOT
BRANCH   1   3
ATOM      3  C   UNL     1       2.290   5.024  20.900  0.00  0.00    +0.000 C 
BRANCH   3   5
ATOM      4  N   UNL     1       1.371   7.236  20.375  0.00  0.00    +0.000 N 
ATOM      5  C   UNL     1       2.393   6.337  20.118  0.00  0.00    +0.000 C 
ATOM      6  O   UNL     1       3.340   6.532  19.354  0.00  0.00    +0.000 OA
ATOM      7  H   UNL     1       0.525   6.897  20.822  0.00  0.00    +0.000 HD
BRANCH   4  13
ATOM      8  C   UNL     1       1.015   9.601  20.869  0.00  0.00    +0.000 A 
ATOM      9  C   UNL     1       0.985  10.945  20.464  0.00  0.00    +0.000 A 
ATOM     10  C   UNL     1       1.238  11.283  19.136  0.00  0.00    +0.000 A 
ATOM     11  C   UNL     1       1.536  10.286  18.209  0.00  0.00    +0.000 A 
ATOM     12  C   UNL     1       1.586   8.953  18.613  0.00  0.00    +0.000 A 
ATOM     13  C   UNL     1       1.321   8.589  19.939  0.00  0.00    +0.000 A 
BRANCH   8  15
ATOM     14  C   UNL     1      -0.712  10.494  22.763  0.00  0.00    +0.000 C 
ATOM     15  S   UNL     1       0.564   9.219  22.563  0.00  0.00    +0.000 S 
ENDBRANCH   8  15
ENDBRANCH   4  13
ENDBRANCH   3   5
ENDBRANCH   1   3
BRANCH   1  16
ATOM     16  C   UNL     1       3.145   2.856  20.018  0.00  0.00    +0.000 C 
BRANCH  16  17
ATOM     17  C   UNL     1       3.933   2.878  18.687  0.00  0.00    +0.000 C 
ATOM     18  O   UNL     1       3.740   2.041  17.804  0.00  0.00    +0.000 OA
BRANCH  17  19
ATOM     19  C   UNL     1       4.958   3.914  18.535  0.00  0.00    +0.000 A 
ATOM     20  N   UNL     1       5.797   4.352  19.530  0.00  0.00    +0.000 N 
ATOM     21  C   UNL     1       6.735   5.206  19.019  0.00  0.00    +0.000 A 
ATOM     22  C   UNL     1       7.872   5.685  19.855  0.00  0.00    +0.000 C 
ATOM     23  C   UNL     1       6.422   5.467  17.690  0.00  0.00    +0.000 A 
ATOM     24  C   UNL     1       5.270   4.652  17.387  0.00  0.00    +0.000 A 
ATOM     25  C   UNL     1       4.508   4.557  16.104  0.00  0.00    +0.000 C 
ATOM     26  H   UNL     1       5.774   4.055  20.497  0.00  0.00    +0.000 HD
BRANCH  23  27
ATOM     27  C   UNL     1       7.206   6.400  16.860  0.00  0.00    +0.000 C 
ATOM     28  C   UNL     1       7.481   7.803  17.331  0.00  0.00    +0.000 C 
ATOM     29  O   UNL     1       7.633   6.055  15.755  0.00  0.00    +0.000 OA
ENDBRANCH  23  27
ENDBRANCH  17  19
ENDBRANCH  16  17
ENDBRANCH   1  16
TORSDOF 8
ENDMDL
MODEL 8
REMARK VINA RESULT:      -6.1      2.896      7.185
REMARK  Name = 
REMARK  13 active torsions:
REMARK  status: ('A' for Active; 'I' for Inactive)
REMARK    1  A    between atoms: C_1  and  S_2
REMARK    2  A    between atoms: S_2  and  C_3
REMARK    3  A    between atoms: C_8  and  N_9
REMARK    4  A    between atoms: C_10  and  C_12
REMARK    5  A    between atoms: C_12  and  N_13
REMARK    6  A    between atoms: N_13  and  C_14
REMARK    7  A    between atoms: N_13  and  C_15
REMARK    8  A    between atoms: C_15  and  C_16
REMARK    9  A    between atoms: C_16  and  C_18
REMARK   10  A    between atoms: C_20  and  C_21
REMARK   11  A    between atoms: C_22  and  C_23
REMARK   12  A    between atoms: C_23  and  C_24
REMARK   13  A    between atoms: C_26  and  C_27
REMARK                            x       y       z     vdW  Elec       q    Type
REMARK                         _______ _______ _______ _____ _____    ______ ____
ROOT
ATOM      1  N   UNL     1       2.156   5.530  19.890  0.00  0.00    +0.000 NA
ATOM      2  C   UNL     1       1.018   4.748  20.372  0.00  0.00    +0.000 C 
ENDROOT
BRANCH   1   3
ATOM      3  C   UNL     1       3.447   4.856  20.177  0.00  0.00    +0.000 C 
BRANCH   3   5
ATOM      4  N   UNL     1       4.451   5.257  17.975  0.00  0.00    +0.000 N 
ATOM      5  C   UNL     1       4.140   4.301  18.928  0.00  0.00    +0.000 C 
ATOM      6  O   UNL     1       4.394   3.098  18.842  0.00  0.00    +0.000 OA
ATOM      7  H   UNL     1       3.992   6.161  18.025  0.00  0.00    +0.000 HD
BRANCH   4  13
ATOM      8  C   UNL     1       6.628   5.363  16.875  0.00  0.00    +0.000 A 
ATOM      9  C   UNL     1       7.445   5.146  15.754  0.00  0.00    +0.000 A 
ATOM     10  C   UNL     1       6.899   4.640  14.576  0.00  0.00    +0.000 A 
ATOM     11  C   UNL     1       5.540   4.336  14.513  0.00  0.00    +0.000 A 
ATOM     12  C   UNL     1       4.732   4.532  15.632  0.00  0.00    +0.000 A 
ATOM     13  C   UNL     1       5.256   5.053  16.821  0.00  0.00    +0.000 A 
BRANCH   8  15
ATOM     14  C   UNL     1       7.722   7.745  17.581  0.00  0.00    +0.000 C 
ATOM     15  S   UNL     1       7.365   6.127  18.321  0.00  0.00    +0.000 S 
ENDBRANCH   8  15
ENDBRANCH   4  13
ENDBRANCH   3   5
ENDBRANCH   1   3
BRANCH   1  16
ATOM     16  C   UNL     1       2.086   6.938  20.331  0.00  0.00    +0.000 C 
BRANCH  16  17
ATOM     17  C   UNL     1       1.870   7.919  19.155  0.00  0.00    +0.000 C 
ATOM     18  O   UNL     1       2.221   7.644  18.007  0.00  0.00    +0.000 OA
BRANCH  17  19
ATOM     19  C   UNL     1       1.267   9.216  19.470  0.00  0.00    +0.000 A 
ATOM     20  N   UNL     1       1.552  10.400  18.834  0.00  0.00    +0.000 N 
ATOM     21  C   UNL     1       0.705  11.385  19.259  0.00  0.00    +0.000 A 
ATOM     22  C   UNL     1       0.687  12.720  18.599  0.00  0.00    +0.000 C 
ATOM     23  C   UNL     1      -0.057  10.891  20.313  0.00  0.00    +0.000 A 
ATOM     24  C   UNL     1       0.319   9.506  20.458  0.00  0.00    +0.000 A 
ATOM     25  C   UNL     1      -0.179   8.505  21.452  0.00  0.00    +0.000 C 
ATOM     26  H   UNL     1       2.250  10.530  18.113  0.00  0.00    +0.000 HD
BRANCH  23  27
ATOM     27  C   UNL     1      -1.035  11.722  21.039  0.00  0.00    +0.000 C 
ATOM     28  C   UNL     1      -0.809  12.093  22.480  0.00  0.00    +0.000 C 
ATOM     29  O   UNL     1      -2.069  12.108  20.487  0.00  0.00    +0.000 OA
ENDBRANCH  23  27
ENDBRANCH  17  19
ENDBRANCH  16  17
ENDBRANCH   1  16
TORSDOF 8
ENDMDL
MODEL 9
REMARK VINA RESULT:      -6.0      4.356      6.347
REMARK  Name = 
REMARK  13 active torsions:
REMARK  status: ('A' for Active; 'I' for Inactive)
REMARK    1  A    between atoms: C_1  and  S_2
REMARK    2  A    between atoms: S_2  and  C_3
REMARK    3  A    between atoms: C_8  and  N_9
REMARK    4  A    between atoms: C_10  and  C_12
REMARK    5  A    between atoms: C_12  and  N_13
REMARK    6  A    between atoms: N_13  and  C_14
REMARK    7  A    between atoms: N_13  and  C_15
REMARK    8  A    between atoms: C_15  and  C_16
REMARK    9  A    between atoms: C_16  and  C_18
REMARK   10  A    between atoms: C_20  and  C_21
REMARK   11  A    between atoms: C_22  and  C_23
REMARK   12  A    between atoms: C_23  and  C_24
REMARK   13  A    between atoms: C_26  and  C_27
REMARK                            x       y       z     vdW  Elec       q    Type
REMARK                         _______ _______ _______ _____ _____    ______ ____
ROOT
ATOM      1  N   UNL     1      -0.259  10.040  19.197  0.00  0.00    +0.000 NA
ATOM      2  C   UNL     1      -1.033  10.144  17.961  0.00  0.00    +0.000 C 
ENDROOT
BRANCH   1   3
ATOM      3  C   UNL     1      -0.408  11.250  20.043  0.00  0.00    +0.000 C 
BRANCH   3   5
ATOM      4  N   UNL     1       0.889  12.967  18.866  0.00  0.00    +0.000 N 
ATOM      5  C   UNL     1       0.810  12.179  20.003  0.00  0.00    +0.000 C 
ATOM      6  O   UNL     1       1.607  12.198  20.941  0.00  0.00    +0.000 OA
ATOM      7  H   UNL     1       0.334  12.710  18.056  0.00  0.00    +0.000 HD
BRANCH   4  13
ATOM      8  C   UNL     1       1.373  15.360  18.905  0.00  0.00    +0.000 A 
ATOM      9  C   UNL     1       2.261  16.433  18.729  0.00  0.00    +0.000 A 
ATOM     10  C   UNL     1       3.563  16.199  18.290  0.00  0.00    +0.000 A 
ATOM     11  C   UNL     1       3.990  14.896  18.038  0.00  0.00    +0.000 A 
ATOM     12  C   UNL     1       3.114  13.829  18.231  0.00  0.00    +0.000 A 
ATOM     13  C   UNL     1       1.798  14.041  18.657  0.00  0.00    +0.000 A 
BRANCH   8  15
ATOM     14  C   UNL     1      -0.612  17.044  18.134  0.00  0.00    +0.000 C 
ATOM     15  S   UNL     1      -0.323  15.734  19.356  0.00  0.00    +0.000 S 
ENDBRANCH   8  15
ENDBRANCH   4  13
ENDBRANCH   3   5
ENDBRANCH   1   3
BRANCH   1  16
ATOM     16  C   UNL     1       1.139   9.636  18.941  0.00  0.00    +0.000 C 
BRANCH  16  17
ATOM     17  C   UNL     1       1.563   8.400  19.769  0.00  0.00    +0.000 C 
ATOM     18  O   UNL     1       1.237   8.266  20.948  0.00  0.00    +0.000 OA
BRANCH  17  19
ATOM     19  C   UNL     1       2.411   7.409  19.101  0.00  0.00    +0.000 A 
ATOM     20  N   UNL     1       3.132   7.626  17.953  0.00  0.00    +0.000 N 
ATOM     21  C   UNL     1       3.937   6.553  17.687  0.00  0.00    +0.000 A 
ATOM     22  C   UNL     1       4.950   6.606  16.596  0.00  0.00    +0.000 C 
ATOM     23  C   UNL     1       3.633   5.536  18.585  0.00  0.00    +0.000 A 
ATOM     24  C   UNL     1       2.640   6.081  19.479  0.00  0.00    +0.000 A 
ATOM     25  C   UNL     1       1.950   5.411  20.624  0.00  0.00    +0.000 C 
ATOM     26  H   UNL     1       3.122   8.473  17.399  0.00  0.00    +0.000 HD
BRANCH  23  27
ATOM     27  C   UNL     1       4.285   4.215  18.535  0.00  0.00    +0.000 C 
ATOM     28  C   UNL     1       3.725   3.113  17.677  0.00  0.00    +0.000 C 
ATOM     29  O   UNL     1       5.290   3.980  19.213  0.00  0.00    +0.000 OA
ENDBRANCH  23  27
ENDBRANCH  17  19
ENDBRANCH  16  17
ENDBRANCH   1  16
TORSDOF 8
ENDMDL
