MODEL 1
REMARK VINA RESULT:      -7.0      0.000      0.000
REMARK  Name = 
REMARK  12 active torsions:
REMARK  status: ('A' for Active; 'I' for Inactive)
REMARK    1  A    between atoms: C_1  and  O_2
REMARK    2  A    between atoms: O_2  and  C_3
REMARK    3  A    between atoms: C_5  and  C_6
REMARK    4  A    between atoms: C_6  and  O_8
REMARK    5  A    between atoms: O_8  and  C_9
REMARK    6  A    between atoms: C_9  and  C_10
REMARK    7  A    between atoms: C_10  and  N_11
REMARK    8  A    between atoms: C_12  and  C_14
REMARK    9  A    between atoms: C_21  and  O_22
REMARK   10  A    between atoms: O_22  and  C_23
REMARK   11  A    between atoms: C_24  and  O_25
REMARK   12  A    between atoms: O_25  and  C_26
REMARK                            x       y       z     vdW  Elec       q    Type
REMARK                         _______ _______ _______ _____ _____    ______ ____
ROOT
ATOM      1  C   UNL     1       3.058   2.972  17.826  0.00  0.00    +0.000 C 
ATOM      2  O   UNL     1       2.243   2.920  16.914  0.00  0.00    +0.000 OA
ENDROOT
BRANCH   1   5
ATOM      3  C   UNL     1       5.810   5.060  16.214  0.00  0.00    +0.000 A 
ATOM      4  C   UNL     1       4.687   4.222  16.396  0.00  0.00    +0.000 A 
ATOM      5  C   UNL     1       4.276   3.809  17.667  0.00  0.00    +0.000 A 
ATOM      6  C   UNL     1       5.018   4.216  18.780  0.00  0.00    +0.000 A 
ATOM      7  C   UNL     1       6.137   5.048  18.647  0.00  0.00    +0.000 A 
ATOM      8  C   UNL     1       6.526   5.508  17.360  0.00  0.00    +0.000 A 
BRANCH   3  10
ATOM      9  C   UNL     1       6.730   4.653  13.978  0.00  0.00    +0.000 C 
ATOM     10  O   UNL     1       6.176   5.457  14.963  0.00  0.00    +0.000 OA
ENDBRANCH   3  10
BRANCH   7  11
ATOM     11  O   UNL     1       6.784   5.374  19.801  0.00  0.00    +0.000 OA
ATOM     12  C   UNL     1       8.144   5.362  20.055  0.00  0.00    +0.000 C 
ENDBRANCH   7  11
BRANCH   8  13
ATOM     13  O   UNL     1       7.575   6.374  17.293  0.00  0.00    +0.000 OA
ATOM     14  C   UNL     1       7.627   7.738  17.448  0.00  0.00    +0.000 C 
ENDBRANCH   8  13
ENDBRANCH   1   5
BRANCH   1  15
ATOM     15  O   UNL     1       2.835   2.297  18.984  0.00  0.00    +0.000 OA
BRANCH  15  16
ATOM     16  C   UNL     1       1.583   1.972  19.483  0.00  0.00    +0.000 C 
BRANCH  16  17
ATOM     17  C   UNL     1       1.164   2.986  20.546  0.00  0.00    +0.000 C 
BRANCH  17  18
ATOM     18  N   UNL     1       1.092   4.323  19.981  0.00  0.00    +0.000 N 
ATOM     19  C   UNL     1       1.962   5.308  20.348  0.00  0.00    +0.000 C 
ATOM     20  O   UNL     1       2.829   5.060  21.177  0.00  0.00    +0.000 OA
ATOM     21  H   UNL     1       0.356   4.511  19.289  0.00  0.00    +0.000 HD
BRANCH  19  22
ATOM     22  C   UNL     1       1.900   6.690  19.766  0.00  0.00    +0.000 A 
ATOM     23  C   UNL     1       2.369   7.001  18.471  0.00  0.00    +0.000 A 
ATOM     24  C   UNL     1       2.293   8.308  17.986  0.00  0.00    +0.000 A 
ATOM     25  C   UNL     1       1.750   9.306  18.787  0.00  0.00    +0.000 A 
ATOM     26  N   UNL     1       1.296   9.006  20.031  0.00  0.00    +0.000 NA
ATOM     27  C   UNL     1       1.356   7.744  20.531  0.00  0.00    +0.000 A 
ENDBRANCH  19  22
ENDBRANCH  17  18
ENDBRANCH  16  17
ENDBRANCH  15  16
ENDBRANCH   1  15
TORSDOF 9
ENDMDL
MODEL 2
REMARK VINA RESULT:      -6.9      0.177      2.395
REMARK  Name = 
REMARK  12 active torsions:
REMARK  status: ('A' for Active; 'I' for Inactive)
REMARK    1  A    between atoms: C_1  and  O_2
REMARK    2  A    between atoms: O_2  and  C_3
REMARK    3  A    between atoms: C_5  and  C_6
REMARK    4  A    between atoms: C_6  and  O_8
REMARK    5  A    between atoms: O_8  and  C_9
REMARK    6  A    between atoms: C_9  and  C_10
REMARK    7  A    between atoms: C_10  and  N_11
REMARK    8  A    between atoms: C_12  and  C_14
REMARK    9  A    between atoms: C_21  and  O_22
REMARK   10  A    between atoms: O_22  and  C_23
REMARK   11  A    between atoms: C_24  and  O_25
REMARK   12  A    between atoms: O_25  and  C_26
REMARK                            x       y       z     vdW  Elec       q    Type
REMARK                         _______ _______ _______ _____ _____    ______ ____
ROOT
ATOM      1  C   UNL     1       3.182   2.849  17.896  0.00  0.00    +0.000 C 
ATOM      2  O   UNL     1       2.476   2.588  16.930  0.00  0.00    +0.000 OA
ENDROOT
BRANCH   1   5
ATOM      3  C   UNL     1       6.119   5.125  18.743  0.00  0.00    +0.000 A 
ATOM      4  C   UNL     1       5.018   4.248  18.861  0.00  0.00    +0.000 A 
ATOM      5  C   UNL     1       4.301   3.814  17.741  0.00  0.00    +0.000 A 
ATOM      6  C   UNL     1       4.669   4.290  16.479  0.00  0.00    +0.000 A 
ATOM      7  C   UNL     1       5.755   5.160  16.316  0.00  0.00    +0.000 A 
ATOM      8  C   UNL     1       6.515   5.561  17.448  0.00  0.00    +0.000 A 
BRANCH   3  10
ATOM      9  C   UNL     1       8.166   5.357  20.073  0.00  0.00    +0.000 C 
ATOM     10  O   UNL     1       6.806   5.517  19.853  0.00  0.00    +0.000 OA
ENDBRANCH   3  10
BRANCH   7  11
ATOM     11  O   UNL     1       6.018   5.561  15.040  0.00  0.00    +0.000 OA
ATOM     12  C   UNL     1       6.810   4.940  14.092  0.00  0.00    +0.000 C 
ENDBRANCH   7  11
BRANCH   8  13
ATOM     13  O   UNL     1       7.606   6.347  17.226  0.00  0.00    +0.000 OA
ATOM     14  C   UNL     1       7.784   7.701  17.370  0.00  0.00    +0.000 C 
ENDBRANCH   8  13
ENDBRANCH   1   5
BRANCH   1  15
ATOM     15  O   UNL     1       2.922   2.285  19.106  0.00  0.00    +0.000 OA
BRANCH  15  16
ATOM     16  C   UNL     1       1.669   1.880  19.538  0.00  0.00    +0.000 C 
BRANCH  16  17
ATOM     17  C   UNL     1       1.120   2.875  20.560  0.00  0.00    +0.000 C 
BRANCH  17  18
ATOM     18  N   UNL     1       1.082   4.216  20.001  0.00  0.00    +0.000 N 
ATOM     19  C   UNL     1       1.884   5.216  20.469  0.00  0.00    +0.000 C 
ATOM     20  O   UNL     1       2.660   4.977  21.386  0.00  0.00    +0.000 OA
ATOM     21  H   UNL     1       0.421   4.395  19.234  0.00  0.00    +0.000 HD
BRANCH  19  22
ATOM     22  C   UNL     1       1.855   6.602  19.895  0.00  0.00    +0.000 A 
ATOM     23  C   UNL     1       2.356   6.914  18.612  0.00  0.00    +0.000 A 
ATOM     24  C   UNL     1       2.310   8.224  18.134  0.00  0.00    +0.000 A 
ATOM     25  C   UNL     1       1.765   9.226  18.931  0.00  0.00    +0.000 A 
ATOM     26  N   UNL     1       1.280   8.924  20.162  0.00  0.00    +0.000 NA
ATOM     27  C   UNL     1       1.311   7.659  20.655  0.00  0.00    +0.000 A 
ENDBRANCH  19  22
ENDBRANCH  17  18
ENDBRANCH  16  17
ENDBRANCH  15  16
ENDBRANCH   1  15
TORSDOF 9
ENDMDL
MODEL 3
REMARK VINA RESULT:      -6.8      4.021      7.397
REMARK  Name = 
REMARK  12 active torsions:
REMARK  status: ('A' for Active; 'I' for Inactive)
REMARK    1  A    between atoms: C_1  and  O_2
REMARK    2  A    between atoms: O_2  and  C_3
REMARK    3  A    between atoms: C_5  and  C_6
REMARK    4  A    between atoms: C_6  and  O_8
REMARK    5  A    between atoms: O_8  and  C_9
REMARK    6  A    between atoms: C_9  and  C_10
REMARK    7  A    between atoms: C_10  and  N_11
REMARK    8  A    between atoms: C_12  and  C_14
REMARK    9  A    between atoms: C_21  and  O_22
REMARK   10  A    between atoms: O_22  and  C_23
REMARK   11  A    between atoms: C_24  and  O_25
REMARK   12  A    between atoms: O_25  and  C_26
REMARK                            x       y       z     vdW  Elec       q    Type
REMARK                         _______ _______ _______ _____ _____    ______ ____
ROOT
ATOM      1  C   UNL     1       5.728   6.320  16.337  0.00  0.00    +0.000 C 
ATOM      2  O   UNL     1       5.336   6.677  15.233  0.00  0.00    +0.000 OA
ENDROOT
BRANCH   1   5
ATOM      3  C   UNL     1       4.016   3.834  18.664  0.00  0.00    +0.000 A 
ATOM      4  C   UNL     1       4.889   4.405  17.712  0.00  0.00    +0.000 A 
ATOM      5  C   UNL     1       4.759   5.735  17.300  0.00  0.00    +0.000 A 
ATOM      6  C   UNL     1       3.716   6.505  17.826  0.00  0.00    +0.000 A 
ATOM      7  C   UNL     1       2.828   5.979  18.773  0.00  0.00    +0.000 A 
ATOM      8  C   UNL     1       2.990   4.643  19.229  0.00  0.00    +0.000 A 
BRANCH   3  10
ATOM      9  C   UNL     1       3.599   1.425  18.467  0.00  0.00    +0.000 C 
ATOM     10  O   UNL     1       4.180   2.539  19.055  0.00  0.00    +0.000 OA
ENDBRANCH   3  10
BRANCH   7  11
ATOM     11  O   UNL     1       1.848   6.820  19.211  0.00  0.00    +0.000 OA
ATOM     12  C   UNL     1       1.981   7.978  19.955  0.00  0.00    +0.000 C 
ENDBRANCH   7  11
BRANCH   8  13
ATOM     13  O   UNL     1       2.147   4.205  20.205  0.00  0.00    +0.000 OA
ATOM     14  C   UNL     1       0.931   3.572  20.127  0.00  0.00    +0.000 C 
ENDBRANCH   8  13
ENDBRANCH   1   5
BRANCH   1  15
ATOM     15  O   UNL     1       7.043   6.428  16.665  0.00  0.00    +0.000 OA
BRANCH  15  16
ATOM     16  C   UNL     1       7.526   7.040  17.812  0.00  0.00    +0.000 C 
BRANCH  16  17
ATOM     17  C   UNL     1       7.412   8.558  17.682  0.00  0.00    +0.000 C 
BRANCH  17  18
ATOM     18  N   UNL     1       8.603   9.208  18.202  0.00  0.00    +0.000 N 
ATOM     19  C   UNL     1       8.798  10.554  18.087  0.00  0.00    +0.000 C 
ATOM     20  O   UNL     1       7.945  11.234  17.531  0.00  0.00    +0.000 OA
ATOM     21  H   UNL     1       9.308   8.618  18.662  0.00  0.00    +0.000 HD
BRANCH  19  22
ATOM     22  C   UNL     1      10.022  11.236  18.625  0.00  0.00    +0.000 A 
ATOM     23  C   UNL     1      10.256  11.420  20.005  0.00  0.00    +0.000 A 
ATOM     24  C   UNL     1      11.410  12.069  20.447  0.00  0.00    +0.000 A 
ATOM     25  C   UNL     1      12.333  12.536  19.517  0.00  0.00    +0.000 A 
ATOM     26  N   UNL     1      12.109  12.355  18.190  0.00  0.00    +0.000 NA
ATOM     27  C   UNL     1      10.995  11.727  17.729  0.00  0.00    +0.000 A 
ENDBRANCH  19  22
ENDBRANCH  17  18
ENDBRANCH  16  17
ENDBRANCH  15  16
ENDBRANCH   1  15
TORSDOF 9
ENDMDL
MODEL 4
REMARK VINA RESULT:      -6.5      3.941      7.287
REMARK  Name = 
REMARK  12 active torsions:
REMARK  status: ('A' for Active; 'I' for Inactive)
REMARK    1  A    between atoms: C_1  and  O_2
REMARK    2  A    between atoms: O_2  and  C_3
REMARK    3  A    between atoms: C_5  and  C_6
REMARK    4  A    between atoms: C_6  and  O_8
REMARK    5  A    between atoms: O_8  and  C_9
REMARK    6  A    between atoms: C_9  and  C_10
REMARK    7  A    between atoms: C_10  and  N_11
REMARK    8  A    between atoms: C_12  and  C_14
REMARK    9  A    between atoms: C_21  and  O_22
REMARK   10  A    between atoms: O_22  and  C_23
REMARK   11  A    between atoms: C_24  and  O_25
REMARK   12  A    between atoms: O_25  and  C_26
REMARK                            x       y       z     vdW  Elec       q    Type
REMARK                         _______ _______ _______ _____ _____    ______ ____
ROOT
ATOM      1  C   UNL     1       5.409   6.709  16.400  0.00  0.00    +0.000 C 
ATOM      2  O   UNL     1       5.096   6.514  15.232  0.00  0.00    +0.000 OA
ENDROOT
BRANCH   1   5
ATOM      3  C   UNL     1       2.959   6.222  19.279  0.00  0.00    +0.000 A 
ATOM      4  C   UNL     1       3.756   6.817  18.275  0.00  0.00    +0.000 A 
ATOM      5  C   UNL     1       4.625   6.060  17.482  0.00  0.00    +0.000 A 
ATOM      6  C   UNL     1       4.723   4.685  17.714  0.00  0.00    +0.000 A 
ATOM      7  C   UNL     1       3.950   4.053  18.697  0.00  0.00    +0.000 A 
ATOM      8  C   UNL     1       3.031   4.814  19.470  0.00  0.00    +0.000 A 
BRANCH   3  10
ATOM      9  C   UNL     1       1.705   8.280  19.735  0.00  0.00    +0.000 C 
ATOM     10  O   UNL     1       2.111   6.986  20.024  0.00  0.00    +0.000 OA
ENDBRANCH   3  10
BRANCH   7  11
ATOM     11  O   UNL     1       4.135   2.710  18.837  0.00  0.00    +0.000 OA
ATOM     12  C   UNL     1       3.478   1.682  18.186  0.00  0.00    +0.000 C 
ENDBRANCH   7  11
BRANCH   8  13
ATOM     13  O   UNL     1       2.250   4.140  20.360  0.00  0.00    +0.000 OA
ATOM     14  C   UNL     1       0.967   3.663  20.250  0.00  0.00    +0.000 C 
ENDBRANCH   8  13
ENDBRANCH   1   5
BRANCH   1  15
ATOM     15  O   UNL     1       6.484   7.485  16.701  0.00  0.00    +0.000 OA
BRANCH  15  16
ATOM     16  C   UNL     1       7.648   7.028  17.299  0.00  0.00    +0.000 C 
BRANCH  16  17
ATOM     17  C   UNL     1       8.042   7.952  18.451  0.00  0.00    +0.000 C 
BRANCH  17  18
ATOM     18  N   UNL     1       8.513   9.230  17.945  0.00  0.00    +0.000 N 
ATOM     19  C   UNL     1       9.120  10.146  18.755  0.00  0.00    +0.000 C 
ATOM     20  O   UNL     1       9.272   9.884  19.942  0.00  0.00    +0.000 OA
ATOM     21  H   UNL     1       8.373   9.431  16.947  0.00  0.00    +0.000 HD
BRANCH  19  22
ATOM     22  C   UNL     1       9.615  11.466  18.241  0.00  0.00    +0.000 A 
ATOM     23  C   UNL     1       8.822  12.634  18.231  0.00  0.00    +0.000 A 
ATOM     24  C   UNL     1       9.334  13.833  17.733  0.00  0.00    +0.000 A 
ATOM     25  C   UNL     1      10.636  13.873  17.245  0.00  0.00    +0.000 A 
ATOM     26  N   UNL     1      11.399  12.750  17.259  0.00  0.00    +0.000 NA
ATOM     27  C   UNL     1      10.929  11.569  17.738  0.00  0.00    +0.000 A 
ENDBRANCH  19  22
ENDBRANCH  17  18
ENDBRANCH  16  17
ENDBRANCH  15  16
ENDBRANCH   1  15
TORSDOF 9
ENDMDL
MODEL 5
REMARK VINA RESULT:      -6.5      3.515      5.601
REMARK  Name = 
REMARK  12 active torsions:
REMARK  status: ('A' for Active; 'I' for Inactive)
REMARK    1  A    between atoms: C_1  and  O_2
REMARK    2  A    between atoms: O_2  and  C_3
REMARK    3  A    between atoms: C_5  and  C_6
REMARK    4  A    between atoms: C_6  and  O_8
REMARK    5  A    between atoms: O_8  and  C_9
REMARK    6  A    between atoms: C_9  and  C_10
REMARK    7  A    between atoms: C_10  and  N_11
REMARK    8  A    between atoms: C_12  and  C_14
REMARK    9  A    between atoms: C_21  and  O_22
REMARK   10  A    between atoms: O_22  and  C_23
REMARK   11  A    between atoms: C_24  and  O_25
REMARK   12  A    between atoms: O_25  and  C_26
REMARK                            x       y       z     vdW  Elec       q    Type
REMARK                         _______ _______ _______ _____ _____    ______ ____
ROOT
ATOM      1  C   UNL     1       2.357   7.546  18.934  0.00  0.00    +0.000 C 
ATOM      2  O   UNL     1       2.348   8.356  18.015  0.00  0.00    +0.000 OA
ENDROOT
BRANCH   1   5
ATOM      3  C   UNL     1       3.603   4.315  17.341  0.00  0.00    +0.000 A 
ATOM      4  C   UNL     1       3.391   5.683  17.622  0.00  0.00    +0.000 A 
ATOM      5  C   UNL     1       2.515   6.100  18.629  0.00  0.00    +0.000 A 
ATOM      6  C   UNL     1       1.811   5.133  19.353  0.00  0.00    +0.000 A 
ATOM      7  C   UNL     1       1.991   3.765  19.109  0.00  0.00    +0.000 A 
ATOM      8  C   UNL     1       2.918   3.340  18.119  0.00  0.00    +0.000 A 
BRANCH   3  10
ATOM      9  C   UNL     1       5.857   4.040  16.416  0.00  0.00    +0.000 C 
ATOM     10  O   UNL     1       4.475   3.942  16.363  0.00  0.00    +0.000 OA
ENDBRANCH   3  10
BRANCH   7  11
ATOM     11  O   UNL     1       1.247   2.915  19.872  0.00  0.00    +0.000 OA
ATOM     12  C   UNL     1       1.338   2.681  21.232  0.00  0.00    +0.000 C 
ENDBRANCH   7  11
BRANCH   8  13
ATOM     13  O   UNL     1       3.111   1.999  17.974  0.00  0.00    +0.000 OA
ATOM     14  C   UNL     1       3.880   1.117  18.692  0.00  0.00    +0.000 C 
ENDBRANCH   8  13
ENDBRANCH   1   5
BRANCH   1  15
ATOM     15  O   UNL     1       2.258   7.970  20.222  0.00  0.00    +0.000 OA
BRANCH  15  16
ATOM     16  C   UNL     1       1.098   8.448  20.811  0.00  0.00    +0.000 C 
BRANCH  16  17
ATOM     17  C   UNL     1       0.828   9.880  20.350  0.00  0.00    +0.000 C 
BRANCH  17  18
ATOM     18  N   UNL     1      -0.075   9.892  19.212  0.00  0.00    +0.000 N 
ATOM     19  C   UNL     1      -1.186  10.684  19.181  0.00  0.00    +0.000 C 
ATOM     20  O   UNL     1      -1.428  11.408  20.139  0.00  0.00    +0.000 OA
ATOM     21  H   UNL     1       0.145   9.275  18.420  0.00  0.00    +0.000 HD
BRANCH  19  22
ATOM     22  C   UNL     1      -2.122  10.707  18.008  0.00  0.00    +0.000 A 
ATOM     23  C   UNL     1      -1.945   9.896  16.866  0.00  0.00    +0.000 A 
ATOM     24  C   UNL     1      -2.844   9.966  15.801  0.00  0.00    +0.000 A 
ATOM     25  C   UNL     1      -3.922  10.843  15.871  0.00  0.00    +0.000 A 
ATOM     26  N   UNL     1      -4.093  11.620  16.971  0.00  0.00    +0.000 NA
ATOM     27  C   UNL     1      -3.235  11.574  18.023  0.00  0.00    +0.000 A 
ENDBRANCH  19  22
ENDBRANCH  17  18
ENDBRANCH  16  17
ENDBRANCH  15  16
ENDBRANCH   1  15
TORSDOF 9
ENDMDL
MODEL 6
REMARK VINA RESULT:      -6.5      3.748      6.110
REMARK  Name = 
REMARK  12 active torsions:
REMARK  status: ('A' for Active; 'I' for Inactive)
REMARK    1  A    between atoms: C_1  and  O_2
REMARK    2  A    between atoms: O_2  and  C_3
REMARK    3  A    between atoms: C_5  and  C_6
REMARK    4  A    between atoms: C_6  and  O_8
REMARK    5  A    between atoms: O_8  and  C_9
REMARK    6  A    between atoms: C_9  and  C_10
REMARK    7  A    between atoms: C_10  and  N_11
REMARK    8  A    between atoms: C_12  and  C_14
REMARK    9  A    between atoms: C_21  and  O_22
REMARK   10  A    between atoms: O_22  and  C_23
REMARK   11  A    between atoms: C_24  and  O_25
REMARK   12  A    between atoms: O_25  and  C_26
REMARK                            x       y       z     vdW  Elec       q    Type
REMARK                         _______ _______ _______ _____ _____    ______ ____
ROOT
ATOM      1  C   UNL     1       2.068   7.884  19.118  0.00  0.00    +0.000 C 
ATOM      2  O   UNL     1       1.749   8.396  18.053  0.00  0.00    +0.000 OA
ENDROOT
BRANCH   1   5
ATOM      3  C   UNL     1       2.836   4.310  20.199  0.00  0.00    +0.000 A 
ATOM      4  C   UNL     1       2.357   5.639  20.185  0.00  0.00    +0.000 A 
ATOM      5  C   UNL     1       2.633   6.509  19.126  0.00  0.00    +0.000 A 
ATOM      6  C   UNL     1       3.429   6.055  18.070  0.00  0.00    +0.000 A 
ATOM      7  C   UNL     1       3.924   4.744  18.041  0.00  0.00    +0.000 A 
ATOM      8  C   UNL     1       3.603   3.845  19.093  0.00  0.00    +0.000 A 
BRANCH   3  10
ATOM      9  C   UNL     1       1.408   2.685  21.354  0.00  0.00    +0.000 C 
ATOM     10  O   UNL     1       2.537   3.483  21.239  0.00  0.00    +0.000 OA
ENDBRANCH   3  10
BRANCH   7  11
ATOM     11  O   UNL     1       4.693   4.415  16.965  0.00  0.00    +0.000 OA
ATOM     12  C   UNL     1       6.060   4.551  16.815  0.00  0.00    +0.000 C 
ENDBRANCH   7  11
BRANCH   8  13
ATOM     13  O   UNL     1       4.046   2.562  18.980  0.00  0.00    +0.000 OA
ATOM     14  C   UNL     1       3.481   1.463  18.379  0.00  0.00    +0.000 C 
ENDBRANCH   8  13
ENDBRANCH   1   5
BRANCH   1  15
ATOM     15  O   UNL     1       1.937   8.579  20.279  0.00  0.00    +0.000 OA
BRANCH  15  16
ATOM     16  C   UNL     1       0.732   8.857  20.905  0.00  0.00    +0.000 C 
BRANCH  16  17
ATOM     17  C   UNL     1       0.223  10.232  20.475  0.00  0.00    +0.000 C 
BRANCH  17  18
ATOM     18  N   UNL     1      -0.575  10.129  19.265  0.00  0.00    +0.000 N 
ATOM     19  C   UNL     1      -1.649  10.940  19.039  0.00  0.00    +0.000 C 
ATOM     20  O   UNL     1      -1.949  11.780  19.878  0.00  0.00    +0.000 OA
ATOM     21  H   UNL     1      -0.308   9.415  18.575  0.00  0.00    +0.000 HD
BRANCH  19  22
ATOM     22  C   UNL     1      -2.476  10.845  17.790  0.00  0.00    +0.000 A 
ATOM     23  C   UNL     1      -3.696  11.535  17.621  0.00  0.00    +0.000 A 
ATOM     24  C   UNL     1      -4.427  11.402  16.440  0.00  0.00    +0.000 A 
ATOM     25  C   UNL     1      -3.945  10.582  15.424  0.00  0.00    +0.000 A 
ATOM     26  N   UNL     1      -2.770   9.922  15.586  0.00  0.00    +0.000 NA
ATOM     27  C   UNL     1      -2.036  10.031  16.724  0.00  0.00    +0.000 A 
ENDBRANCH  19  22
ENDBRANCH  17  18
ENDBRANCH  16  17
ENDBRANCH  15  16
ENDBRANCH   1  15
TORSDOF 9
ENDMDL
MODEL 7
REMARK VINA RESULT:      -6.5      4.666      7.915
REMARK  Name = 
REMARK  12 active torsions:
REMARK  status: ('A' for Active; 'I' for Inactive)
REMARK    1  A    between atoms: C_1  and  O_2
REMARK    2  A    between atoms: O_2  and  C_3
REMARK    3  A    between atoms: C_5  and  C_6
REMARK    4  A    between atoms: C_6  and  O_8
REMARK    5  A    between atoms: O_8  and  C_9
REMARK    6  A    between atoms: C_9  and  C_10
REMARK    7  A    between atoms: C_10  and  N_11
REMARK    8  A    between atoms: C_12  and  C_14
REMARK    9  A    between atoms: C_21  and  O_22
REMARK   10  A    between atoms: O_22  and  C_23
REMARK   11  A    between atoms: C_24  and  O_25
REMARK   12  A    between atoms: O_25  and  C_26
REMARK                            x       y       z     vdW  Elec       q    Type
REMARK                         _______ _______ _______ _____ _____    ______ ____
ROOT
ATOM      1  C   UNL     1       7.071   6.370  17.281  0.00  0.00    +0.000 C 
ATOM      2  O   UNL     1       7.418   5.963  16.179  0.00  0.00    +0.000 OA
ENDROOT
BRANCH   1   5
ATOM      3  C   UNL     1       4.550   4.149  19.080  0.00  0.00    +0.000 A 
ATOM      4  C   UNL     1       5.732   4.621  18.467  0.00  0.00    +0.000 A 
ATOM      5  C   UNL     1       5.796   5.884  17.870  0.00  0.00    +0.000 A 
ATOM      6  C   UNL     1       4.649   6.682  17.856  0.00  0.00    +0.000 A 
ATOM      7  C   UNL     1       3.455   6.255  18.453  0.00  0.00    +0.000 A 
ATOM      8  C   UNL     1       3.404   4.993  19.104  0.00  0.00    +0.000 A 
BRANCH   3  10
ATOM      9  C   UNL     1       4.048   1.749  19.097  0.00  0.00    +0.000 C 
ATOM     10  O   UNL     1       4.524   2.920  19.668  0.00  0.00    +0.000 OA
ENDBRANCH   3  10
BRANCH   7  11
ATOM     11  O   UNL     1       2.401   7.116  18.373  0.00  0.00    +0.000 OA
ATOM     12  C   UNL     1       2.377   8.395  17.849  0.00  0.00    +0.000 C 
ENDBRANCH   7  11
BRANCH   8  13
ATOM     13  O   UNL     1       2.243   4.658  19.733  0.00  0.00    +0.000 OA
ATOM     14  C   UNL     1       1.187   3.882  19.322  0.00  0.00    +0.000 C 
ENDBRANCH   8  13
ENDBRANCH   1   5
BRANCH   1  15
ATOM     15  O   UNL     1       7.863   7.232  17.973  0.00  0.00    +0.000 OA
BRANCH  15  16
ATOM     16  C   UNL     1       8.078   8.558  17.632  0.00  0.00    +0.000 C 
BRANCH  16  17
ATOM     17  C   UNL     1       8.758   9.292  18.786  0.00  0.00    +0.000 C 
BRANCH  17  18
ATOM     18  N   UNL     1       9.288  10.570  18.340  0.00  0.00    +0.000 N 
ATOM     19  C   UNL     1       9.926  11.423  19.193  0.00  0.00    +0.000 C 
ATOM     20  O   UNL     1      10.057  11.103  20.369  0.00  0.00    +0.000 OA
ATOM     21  H   UNL     1       9.164  10.820  17.351  0.00  0.00    +0.000 HD
BRANCH  19  22
ATOM     22  C   UNL     1      10.481  12.742  18.742  0.00  0.00    +0.000 A 
ATOM     23  C   UNL     1      10.540  13.128  17.385  0.00  0.00    +0.000 A 
ATOM     24  C   UNL     1      11.075  14.365  17.023  0.00  0.00    +0.000 A 
ATOM     25  C   UNL     1      11.552  15.221  18.011  0.00  0.00    +0.000 A 
ATOM     26  N   UNL     1      11.491  14.851  19.316  0.00  0.00    +0.000 NA
ATOM     27  C   UNL     1      10.976  13.653  19.699  0.00  0.00    +0.000 A 
ENDBRANCH  19  22
ENDBRANCH  17  18
ENDBRANCH  16  17
ENDBRANCH  15  16
ENDBRANCH   1  15
TORSDOF 9
ENDMDL
MODEL 8
REMARK VINA RESULT:      -6.4      3.387      5.098
REMARK  Name = 
REMARK  12 active torsions:
REMARK  status: ('A' for Active; 'I' for Inactive)
REMARK    1  A    between atoms: C_1  and  O_2
REMARK    2  A    between atoms: O_2  and  C_3
REMARK    3  A    between atoms: C_5  and  C_6
REMARK    4  A    between atoms: C_6  and  O_8
REMARK    5  A    between atoms: O_8  and  C_9
REMARK    6  A    between atoms: C_9  and  C_10
REMARK    7  A    between atoms: C_10  and  N_11
REMARK    8  A    between atoms: C_12  and  C_14
REMARK    9  A    between atoms: C_21  and  O_22
REMARK   10  A    between atoms: O_22  and  C_23
REMARK   11  A    between atoms: C_24  and  O_25
REMARK   12  A    between atoms: O_25  and  C_26
REMARK                            x       y       z     vdW  Elec       q    Type
REMARK                         _______ _______ _______ _____ _____    ______ ____
ROOT
ATOM      1  C   UNL     1       2.134   6.392  20.019  0.00  0.00    +0.000 C 
ATOM      2  O   UNL     1       1.397   5.662  20.671  0.00  0.00    +0.000 OA
ENDROOT
BRANCH   1   5
ATOM      3  C   UNL     1       4.910   6.035  17.432  0.00  0.00    +0.000 A 
ATOM      4  C   UNL     1       4.000   6.583  18.363  0.00  0.00    +0.000 A 
ATOM      5  C   UNL     1       3.041   5.793  19.005  0.00  0.00    +0.000 A 
ATOM      6  C   UNL     1       2.967   4.433  18.691  0.00  0.00    +0.000 A 
ATOM      7  C   UNL     1       3.851   3.847  17.775  0.00  0.00    +0.000 A 
ATOM      8  C   UNL     1       4.858   4.639  17.160  0.00  0.00    +0.000 A 
BRANCH   3  10
ATOM      9  C   UNL     1       7.086   7.164  17.352  0.00  0.00    +0.000 C 
ATOM     10  O   UNL     1       5.843   6.829  16.835  0.00  0.00    +0.000 OA
ENDBRANCH   3  10
BRANCH   7  11
ATOM     11  O   UNL     1       3.681   2.514  17.544  0.00  0.00    +0.000 OA
ATOM     12  C   UNL     1       3.425   1.511  18.460  0.00  0.00    +0.000 C 
ENDBRANCH   7  11
BRANCH   8  13
ATOM     13  O   UNL     1       5.739   4.006  16.335  0.00  0.00    +0.000 OA
ATOM     14  C   UNL     1       5.873   4.036  14.969  0.00  0.00    +0.000 C 
ENDBRANCH   8  13
ENDBRANCH   1   5
BRANCH   1  15
ATOM     15  O   UNL     1       2.097   7.739  20.198  0.00  0.00    +0.000 OA
BRANCH  15  16
ATOM     16  C   UNL     1       1.024   8.439  20.728  0.00  0.00    +0.000 C 
BRANCH  16  17
ATOM     17  C   UNL     1       0.972   9.846  20.134  0.00  0.00    +0.000 C 
BRANCH  17  18
ATOM     18  N   UNL     1       0.033   9.901  19.026  0.00  0.00    +0.000 N 
ATOM     19  C   UNL     1      -1.141  10.591  19.109  0.00  0.00    +0.000 C 
ATOM     20  O   UNL     1      -1.411  11.183  20.147  0.00  0.00    +0.000 OA
ATOM     21  H   UNL     1       0.279   9.395  18.166  0.00  0.00    +0.000 HD
BRANCH  19  22
ATOM     22  C   UNL     1      -2.114  10.659  17.969  0.00  0.00    +0.000 A 
ATOM     23  C   UNL     1      -1.990   9.871  16.804  0.00  0.00    +0.000 A 
ATOM     24  C   UNL     1      -2.921   9.983  15.771  0.00  0.00    +0.000 A 
ATOM     25  C   UNL     1      -3.980  10.877  15.897  0.00  0.00    +0.000 A 
ATOM     26  N   UNL     1      -4.101  11.631  17.019  0.00  0.00    +0.000 NA
ATOM     27  C   UNL     1      -3.210  11.545  18.041  0.00  0.00    +0.000 A 
ENDBRANCH  19  22
ENDBRANCH  17  18
ENDBRANCH  16  17
ENDBRANCH  15  16
ENDBRANCH   1  15
TORSDOF 9
ENDMDL
MODEL 9
REMARK VINA RESULT:      -6.4      1.196      1.685
REMARK  Name = 
REMARK  12 active torsions:
REMARK  status: ('A' for Active; 'I' for Inactive)
REMARK    1  A    between atoms: C_1  and  O_2
REMARK    2  A    between atoms: O_2  and  C_3
REMARK    3  A    between atoms: C_5  and  C_6
REMARK    4  A    between atoms: C_6  and  O_8
REMARK    5  A    between atoms: O_8  and  C_9
REMARK    6  A    between atoms: C_9  and  C_10
REMARK    7  A    between atoms: C_10  and  N_11
REMARK    8  A    between atoms: C_12  and  C_14
REMARK    9  A    between atoms: C_21  and  O_22
REMARK   10  A    between atoms: O_22  and  C_23
REMARK   11  A    between atoms: C_24  and  O_25
REMARK   12  A    between atoms: O_25  and  C_26
REMARK                            x       y       z     vdW  Elec       q    Type
REMARK                         _______ _______ _______ _____ _____    ______ ____
ROOT
ATOM      1  C   UNL     1       2.872   2.812  18.313  0.00  0.00    +0.000 C 
ATOM      2  O   UNL     1       2.358   2.147  17.422  0.00  0.00    +0.000 OA
ENDROOT
BRANCH   1   5
ATOM      3  C   UNL     1       5.514   4.780  16.396  0.00  0.00    +0.000 A 
ATOM      4  C   UNL     1       4.388   3.985  16.704  0.00  0.00    +0.000 A 
ATOM      5  C   UNL     1       4.095   3.603  18.018  0.00  0.00    +0.000 A 
ATOM      6  C   UNL     1       4.960   3.996  19.043  0.00  0.00    +0.000 A 
ATOM      7  C   UNL     1       6.088   4.786  18.783  0.00  0.00    +0.000 A 
ATOM      8  C   UNL     1       6.359   5.216  17.456  0.00  0.00    +0.000 A 
BRANCH   3  10
ATOM      9  C   UNL     1       6.513   4.437  14.183  0.00  0.00    +0.000 C 
ATOM     10  O   UNL     1       5.763   5.148  15.108  0.00  0.00    +0.000 OA
ENDBRANCH   3  10
BRANCH   7  11
ATOM     11  O   UNL     1       6.861   5.103  19.860  0.00  0.00    +0.000 OA
ATOM     12  C   UNL     1       8.202   5.439  19.883  0.00  0.00    +0.000 C 
ENDBRANCH   7  11
BRANCH   8  13
ATOM     13  O   UNL     1       7.424   6.043  17.268  0.00  0.00    +0.000 OA
ATOM     14  C   UNL     1       7.507   7.414  17.248  0.00  0.00    +0.000 C 
ENDBRANCH   8  13
ENDBRANCH   1   5
BRANCH   1  15
ATOM     15  O   UNL     1       2.310   2.851  19.550  0.00  0.00    +0.000 OA
BRANCH  15  16
ATOM     16  C   UNL     1       1.466   3.853  20.004  0.00  0.00    +0.000 C 
BRANCH  16  17
ATOM     17  C   UNL     1       2.222   4.787  20.948  0.00  0.00    +0.000 C 
BRANCH  17  18
ATOM     18  N   UNL     1       1.667   6.129  20.896  0.00  0.00    +0.000 N 
ATOM     19  C   UNL     1       2.080   7.045  19.973  0.00  0.00    +0.000 C 
ATOM     20  O   UNL     1       2.943   6.727  19.163  0.00  0.00    +0.000 OA
ATOM     21  H   UNL     1       0.946   6.375  21.587  0.00  0.00    +0.000 HD
BRANCH  19  22
ATOM     22  C   UNL     1       1.509   8.431  19.908  0.00  0.00    +0.000 A 
ATOM     23  C   UNL     1       0.960   9.090  21.029  0.00  0.00    +0.000 A 
ATOM     24  C   UNL     1       0.435  10.377  20.907  0.00  0.00    +0.000 A 
ATOM     25  C   UNL     1       0.456  11.011  19.669  0.00  0.00    +0.000 A 
ATOM     26  N   UNL     1       0.987  10.378  18.592  0.00  0.00    +0.000 NA
ATOM     27  C   UNL     1       1.506   9.125  18.680  0.00  0.00    +0.000 A 
ENDBRANCH  19  22
ENDBRANCH  17  18
ENDBRANCH  16  17
ENDBRANCH  15  16
ENDBRANCH   1  15
TORSDOF 9
ENDMDL
