MODEL 1
REMARK VINA RESULT:      -7.3      0.000      0.000
REMARK  Name = 
REMARK  6 active torsions:
REMARK  status: ('A' for Active; 'I' for Inactive)
REMARK    1  A    between atoms: C_1  and  O_2
REMARK    2  A    between atoms: O_2  and  C_3
REMARK    3  A    between atoms: C_8  and  N_9
REMARK    4  A    between atoms: C_13  and  C_15
REMARK    5  A    between atoms: C_18  and  C_19
REMARK    6  A    between atoms: N_27  and  C_28
REMARK                            x       y       z     vdW  Elec       q    Type
REMARK                         _______ _______ _______ _____ _____    ______ ____
ROOT
ATOM      1  N   UNL     1       1.288  13.107  20.464  0.00  0.00    +0.000 N 
ATOM      2  C   UNL     1       1.064  13.170  19.010  0.00  0.00    +0.000 C 
ATOM      3  C   UNL     1       1.671  14.465  18.439  0.00  0.00    +0.000 C 
ATOM      4  N   UNL     1       3.063  14.668  18.859  0.00  0.00    +0.000 N 
ATOM      5  C   UNL     1       3.902  15.356  17.976  0.00  0.00    +0.000 C 
ATOM      6  O   UNL     1       3.458  15.755  16.899  0.00  0.00    +0.000 OA
ATOM      7  C   UNL     1       3.255  14.566  20.321  0.00  0.00    +0.000 C 
ATOM      8  C   UNL     1       2.698  13.236  20.860  0.00  0.00    +0.000 C 
ENDROOT
BRANCH   5   9
ATOM      9  C   UNL     1       5.298  15.550  18.338  0.00  0.00    +0.000 A 
ATOM     10  C   UNL     1       6.436  14.769  18.107  0.00  0.00    +0.000 A 
ATOM     11  C   UNL     1       7.554  15.403  18.643  0.00  0.00    +0.000 A 
ATOM     12  C   UNL     1       8.924  15.147  18.774  0.00  0.00    +0.000 A 
ATOM     13  N   UNL     1       9.514  16.264  19.288  0.00  0.00    +0.000 NA
ATOM     14  N   UNL     1       8.487  17.139  19.498  0.00  0.00    +0.000 N 
ATOM     15  C   UNL     1       8.725  18.487  19.944  0.00  0.00    +0.000 C 
ATOM     16  C   UNL     1       7.302  16.612  19.144  0.00  0.00    +0.000 A 
ATOM     17  S   UNL     1       5.713  17.070  19.117  0.00  0.00    +0.000 S 
BRANCH  12  18
ATOM     18  C   UNL     1       9.707  13.951  18.460  0.00  0.00    +0.000 A 
ATOM     19  C   UNL     1      10.632  13.968  17.402  0.00  0.00    +0.000 A 
ATOM     20  C   UNL     1      11.403  12.838  17.101  0.00  0.00    +0.000 A 
ATOM     21  C   UNL     1      11.268  11.677  17.858  0.00  0.00    +0.000 A 
ATOM     22  C   UNL     1      10.366  11.646  18.919  0.00  0.00    +0.000 A 
ATOM     23  C   UNL     1       9.597  12.777  19.214  0.00  0.00    +0.000 A 
ATOM     24  F   UNL     1       8.771  12.702  20.269  0.00  0.00    +0.000 F 
ENDBRANCH  12  18
ENDBRANCH   5   9
BRANCH   1  30
ATOM     25  C   UNL     1      -0.032  11.405  21.692  0.00  0.00    +0.000 A 
ATOM     26  C   UNL     1      -1.043  11.124  22.626  0.00  0.00    +0.000 A 
ATOM     27  C   UNL     1      -1.727  12.150  23.272  0.00  0.00    +0.000 A 
ATOM     28  C   UNL     1      -1.426  13.467  22.970  0.00  0.00    +0.000 A 
ATOM     29  C   UNL     1      -0.444  13.754  22.021  0.00  0.00    +0.000 A 
ATOM     30  C   UNL     1       0.286  12.749  21.354  0.00  0.00    +0.000 A 
BRANCH  25  32
ATOM     31  C   UNL     1       0.880   9.202  21.825  0.00  0.00    +0.000 C 
ATOM     32  O   UNL     1       0.687  10.399  21.080  0.00  0.00    +0.000 OA
ENDBRANCH  25  32
ENDBRANCH   1  30
TORSDOF 4
ENDMDL
MODEL 2
REMARK VINA RESULT:      -7.2      6.447      7.994
REMARK  Name = 
REMARK  6 active torsions:
REMARK  status: ('A' for Active; 'I' for Inactive)
REMARK    1  A    between atoms: C_1  and  O_2
REMARK    2  A    between atoms: O_2  and  C_3
REMARK    3  A    between atoms: C_8  and  N_9
REMARK    4  A    between atoms: C_13  and  C_15
REMARK    5  A    between atoms: C_18  and  C_19
REMARK    6  A    between atoms: N_27  and  C_28
REMARK                            x       y       z     vdW  Elec       q    Type
REMARK                         _______ _______ _______ _____ _____    ______ ____
ROOT
ATOM      1  N   UNL     1      -0.999  11.763  21.271  0.00  0.00    +0.000 N 
ATOM      2  C   UNL     1      -1.063  12.156  19.853  0.00  0.00    +0.000 C 
ATOM      3  C   UNL     1       0.297  11.910  19.175  0.00  0.00    +0.000 C 
ATOM      4  N   UNL     1       0.811  10.556  19.418  0.00  0.00    +0.000 N 
ATOM      5  C   UNL     1       1.612   9.990  18.420  0.00  0.00    +0.000 C 
ATOM      6  O   UNL     1       1.849  10.627  17.394  0.00  0.00    +0.000 OA
ATOM      7  C   UNL     1       0.831  10.184  20.849  0.00  0.00    +0.000 C 
ATOM      8  C   UNL     1      -0.555  10.378  21.489  0.00  0.00    +0.000 C 
ENDROOT
BRANCH   5   9
ATOM      9  C   UNL     1       2.115   8.637  18.605  0.00  0.00    +0.000 A 
ATOM     10  C   UNL     1       3.147   7.935  17.973  0.00  0.00    +0.000 A 
ATOM     11  C   UNL     1       3.250   6.660  18.524  0.00  0.00    +0.000 A 
ATOM     12  C   UNL     1       4.020   5.507  18.328  0.00  0.00    +0.000 A 
ATOM     13  N   UNL     1       3.715   4.623  19.319  0.00  0.00    +0.000 NA
ATOM     14  N   UNL     1       2.742   5.238  20.053  0.00  0.00    +0.000 N 
ATOM     15  C   UNL     1       2.228   4.654  21.264  0.00  0.00    +0.000 C 
ATOM     16  C   UNL     1       2.435   6.450  19.558  0.00  0.00    +0.000 A 
ATOM     17  S   UNL     1       1.408   7.698  19.911  0.00  0.00    +0.000 S 
BRANCH  12  18
ATOM     18  C   UNL     1       5.002   5.179  17.293  0.00  0.00    +0.000 A 
ATOM     19  C   UNL     1       6.220   5.877  17.227  0.00  0.00    +0.000 A 
ATOM     20  C   UNL     1       7.179   5.563  16.256  0.00  0.00    +0.000 A 
ATOM     21  C   UNL     1       6.939   4.541  15.341  0.00  0.00    +0.000 A 
ATOM     22  C   UNL     1       5.743   3.830  15.399  0.00  0.00    +0.000 A 
ATOM     23  C   UNL     1       4.788   4.149  16.371  0.00  0.00    +0.000 A 
ATOM     24  F   UNL     1       3.670   3.407  16.403  0.00  0.00    +0.000 F 
ENDBRANCH  12  18
ENDBRANCH   5   9
BRANCH   1  30
ATOM     25  C   UNL     1      -0.790  13.613  22.907  0.00  0.00    +0.000 A 
ATOM     26  C   UNL     1      -1.390  14.394  23.910  0.00  0.00    +0.000 A 
ATOM     27  C   UNL     1      -2.713  14.181  24.288  0.00  0.00    +0.000 A 
ATOM     28  C   UNL     1      -3.440  13.168  23.688  0.00  0.00    +0.000 A 
ATOM     29  C   UNL     1      -2.842  12.369  22.713  0.00  0.00    +0.000 A 
ATOM     30  C   UNL     1      -1.511  12.558  22.285  0.00  0.00    +0.000 A 
BRANCH  25  32
ATOM     31  C   UNL     1       0.727  15.009  21.703  0.00  0.00    +0.000 C 
ATOM     32  O   UNL     1       0.504  13.845  22.489  0.00  0.00    +0.000 OA
ENDBRANCH  25  32
ENDBRANCH   1  30
TORSDOF 4
ENDMDL
MODEL 3
REMARK VINA RESULT:      -7.2      6.738     10.823
REMARK  Name = 
REMARK  6 active torsions:
REMARK  status: ('A' for Active; 'I' for Inactive)
REMARK    1  A    between atoms: C_1  and  O_2
REMARK    2  A    between atoms: O_2  and  C_3
REMARK    3  A    between atoms: C_8  and  N_9
REMARK    4  A    between atoms: C_13  and  C_15
REMARK    5  A    between atoms: C_18  and  C_19
REMARK    6  A    between atoms: N_27  and  C_28
REMARK                            x       y       z     vdW  Elec       q    Type
REMARK                         _______ _______ _______ _____ _____    ______ ____
ROOT
ATOM      1  N   UNL     1       3.860   5.981  17.633  0.00  0.00    +0.000 N 
ATOM      2  C   UNL     1       3.140   5.167  18.627  0.00  0.00    +0.000 C 
ATOM      3  C   UNL     1       2.859   6.003  19.890  0.00  0.00    +0.000 C 
ATOM      4  N   UNL     1       2.237   7.296  19.583  0.00  0.00    +0.000 N 
ATOM      5  C   UNL     1       1.375   7.833  20.544  0.00  0.00    +0.000 C 
ATOM      6  O   UNL     1       1.166   7.217  21.589  0.00  0.00    +0.000 OA
ATOM      7  C   UNL     1       2.969   8.071  18.558  0.00  0.00    +0.000 C 
ATOM      8  C   UNL     1       3.182   7.237  17.282  0.00  0.00    +0.000 C 
ENDROOT
BRANCH   5   9
ATOM      9  C   UNL     1       0.710   9.097  20.267  0.00  0.00    +0.000 A 
ATOM     10  C   UNL     1      -0.394   9.412  19.466  0.00  0.00    +0.000 A 
ATOM     11  C   UNL     1      -0.655  10.777  19.546  0.00  0.00    +0.000 A 
ATOM     12  C   UNL     1      -1.557  11.692  18.990  0.00  0.00    +0.000 A 
ATOM     13  N   UNL     1      -1.370  12.895  19.603  0.00  0.00    +0.000 NA
ATOM     14  N   UNL     1      -0.336  12.691  20.471  0.00  0.00    +0.000 N 
ATOM     15  C   UNL     1       0.094  13.715  21.387  0.00  0.00    +0.000 C 
ATOM     16  C   UNL     1       0.120  11.426  20.415  0.00  0.00    +0.000 A 
ATOM     17  S   UNL     1       1.287  10.508  21.143  0.00  0.00    +0.000 S 
BRANCH  12  18
ATOM     18  C   UNL     1      -2.563  11.524  17.940  0.00  0.00    +0.000 A 
ATOM     19  C   UNL     1      -2.179  11.121  16.650  0.00  0.00    +0.000 A 
ATOM     20  C   UNL     1      -3.131  10.936  15.639  0.00  0.00    +0.000 A 
ATOM     21  C   UNL     1      -4.482  11.144  15.904  0.00  0.00    +0.000 A 
ATOM     22  C   UNL     1      -4.883  11.531  17.181  0.00  0.00    +0.000 A 
ATOM     23  C   UNL     1      -3.927  11.715  18.187  0.00  0.00    +0.000 A 
ATOM     24  F   UNL     1      -4.374  12.054  19.406  0.00  0.00    +0.000 F 
ENDBRANCH  12  18
ENDBRANCH   5   9
BRANCH   1  30
ATOM     25  C   UNL     1       6.212   5.202  17.553  0.00  0.00    +0.000 A 
ATOM     26  C   UNL     1       7.276   4.693  16.789  0.00  0.00    +0.000 A 
ATOM     27  C   UNL     1       7.122   4.432  15.430  0.00  0.00    +0.000 A 
ATOM     28  C   UNL     1       5.911   4.704  14.816  0.00  0.00    +0.000 A 
ATOM     29  C   UNL     1       4.860   5.238  15.562  0.00  0.00    +0.000 A 
ATOM     30  C   UNL     1       4.964   5.503  16.943  0.00  0.00    +0.000 A 
BRANCH  25  32
ATOM     31  C   UNL     1       7.636   5.733  19.395  0.00  0.00    +0.000 C 
ATOM     32  O   UNL     1       6.336   5.419  18.909  0.00  0.00    +0.000 OA
ENDBRANCH  25  32
ENDBRANCH   1  30
TORSDOF 4
ENDMDL
MODEL 4
REMARK VINA RESULT:      -7.2      5.827     10.772
REMARK  Name = 
REMARK  6 active torsions:
REMARK  status: ('A' for Active; 'I' for Inactive)
REMARK    1  A    between atoms: C_1  and  O_2
REMARK    2  A    between atoms: O_2  and  C_3
REMARK    3  A    between atoms: C_8  and  N_9
REMARK    4  A    between atoms: C_13  and  C_15
REMARK    5  A    between atoms: C_18  and  C_19
REMARK    6  A    between atoms: N_27  and  C_28
REMARK                            x       y       z     vdW  Elec       q    Type
REMARK                         _______ _______ _______ _____ _____    ______ ____
ROOT
ATOM      1  N   UNL     1       3.562   6.237  17.660  0.00  0.00    +0.000 N 
ATOM      2  C   UNL     1       2.899   5.524  18.766  0.00  0.00    +0.000 C 
ATOM      3  C   UNL     1       2.718   6.468  19.968  0.00  0.00    +0.000 C 
ATOM      4  N   UNL     1       2.096   7.744  19.595  0.00  0.00    +0.000 N 
ATOM      5  C   UNL     1       1.309   8.377  20.563  0.00  0.00    +0.000 C 
ATOM      6  O   UNL     1       1.164   7.855  21.669  0.00  0.00    +0.000 OA
ATOM      7  C   UNL     1       2.768   8.415  18.462  0.00  0.00    +0.000 C 
ATOM      8  C   UNL     1       2.880   7.473  17.250  0.00  0.00    +0.000 C 
ENDROOT
BRANCH   5   9
ATOM      9  C   UNL     1       0.647   9.627  20.225  0.00  0.00    +0.000 A 
ATOM     10  C   UNL     1      -0.649   9.899  19.769  0.00  0.00    +0.000 A 
ATOM     11  C   UNL     1      -0.807  11.273  19.606  0.00  0.00    +0.000 A 
ATOM     12  C   UNL     1      -1.803  12.155  19.169  0.00  0.00    +0.000 A 
ATOM     13  N   UNL     1      -1.366  13.428  19.390  0.00  0.00    +0.000 NA
ATOM     14  N   UNL     1      -0.110  13.284  19.905  0.00  0.00    +0.000 N 
ATOM     15  C   UNL     1       0.649  14.416  20.368  0.00  0.00    +0.000 C 
ATOM     16  C   UNL     1       0.244  11.990  20.004  0.00  0.00    +0.000 A 
ATOM     17  S   UNL     1       1.547  11.108  20.514  0.00  0.00    +0.000 S 
BRANCH  12  18
ATOM     18  C   UNL     1      -3.111  11.895  18.566  0.00  0.00    +0.000 A 
ATOM     19  C   UNL     1      -4.288  12.183  19.279  0.00  0.00    +0.000 A 
ATOM     20  C   UNL     1      -5.548  11.958  18.709  0.00  0.00    +0.000 A 
ATOM     21  C   UNL     1      -5.651  11.451  17.416  0.00  0.00    +0.000 A 
ATOM     22  C   UNL     1      -4.495  11.173  16.690  0.00  0.00    +0.000 A 
ATOM     23  C   UNL     1      -3.239  11.397  17.265  0.00  0.00    +0.000 A 
ATOM     24  F   UNL     1      -2.161  11.145  16.507  0.00  0.00    +0.000 F 
ENDBRANCH  12  18
ENDBRANCH   5   9
BRANCH   1  30
ATOM     25  C   UNL     1       5.901   6.263  16.841  0.00  0.00    +0.000 A 
ATOM     26  C   UNL     1       6.919   5.622  16.115  0.00  0.00    +0.000 A 
ATOM     27  C   UNL     1       6.701   4.385  15.513  0.00  0.00    +0.000 A 
ATOM     28  C   UNL     1       5.455   3.791  15.607  0.00  0.00    +0.000 A 
ATOM     29  C   UNL     1       4.430   4.436  16.301  0.00  0.00    +0.000 A 
ATOM     30  C   UNL     1       4.609   5.680  16.940  0.00  0.00    +0.000 A 
BRANCH  25  32
ATOM     31  C   UNL     1       7.471   7.877  17.637  0.00  0.00    +0.000 C 
ATOM     32  O   UNL     1       6.119   7.464  17.483  0.00  0.00    +0.000 OA
ENDBRANCH  25  32
ENDBRANCH   1  30
TORSDOF 4
ENDMDL
MODEL 5
REMARK VINA RESULT:      -7.2      6.527     10.784
REMARK  Name = 
REMARK  6 active torsions:
REMARK  status: ('A' for Active; 'I' for Inactive)
REMARK    1  A    between atoms: C_1  and  O_2
REMARK    2  A    between atoms: O_2  and  C_3
REMARK    3  A    between atoms: C_8  and  N_9
REMARK    4  A    between atoms: C_13  and  C_15
REMARK    5  A    between atoms: C_18  and  C_19
REMARK    6  A    between atoms: N_27  and  C_28
REMARK                            x       y       z     vdW  Elec       q    Type
REMARK                         _______ _______ _______ _____ _____    ______ ____
ROOT
ATOM      1  N   UNL     1       3.159   6.186  17.992  0.00  0.00    +0.000 N 
ATOM      2  C   UNL     1       2.565   5.573  19.192  0.00  0.00    +0.000 C 
ATOM      3  C   UNL     1       2.476   6.612  20.325  0.00  0.00    +0.000 C 
ATOM      4  N   UNL     1       1.843   7.864  19.894  0.00  0.00    +0.000 N 
ATOM      5  C   UNL     1       1.131   8.584  20.859  0.00  0.00    +0.000 C 
ATOM      6  O   UNL     1       1.055   8.152  22.010  0.00  0.00    +0.000 OA
ATOM      7  C   UNL     1       2.443   8.433  18.669  0.00  0.00    +0.000 C 
ATOM      8  C   UNL     1       2.464   7.397  17.531  0.00  0.00    +0.000 C 
ENDROOT
BRANCH   5   9
ATOM      9  C   UNL     1       0.459   9.813  20.467  0.00  0.00    +0.000 A 
ATOM     10  C   UNL     1      -0.835  10.055  19.992  0.00  0.00    +0.000 A 
ATOM     11  C   UNL     1      -1.004  11.420  19.775  0.00  0.00    +0.000 A 
ATOM     12  C   UNL     1      -2.004  12.275  19.296  0.00  0.00    +0.000 A 
ATOM     13  N   UNL     1      -1.581  13.559  19.471  0.00  0.00    +0.000 NA
ATOM     14  N   UNL     1      -0.327  13.448  20.000  0.00  0.00    +0.000 N 
ATOM     15  C   UNL     1       0.417  14.604  20.425  0.00  0.00    +0.000 C 
ATOM     16  C   UNL     1       0.037  12.162  20.152  0.00  0.00    +0.000 A 
ATOM     17  S   UNL     1       1.344  11.313  20.706  0.00  0.00    +0.000 S 
BRANCH  12  18
ATOM     18  C   UNL     1      -3.306  11.980  18.694  0.00  0.00    +0.000 A 
ATOM     19  C   UNL     1      -4.489  12.216  19.415  0.00  0.00    +0.000 A 
ATOM     20  C   UNL     1      -5.742  11.957  18.846  0.00  0.00    +0.000 A 
ATOM     21  C   UNL     1      -5.833  11.467  17.546  0.00  0.00    +0.000 A 
ATOM     22  C   UNL     1      -4.671  11.240  16.811  0.00  0.00    +0.000 A 
ATOM     23  C   UNL     1      -3.422  11.499  17.385  0.00  0.00    +0.000 A 
ATOM     24  F   UNL     1      -2.339  11.295  16.619  0.00  0.00    +0.000 F 
ENDBRANCH  12  18
ENDBRANCH   5   9
BRANCH   1  30
ATOM     25  C   UNL     1       4.105   4.191  16.866  0.00  0.00    +0.000 A 
ATOM     26  C   UNL     1       5.135   3.635  16.088  0.00  0.00    +0.000 A 
ATOM     27  C   UNL     1       6.197   4.416  15.641  0.00  0.00    +0.000 A 
ATOM     28  C   UNL     1       6.255   5.753  15.991  0.00  0.00    +0.000 A 
ATOM     29  C   UNL     1       5.252   6.306  16.789  0.00  0.00    +0.000 A 
ATOM     30  C   UNL     1       4.149   5.559  17.250  0.00  0.00    +0.000 A 
BRANCH  25  32
ATOM     31  C   UNL     1       3.300   2.175  17.862  0.00  0.00    +0.000 C 
ATOM     32  O   UNL     1       3.022   3.440  17.274  0.00  0.00    +0.000 OA
ENDBRANCH  25  32
ENDBRANCH   1  30
TORSDOF 4
ENDMDL
MODEL 6
REMARK VINA RESULT:      -7.1      1.171      1.466
REMARK  Name = 
REMARK  6 active torsions:
REMARK  status: ('A' for Active; 'I' for Inactive)
REMARK    1  A    between atoms: C_1  and  O_2
REMARK    2  A    between atoms: O_2  and  C_3
REMARK    3  A    between atoms: C_8  and  N_9
REMARK    4  A    between atoms: C_13  and  C_15
REMARK    5  A    between atoms: C_18  and  C_19
REMARK    6  A    between atoms: N_27  and  C_28
REMARK                            x       y       z     vdW  Elec       q    Type
REMARK                         _______ _______ _______ _____ _____    ______ ____
ROOT
ATOM      1  N   UNL     1       1.371  13.569  20.511  0.00  0.00    +0.000 N 
ATOM      2  C   UNL     1       1.078  14.120  19.177  0.00  0.00    +0.000 C 
ATOM      3  C   UNL     1       1.776  15.481  19.004  0.00  0.00    +0.000 C 
ATOM      4  N   UNL     1       3.201  15.433  19.354  0.00  0.00    +0.000 N 
ATOM      5  C   UNL     1       4.054  16.308  18.673  0.00  0.00    +0.000 C 
ATOM      6  O   UNL     1       3.595  17.069  17.821  0.00  0.00    +0.000 OA
ATOM      7  C   UNL     1       3.459  14.845  20.685  0.00  0.00    +0.000 C 
ATOM      8  C   UNL     1       2.806  13.457  20.812  0.00  0.00    +0.000 C 
ENDROOT
BRANCH   5   9
ATOM      9  C   UNL     1       5.479  16.270  18.964  0.00  0.00    +0.000 A 
ATOM     10  C   UNL     1       6.481  15.366  18.593  0.00  0.00    +0.000 A 
ATOM     11  C   UNL     1       7.703  15.783  19.114  0.00  0.00    +0.000 A 
ATOM     12  C   UNL     1       9.027  15.328  19.136  0.00  0.00    +0.000 A 
ATOM     13  N   UNL     1       9.795  16.295  19.713  0.00  0.00    +0.000 NA
ATOM     14  N   UNL     1       8.916  17.279  20.067  0.00  0.00    +0.000 N 
ATOM     15  C   UNL     1       9.366  18.529  20.619  0.00  0.00    +0.000 C 
ATOM     16  C   UNL     1       7.651  16.959  19.739  0.00  0.00    +0.000 A 
ATOM     17  S   UNL     1       6.145  17.632  19.853  0.00  0.00    +0.000 S 
BRANCH  12  18
ATOM     18  C   UNL     1       9.614  14.073  18.666  0.00  0.00    +0.000 A 
ATOM     19  C   UNL     1       9.241  12.853  19.256  0.00  0.00    +0.000 A 
ATOM     20  C   UNL     1       9.779  11.641  18.804  0.00  0.00    +0.000 A 
ATOM     21  C   UNL     1      10.691  11.628  17.752  0.00  0.00    +0.000 A 
ATOM     22  C   UNL     1      11.062  12.826  17.146  0.00  0.00    +0.000 A 
ATOM     23  C   UNL     1      10.523  14.035  17.602  0.00  0.00    +0.000 A 
ATOM     24  F   UNL     1      10.888  15.154  16.959  0.00  0.00    +0.000 F 
ENDBRANCH  12  18
ENDBRANCH   5   9
BRANCH   1  30
ATOM     25  C   UNL     1       0.031  11.638  21.301  0.00  0.00    +0.000 A 
ATOM     26  C   UNL     1      -0.957  11.146  22.170  0.00  0.00    +0.000 A 
ATOM     27  C   UNL     1      -1.580  11.982  23.093  0.00  0.00    +0.000 A 
ATOM     28  C   UNL     1      -1.241  13.323  23.137  0.00  0.00    +0.000 A 
ATOM     29  C   UNL     1      -0.282  13.825  22.256  0.00  0.00    +0.000 A 
ATOM     30  C   UNL     1       0.387  13.014  21.317  0.00  0.00    +0.000 A 
BRANCH  25  32
ATOM     31  C   UNL     1      -0.029  10.398  19.261  0.00  0.00    +0.000 C 
ATOM     32  O   UNL     1       0.691  10.811  20.416  0.00  0.00    +0.000 OA
ENDBRANCH  25  32
ENDBRANCH   1  30
TORSDOF 4
ENDMDL
MODEL 7
REMARK VINA RESULT:      -7.0      6.965      8.470
REMARK  Name = 
REMARK  6 active torsions:
REMARK  status: ('A' for Active; 'I' for Inactive)
REMARK    1  A    between atoms: C_1  and  O_2
REMARK    2  A    between atoms: O_2  and  C_3
REMARK    3  A    between atoms: C_8  and  N_9
REMARK    4  A    between atoms: C_13  and  C_15
REMARK    5  A    between atoms: C_18  and  C_19
REMARK    6  A    between atoms: N_27  and  C_28
REMARK                            x       y       z     vdW  Elec       q    Type
REMARK                         _______ _______ _______ _____ _____    ______ ____
ROOT
ATOM      1  N   UNL     1      -2.677  11.280  18.193  0.00  0.00    +0.000 N 
ATOM      2  C   UNL     1      -1.655  12.179  17.633  0.00  0.00    +0.000 C 
ATOM      3  C   UNL     1      -0.333  12.022  18.406  0.00  0.00    +0.000 C 
ATOM      4  N   UNL     1       0.082  10.619  18.535  0.00  0.00    +0.000 N 
ATOM      5  C   UNL     1       1.455  10.363  18.597  0.00  0.00    +0.000 C 
ATOM      6  O   UNL     1       2.253  11.299  18.538  0.00  0.00    +0.000 OA
ATOM      7  C   UNL     1      -0.980   9.740  19.070  0.00  0.00    +0.000 C 
ATOM      8  C   UNL     1      -2.272   9.867  18.243  0.00  0.00    +0.000 C 
ENDROOT
BRANCH   5   9
ATOM      9  C   UNL     1       1.911   8.985  18.690  0.00  0.00    +0.000 A 
ATOM     10  C   UNL     1       2.804   8.245  17.905  0.00  0.00    +0.000 A 
ATOM     11  C   UNL     1       2.922   6.958  18.422  0.00  0.00    +0.000 A 
ATOM     12  C   UNL     1       3.596   5.772  18.101  0.00  0.00    +0.000 A 
ATOM     13  N   UNL     1       3.395   4.886  19.117  0.00  0.00    +0.000 NA
ATOM     14  N   UNL     1       2.573   5.534  19.993  0.00  0.00    +0.000 N 
ATOM     15  C   UNL     1       2.213   4.953  21.260  0.00  0.00    +0.000 C 
ATOM     16  C   UNL     1       2.258   6.768  19.561  0.00  0.00    +0.000 A 
ATOM     17  S   UNL     1       1.358   8.057  20.076  0.00  0.00    +0.000 S 
BRANCH  12  18
ATOM     18  C   UNL     1       4.398   5.417  16.930  0.00  0.00    +0.000 A 
ATOM     19  C   UNL     1       5.068   6.414  16.202  0.00  0.00    +0.000 A 
ATOM     20  C   UNL     1       5.856   6.089  15.090  0.00  0.00    +0.000 A 
ATOM     21  C   UNL     1       5.993   4.761  14.694  0.00  0.00    +0.000 A 
ATOM     22  C   UNL     1       5.346   3.757  15.412  0.00  0.00    +0.000 A 
ATOM     23  C   UNL     1       4.560   4.088  16.521  0.00  0.00    +0.000 A 
ATOM     24  F   UNL     1       3.990   3.078  17.195  0.00  0.00    +0.000 F 
ENDBRANCH  12  18
ENDBRANCH   5   9
BRANCH   1  30
ATOM     25  C   UNL     1      -4.362  12.399  19.626  0.00  0.00    +0.000 A 
ATOM     26  C   UNL     1      -5.692  12.817  19.801  0.00  0.00    +0.000 A 
ATOM     27  C   UNL     1      -6.650  12.595  18.815  0.00  0.00    +0.000 A 
ATOM     28  C   UNL     1      -6.293  11.927  17.656  0.00  0.00    +0.000 A 
ATOM     29  C   UNL     1      -4.981  11.482  17.488  0.00  0.00    +0.000 A 
ATOM     30  C   UNL     1      -3.974  11.700  18.452  0.00  0.00    +0.000 A 
BRANCH  25  32
ATOM     31  C   UNL     1      -3.812  12.680  21.933  0.00  0.00    +0.000 C 
ATOM     32  O   UNL     1      -3.394  12.657  20.574  0.00  0.00    +0.000 OA
ENDBRANCH  25  32
ENDBRANCH   1  30
TORSDOF 4
ENDMDL
MODEL 8
REMARK VINA RESULT:      -7.0      6.703     10.823
REMARK  Name = 
REMARK  6 active torsions:
REMARK  status: ('A' for Active; 'I' for Inactive)
REMARK    1  A    between atoms: C_1  and  O_2
REMARK    2  A    between atoms: O_2  and  C_3
REMARK    3  A    between atoms: C_8  and  N_9
REMARK    4  A    between atoms: C_13  and  C_15
REMARK    5  A    between atoms: C_18  and  C_19
REMARK    6  A    between atoms: N_27  and  C_28
REMARK                            x       y       z     vdW  Elec       q    Type
REMARK                         _______ _______ _______ _____ _____    ______ ____
ROOT
ATOM      1  N   UNL     1       2.933   6.339  18.214  0.00  0.00    +0.000 N 
ATOM      2  C   UNL     1       2.413   5.774  19.471  0.00  0.00    +0.000 C 
ATOM      3  C   UNL     1       2.363   6.864  20.558  0.00  0.00    +0.000 C 
ATOM      4  N   UNL     1       1.686   8.084  20.102  0.00  0.00    +0.000 N 
ATOM      5  C   UNL     1       1.010   8.837  21.068  0.00  0.00    +0.000 C 
ATOM      6  O   UNL     1       1.001   8.459  22.240  0.00  0.00    +0.000 OA
ATOM      7  C   UNL     1       2.212   8.604  18.822  0.00  0.00    +0.000 C 
ATOM      8  C   UNL     1       2.193   7.516  17.734  0.00  0.00    +0.000 C 
ENDROOT
BRANCH   5   9
ATOM      9  C   UNL     1       0.297  10.036  20.655  0.00  0.00    +0.000 A 
ATOM     10  C   UNL     1      -1.017  10.231  20.214  0.00  0.00    +0.000 A 
ATOM     11  C   UNL     1      -1.226  11.583  19.953  0.00  0.00    +0.000 A 
ATOM     12  C   UNL     1      -2.261  12.397  19.478  0.00  0.00    +0.000 A 
ATOM     13  N   UNL     1      -1.863  13.696  19.592  0.00  0.00    +0.000 NA
ATOM     14  N   UNL     1      -0.590  13.632  20.082  0.00  0.00    +0.000 N 
ATOM     15  C   UNL     1       0.141  14.820  20.440  0.00  0.00    +0.000 C 
ATOM     16  C   UNL     1      -0.190  12.361  20.268  0.00  0.00    +0.000 A 
ATOM     17  S   UNL     1       1.154  11.563  20.809  0.00  0.00    +0.000 S 
BRANCH  12  18
ATOM     18  C   UNL     1      -3.574  12.051  18.930  0.00  0.00    +0.000 A 
ATOM     19  C   UNL     1      -3.681  11.506  17.640  0.00  0.00    +0.000 A 
ATOM     20  C   UNL     1      -4.927  11.151  17.109  0.00  0.00    +0.000 A 
ATOM     21  C   UNL     1      -6.085  11.328  17.862  0.00  0.00    +0.000 A 
ATOM     22  C   UNL     1      -5.997  11.854  19.149  0.00  0.00    +0.000 A 
ATOM     23  C   UNL     1      -4.749  12.209  19.674  0.00  0.00    +0.000 A 
ATOM     24  F   UNL     1      -4.720  12.678  20.930  0.00  0.00    +0.000 F 
ENDBRANCH  12  18
ENDBRANCH   5   9
BRANCH   1  30
ATOM     25  C   UNL     1       3.770   4.357  16.984  0.00  0.00    +0.000 A 
ATOM     26  C   UNL     1       4.777   3.781  16.191  0.00  0.00    +0.000 A 
ATOM     27  C   UNL     1       5.899   4.515  15.812  0.00  0.00    +0.000 A 
ATOM     28  C   UNL     1       6.037   5.822  16.245  0.00  0.00    +0.000 A 
ATOM     29  C   UNL     1       5.055   6.391  17.058  0.00  0.00    +0.000 A 
ATOM     30  C   UNL     1       3.895   5.693  17.453  0.00  0.00    +0.000 A 
BRANCH  25  32
ATOM     31  C   UNL     1       2.812   2.337  17.824  0.00  0.00    +0.000 C 
ATOM     32  O   UNL     1       2.631   3.657  17.325  0.00  0.00    +0.000 OA
ENDBRANCH  25  32
ENDBRANCH   1  30
TORSDOF 4
ENDMDL
MODEL 9
REMARK VINA RESULT:      -6.9      5.866      9.446
REMARK  Name = 
REMARK  6 active torsions:
REMARK  status: ('A' for Active; 'I' for Inactive)
REMARK    1  A    between atoms: C_1  and  O_2
REMARK    2  A    between atoms: O_2  and  C_3
REMARK    3  A    between atoms: C_8  and  N_9
REMARK    4  A    between atoms: C_13  and  C_15
REMARK    5  A    between atoms: C_18  and  C_19
REMARK    6  A    between atoms: N_27  and  C_28
REMARK                            x       y       z     vdW  Elec       q    Type
REMARK                         _______ _______ _______ _____ _____    ______ ____
ROOT
ATOM      1  N   UNL     1       2.322   6.702  19.736  0.00  0.00    +0.000 N 
ATOM      2  C   UNL     1       2.908   7.265  18.507  0.00  0.00    +0.000 C 
ATOM      3  C   UNL     1       2.007   8.387  17.960  0.00  0.00    +0.000 C 
ATOM      4  N   UNL     1       1.652   9.376  18.984  0.00  0.00    +0.000 N 
ATOM      5  C   UNL     1       1.435  10.689  18.555  0.00  0.00    +0.000 C 
ATOM      6  O   UNL     1       1.550  10.968  17.361  0.00  0.00    +0.000 OA
ATOM      7  C   UNL     1       1.097   8.773  20.215  0.00  0.00    +0.000 C 
ATOM      8  C   UNL     1       2.045   7.699  20.780  0.00  0.00    +0.000 C 
ENDROOT
BRANCH   5   9
ATOM      9  C   UNL     1       1.114  11.709  19.541  0.00  0.00    +0.000 A 
ATOM     10  C   UNL     1       0.032  11.845  20.420  0.00  0.00    +0.000 A 
ATOM     11  C   UNL     1       0.195  12.998  21.185  0.00  0.00    +0.000 A 
ATOM     12  C   UNL     1      -0.513  13.690  22.175  0.00  0.00    +0.000 A 
ATOM     13  N   UNL     1       0.279  14.705  22.627  0.00  0.00    +0.000 NA
ATOM     14  N   UNL     1       1.413  14.630  21.871  0.00  0.00    +0.000 N 
ATOM     15  C   UNL     1       2.545  15.482  22.123  0.00  0.00    +0.000 C 
ATOM     16  C   UNL     1       1.352  13.625  20.978  0.00  0.00    +0.000 A 
ATOM     17  S   UNL     1       2.309  12.971  19.798  0.00  0.00    +0.000 S 
BRANCH  12  18
ATOM     18  C   UNL     1      -1.855  13.475  22.717  0.00  0.00    +0.000 A 
ATOM     19  C   UNL     1      -2.835  14.475  22.596  0.00  0.00    +0.000 A 
ATOM     20  C   UNL     1      -4.130  14.278  23.092  0.00  0.00    +0.000 A 
ATOM     21  C   UNL     1      -4.468  13.076  23.709  0.00  0.00    +0.000 A 
ATOM     22  C   UNL     1      -3.513  12.069  23.826  0.00  0.00    +0.000 A 
ATOM     23  C   UNL     1      -2.220  12.272  23.330  0.00  0.00    +0.000 A 
ATOM     24  F   UNL     1      -1.352  11.254  23.439  0.00  0.00    +0.000 F 
ENDBRANCH  12  18
ENDBRANCH   5   9
BRANCH   1  30
ATOM     25  C   UNL     1       3.354   4.455  19.914  0.00  0.00    +0.000 A 
ATOM     26  C   UNL     1       3.194   3.085  20.181  0.00  0.00    +0.000 A 
ATOM     27  C   UNL     1       1.952   2.565  20.537  0.00  0.00    +0.000 A 
ATOM     28  C   UNL     1       0.853   3.404  20.601  0.00  0.00    +0.000 A 
ATOM     29  C   UNL     1       0.999   4.761  20.307  0.00  0.00    +0.000 A 
ATOM     30  C   UNL     1       2.240   5.336  19.959  0.00  0.00    +0.000 A 
BRANCH  25  32
ATOM     31  C   UNL     1       5.331   4.354  18.577  0.00  0.00    +0.000 C 
ATOM     32  O   UNL     1       4.588   4.991  19.609  0.00  0.00    +0.000 OA
ENDBRANCH  25  32
ENDBRANCH   1  30
TORSDOF 4
ENDMDL
