MODEL 1
REMARK VINA RESULT:      -6.1      0.000      0.000
REMARK  Name = 
REMARK  7 active torsions:
REMARK  status: ('A' for Active; 'I' for Inactive)
REMARK    1  A    between atoms: C_1  and  C_2
REMARK    2  A    between atoms: C_2  and  C_3
REMARK    3  A    between atoms: C_3  and  S_4
REMARK    4  A    between atoms: S_4  and  N_7
REMARK    5  A    between atoms: C_10  and  O_11
REMARK    6  A    between atoms: C_10  and  C_12
REMARK    7  A    between atoms: C_12  and  N_13
REMARK                            x       y       z     vdW  Elec       q    Type
REMARK                         _______ _______ _______ _____ _____    ______ ____
ROOT
ATOM      1  N   UNL     1       1.857   8.525  19.565  0.00  0.00    +0.000 NA
ATOM      2  C   UNL     1       1.991   8.452  18.087  0.00  0.00    +0.000 C 
ATOM      3  C   UNL     1       3.167   7.571  17.710  0.00  0.00    +0.000 C 
ATOM      4  C   UNL     1       3.038   6.147  18.280  0.00  0.00    +0.000 C 
ATOM      5  C   UNL     1       2.909   6.273  19.811  0.00  0.00    +0.000 C 
ATOM      6  C   UNL     1       1.730   7.179  20.206  0.00  0.00    +0.000 C 
ENDROOT
BRANCH   1   7
ATOM      7  S   UNL     1       0.673   9.667  20.090  0.00  0.00    +0.000 S 
ATOM      8  O   UNL     1      -0.328   9.771  19.047  0.00  0.00    +0.000 OA
ATOM      9  O   UNL     1       1.379  10.830  20.586  0.00  0.00    +0.000 OA
BRANCH   7  10
ATOM     10  C   UNL     1      -0.048   8.767  21.466  0.00  0.00    +0.000 C 
BRANCH  10  12
ATOM     11  C   UNL     1      -0.952  10.356  23.173  0.00  0.00    +0.000 C 
ATOM     12  C   UNL     1       0.211   9.446  22.804  0.00  0.00    +0.000 C 
ENDBRANCH  10  12
ENDBRANCH   7  10
ENDBRANCH   1   7
BRANCH   4  13
ATOM     13  O   UNL     1       1.860   5.464  17.823  0.00  0.00    +0.000 OA
ATOM     14  H   UNL     1       1.460   4.956  18.545  0.00  0.00    +0.000 HD
ENDBRANCH   4  13
BRANCH   4  15
ATOM     15  C   UNL     1       4.273   5.274  17.847  0.00  0.00    +0.000 C 
BRANCH  15  16
ATOM     16  N   UNL     1       5.380   6.042  17.221  0.00  0.00    +0.000 NA
ATOM     17  C   UNL     1       5.704   5.658  15.828  0.00  0.00    +0.000 C 
ATOM     18  C   UNL     1       6.561   4.391  15.690  0.00  0.00    +0.000 C 
ATOM     19  O   UNL     1       7.788   4.531  16.416  0.00  0.00    +0.000 OA
ATOM     20  C   UNL     1       7.515   4.766  17.802  0.00  0.00    +0.000 C 
ATOM     21  C   UNL     1       6.632   6.011  18.010  0.00  0.00    +0.000 C 
ENDBRANCH  15  16
ENDBRANCH   4  15
TORSDOF 6
ENDMDL
MODEL 2
REMARK VINA RESULT:      -6.1      1.433      1.670
REMARK  Name = 
REMARK  7 active torsions:
REMARK  status: ('A' for Active; 'I' for Inactive)
REMARK    1  A    between atoms: C_1  and  C_2
REMARK    2  A    between atoms: C_2  and  C_3
REMARK    3  A    between atoms: C_3  and  S_4
REMARK    4  A    between atoms: S_4  and  N_7
REMARK    5  A    between atoms: C_10  and  O_11
REMARK    6  A    between atoms: C_10  and  C_12
REMARK    7  A    between atoms: C_12  and  N_13
REMARK                            x       y       z     vdW  Elec       q    Type
REMARK                         _______ _______ _______ _____ _____    ______ ____
ROOT
ATOM      1  N   UNL     1       2.030   7.768  20.223  0.00  0.00    +0.000 NA
ATOM      2  C   UNL     1       2.047   8.057  18.765  0.00  0.00    +0.000 C 
ATOM      3  C   UNL     1       3.153   7.271  18.087  0.00  0.00    +0.000 C 
ATOM      4  C   UNL     1       3.008   5.753  18.304  0.00  0.00    +0.000 C 
ATOM      5  C   UNL     1       3.003   5.503  19.825  0.00  0.00    +0.000 C 
ATOM      6  C   UNL     1       1.897   6.310  20.527  0.00  0.00    +0.000 C 
ENDROOT
BRANCH   1   7
ATOM      7  S   UNL     1       0.938   8.773  21.107  0.00  0.00    +0.000 S 
ATOM      8  O   UNL     1       1.664   9.324  22.233  0.00  0.00    +0.000 OA
ATOM      9  O   UNL     1      -0.291   8.028  21.284  0.00  0.00    +0.000 OA
BRANCH   7  10
ATOM     10  C   UNL     1       0.680  10.087  19.913  0.00  0.00    +0.000 C 
BRANCH  10  12
ATOM     11  C   UNL     1      -1.154  11.649  20.591  0.00  0.00    +0.000 C 
ATOM     12  C   UNL     1      -0.793  10.437  19.743  0.00  0.00    +0.000 C 
ENDBRANCH  10  12
ENDBRANCH   7  10
ENDBRANCH   1   7
BRANCH   4  13
ATOM     13  O   UNL     1       1.772   5.229  17.796  0.00  0.00    +0.000 OA
ATOM     14  H   UNL     1       1.155   5.050  18.523  0.00  0.00    +0.000 HD
ENDBRANCH   4  13
BRANCH   4  15
ATOM     15  C   UNL     1       4.169   4.987  17.569  0.00  0.00    +0.000 C 
BRANCH  15  16
ATOM     16  N   UNL     1       5.267   5.858  17.077  0.00  0.00    +0.000 NA
ATOM     17  C   UNL     1       5.685   5.615  15.677  0.00  0.00    +0.000 C 
ATOM     18  C   UNL     1       6.613   4.406  15.481  0.00  0.00    +0.000 C 
ATOM     19  O   UNL     1       7.790   4.539  16.286  0.00  0.00    +0.000 OA
ATOM     20  C   UNL     1       7.431   4.637  17.669  0.00  0.00    +0.000 C 
ATOM     21  C   UNL     1       6.475   5.817  17.931  0.00  0.00    +0.000 C 
ENDBRANCH  15  16
ENDBRANCH   4  15
TORSDOF 6
ENDMDL
MODEL 3
REMARK VINA RESULT:      -5.8      1.578      1.930
REMARK  Name = 
REMARK  7 active torsions:
REMARK  status: ('A' for Active; 'I' for Inactive)
REMARK    1  A    between atoms: C_1  and  C_2
REMARK    2  A    between atoms: C_2  and  C_3
REMARK    3  A    between atoms: C_3  and  S_4
REMARK    4  A    between atoms: S_4  and  N_7
REMARK    5  A    between atoms: C_10  and  O_11
REMARK    6  A    between atoms: C_10  and  C_12
REMARK    7  A    between atoms: C_12  and  N_13
REMARK                            x       y       z     vdW  Elec       q    Type
REMARK                         _______ _______ _______ _____ _____    ______ ____
ROOT
ATOM      1  N   UNL     1       1.864   8.585  19.457  0.00  0.00    +0.000 NA
ATOM      2  C   UNL     1       2.011   8.456  17.984  0.00  0.00    +0.000 C 
ATOM      3  C   UNL     1       3.200   7.576  17.651  0.00  0.00    +0.000 C 
ATOM      4  C   UNL     1       3.083   6.173  18.275  0.00  0.00    +0.000 C 
ATOM      5  C   UNL     1       2.939   6.358  19.799  0.00  0.00    +0.000 C 
ATOM      6  C   UNL     1       1.747   7.265  20.149  0.00  0.00    +0.000 C 
ENDROOT
BRANCH   1   7
ATOM      7  S   UNL     1       0.662   9.733  19.927  0.00  0.00    +0.000 S 
ATOM      8  O   UNL     1       1.345  10.948  20.320  0.00  0.00    +0.000 OA
ATOM      9  O   UNL     1      -0.261   9.057  20.815  0.00  0.00    +0.000 OA
BRANCH   7  10
ATOM     10  C   UNL     1      -0.132  10.026  18.344  0.00  0.00    +0.000 C 
BRANCH  10  12
ATOM     11  C   UNL     1      -1.321  12.224  18.211  0.00  0.00    +0.000 C 
ATOM     12  C   UNL     1      -1.472  10.734  18.487  0.00  0.00    +0.000 C 
ENDBRANCH  10  12
ENDBRANCH   7  10
ENDBRANCH   1   7
BRANCH   4  13
ATOM     13  O   UNL     1       1.918   5.459  17.836  0.00  0.00    +0.000 OA
ATOM     14  H   UNL     1       1.721   4.726  18.440  0.00  0.00    +0.000 HD
ENDBRANCH   4  13
BRANCH   4  15
ATOM     15  C   UNL     1       4.332   5.300  17.887  0.00  0.00    +0.000 C 
BRANCH  15  16
ATOM     16  N   UNL     1       5.434   6.055  17.238  0.00  0.00    +0.000 NA
ATOM     17  C   UNL     1       5.738   5.654  15.845  0.00  0.00    +0.000 C 
ATOM     18  C   UNL     1       6.588   4.381  15.711  0.00  0.00    +0.000 C 
ATOM     19  O   UNL     1       7.825   4.525  16.418  0.00  0.00    +0.000 OA
ATOM     20  C   UNL     1       7.570   4.776  17.805  0.00  0.00    +0.000 C 
ATOM     21  C   UNL     1       6.696   6.028  18.010  0.00  0.00    +0.000 C 
ENDBRANCH  15  16
ENDBRANCH   4  15
TORSDOF 6
ENDMDL
MODEL 4
REMARK VINA RESULT:      -5.8      2.292      7.595
REMARK  Name = 
REMARK  7 active torsions:
REMARK  status: ('A' for Active; 'I' for Inactive)
REMARK    1  A    between atoms: C_1  and  C_2
REMARK    2  A    between atoms: C_2  and  C_3
REMARK    3  A    between atoms: C_3  and  S_4
REMARK    4  A    between atoms: S_4  and  N_7
REMARK    5  A    between atoms: C_10  and  O_11
REMARK    6  A    between atoms: C_10  and  C_12
REMARK    7  A    between atoms: C_12  and  N_13
REMARK                            x       y       z     vdW  Elec       q    Type
REMARK                         _______ _______ _______ _____ _____    ______ ____
ROOT
ATOM      1  N   UNL     1       5.590   5.971  17.979  0.00  0.00    +0.000 NA
ATOM      2  C   UNL     1       4.940   4.994  18.890  0.00  0.00    +0.000 C 
ATOM      3  C   UNL     1       3.789   5.650  19.629  0.00  0.00    +0.000 C 
ATOM      4  C   UNL     1       2.734   6.231  18.670  0.00  0.00    +0.000 C 
ATOM      5  C   UNL     1       3.452   7.241  17.752  0.00  0.00    +0.000 C 
ATOM      6  C   UNL     1       4.633   6.591  17.011  0.00  0.00    +0.000 C 
ENDROOT
BRANCH   1   7
ATOM      7  S   UNL     1       7.036   5.371  17.250  0.00  0.00    +0.000 S 
ATOM      8  O   UNL     1       7.732   4.580  18.243  0.00  0.00    +0.000 OA
ATOM      9  O   UNL     1       7.676   6.480  16.574  0.00  0.00    +0.000 OA
BRANCH   7  10
ATOM     10  C   UNL     1       6.336   4.249  16.036  0.00  0.00    +0.000 C 
BRANCH  10  12
ATOM     11  C   UNL     1       5.946   3.857  13.596  0.00  0.00    +0.000 C 
ATOM     12  C   UNL     1       6.845   4.524  14.628  0.00  0.00    +0.000 C 
ENDBRANCH  10  12
ENDBRANCH   7  10
ENDBRANCH   1   7
BRANCH   4  13
ATOM     13  O   UNL     1       2.149   5.240  17.812  0.00  0.00    +0.000 OA
ATOM     14  H   UNL     1       2.840   4.742  17.348  0.00  0.00    +0.000 HD
ENDBRANCH   4  13
BRANCH   4  15
ATOM     15  C   UNL     1       1.560   6.885  19.486  0.00  0.00    +0.000 C 
BRANCH  15  16
ATOM     16  N   UNL     1       1.869   8.226  20.045  0.00  0.00    +0.000 NA
ATOM     17  C   UNL     1       1.434   8.441  21.445  0.00  0.00    +0.000 C 
ATOM     18  C   UNL     1      -0.059   8.761  21.614  0.00  0.00    +0.000 C 
ATOM     19  O   UNL     1      -0.416   9.918  20.848  0.00  0.00    +0.000 OA
ATOM     20  C   UNL     1      -0.137   9.693  19.461  0.00  0.00    +0.000 C 
ATOM     21  C   UNL     1       1.343   9.338  19.223  0.00  0.00    +0.000 C 
ENDBRANCH  15  16
ENDBRANCH   4  15
TORSDOF 6
ENDMDL
MODEL 5
REMARK VINA RESULT:      -5.6      3.929      7.522
REMARK  Name = 
REMARK  7 active torsions:
REMARK  status: ('A' for Active; 'I' for Inactive)
REMARK    1  A    between atoms: C_1  and  C_2
REMARK    2  A    between atoms: C_2  and  C_3
REMARK    3  A    between atoms: C_3  and  S_4
REMARK    4  A    between atoms: S_4  and  N_7
REMARK    5  A    between atoms: C_10  and  O_11
REMARK    6  A    between atoms: C_10  and  C_12
REMARK    7  A    between atoms: C_12  and  N_13
REMARK                            x       y       z     vdW  Elec       q    Type
REMARK                         _______ _______ _______ _____ _____    ______ ____
ROOT
ATOM      1  N   UNL     1       5.752   4.679  17.274  0.00  0.00    +0.000 NA
ATOM      2  C   UNL     1       4.488   4.482  16.518  0.00  0.00    +0.000 C 
ATOM      3  C   UNL     1       3.352   4.159  17.470  0.00  0.00    +0.000 C 
ATOM      4  C   UNL     1       3.146   5.259  18.528  0.00  0.00    +0.000 C 
ATOM      5  C   UNL     1       4.476   5.422  19.288  0.00  0.00    +0.000 C 
ATOM      6  C   UNL     1       5.641   5.731  18.331  0.00  0.00    +0.000 C 
ENDROOT
BRANCH   1   7
ATOM      7  S   UNL     1       7.138   4.848  16.258  0.00  0.00    +0.000 S 
ATOM      8  O   UNL     1       8.232   4.135  16.886  0.00  0.00    +0.000 OA
ATOM      9  O   UNL     1       7.247   6.247  15.901  0.00  0.00    +0.000 OA
BRANCH   7  10
ATOM     10  C   UNL     1       6.602   3.901  14.831  0.00  0.00    +0.000 C 
BRANCH  10  12
ATOM     11  C   UNL     1       6.660   3.707  12.337  0.00  0.00    +0.000 C 
ATOM     12  C   UNL     1       6.817   4.649  13.522  0.00  0.00    +0.000 C 
ENDBRANCH  10  12
ENDBRANCH   7  10
ENDBRANCH   1   7
BRANCH   4  13
ATOM     13  O   UNL     1       2.840   6.539  17.954  0.00  0.00    +0.000 OA
ATOM     14  H   UNL     1       2.171   6.998  18.486  0.00  0.00    +0.000 HD
ENDBRANCH   4  13
BRANCH   4  15
ATOM     15  C   UNL     1       1.949   4.881  19.476  0.00  0.00    +0.000 C 
BRANCH  15  16
ATOM     16  N   UNL     1       1.674   3.425  19.572  0.00  0.00    +0.000 NA
ATOM     17  C   UNL     1       0.790   3.023  20.691  0.00  0.00    +0.000 C 
ATOM     18  C   UNL     1       1.482   2.939  22.060  0.00  0.00    +0.000 C 
ATOM     19  O   UNL     1       2.589   2.031  22.010  0.00  0.00    +0.000 OA
ATOM     20  C   UNL     1       3.538   2.467  21.030  0.00  0.00    +0.000 C 
ATOM     21  C   UNL     1       2.900   2.600  19.634  0.00  0.00    +0.000 C 
ENDBRANCH  15  16
ENDBRANCH   4  15
TORSDOF 6
ENDMDL
MODEL 6
REMARK VINA RESULT:      -5.5      2.532      7.789
REMARK  Name = 
REMARK  7 active torsions:
REMARK  status: ('A' for Active; 'I' for Inactive)
REMARK    1  A    between atoms: C_1  and  C_2
REMARK    2  A    between atoms: C_2  and  C_3
REMARK    3  A    between atoms: C_3  and  S_4
REMARK    4  A    between atoms: S_4  and  N_7
REMARK    5  A    between atoms: C_10  and  O_11
REMARK    6  A    between atoms: C_10  and  C_12
REMARK    7  A    between atoms: C_12  and  N_13
REMARK                            x       y       z     vdW  Elec       q    Type
REMARK                         _______ _______ _______ _____ _____    ______ ____
ROOT
ATOM      1  N   UNL     1       5.267   5.523  16.698  0.00  0.00    +0.000 NA
ATOM      2  C   UNL     1       5.453   6.779  17.469  0.00  0.00    +0.000 C 
ATOM      3  C   UNL     1       4.108   7.405  17.784  0.00  0.00    +0.000 C 
ATOM      4  C   UNL     1       3.191   6.454  18.575  0.00  0.00    +0.000 C 
ATOM      5  C   UNL     1       3.023   5.172  17.736  0.00  0.00    +0.000 C 
ATOM      6  C   UNL     1       4.382   4.538  17.394  0.00  0.00    +0.000 C 
ENDROOT
BRANCH   1   7
ATOM      7  S   UNL     1       6.749   4.849  16.120  0.00  0.00    +0.000 S 
ATOM      8  O   UNL     1       7.396   4.191  17.236  0.00  0.00    +0.000 OA
ATOM      9  O   UNL     1       7.419   5.873  15.346  0.00  0.00    +0.000 OA
BRANCH   7  10
ATOM     10  C   UNL     1       6.112   3.582  15.019  0.00  0.00    +0.000 C 
BRANCH  10  12
ATOM     11  C   UNL     1       5.996   3.375  12.528  0.00  0.00    +0.000 C 
ATOM     12  C   UNL     1       5.523   4.165  13.741  0.00  0.00    +0.000 C 
ENDBRANCH  10  12
ENDBRANCH   7  10
ENDBRANCH   1   7
BRANCH   4  13
ATOM     13  O   UNL     1       3.752   6.051  19.834  0.00  0.00    +0.000 OA
ATOM     14  H   UNL     1       4.200   6.798  20.261  0.00  0.00    +0.000 HD
ENDBRANCH   4  13
BRANCH   4  15
ATOM     15  C   UNL     1       1.819   7.157  18.887  0.00  0.00    +0.000 C 
BRANCH  15  16
ATOM     16  N   UNL     1       1.937   8.434  19.637  0.00  0.00    +0.000 NA
ATOM     17  C   UNL     1       1.379   8.412  21.009  0.00  0.00    +0.000 C 
ATOM     18  C   UNL     1      -0.148   8.558  21.086  0.00  0.00    +0.000 C 
ATOM     19  O   UNL     1      -0.572   9.767  20.445  0.00  0.00    +0.000 OA
ATOM     20  C   UNL     1      -0.169   9.762  19.071  0.00  0.00    +0.000 C 
ATOM     21  C   UNL     1       1.355   9.590  18.921  0.00  0.00    +0.000 C 
ENDBRANCH  15  16
ENDBRANCH   4  15
TORSDOF 6
ENDMDL
MODEL 7
REMARK VINA RESULT:      -5.4      4.130      6.741
REMARK  Name = 
REMARK  7 active torsions:
REMARK  status: ('A' for Active; 'I' for Inactive)
REMARK    1  A    between atoms: C_1  and  C_2
REMARK    2  A    between atoms: C_2  and  C_3
REMARK    3  A    between atoms: C_3  and  S_4
REMARK    4  A    between atoms: S_4  and  N_7
REMARK    5  A    between atoms: C_10  and  O_11
REMARK    6  A    between atoms: C_10  and  C_12
REMARK    7  A    between atoms: C_12  and  N_13
REMARK                            x       y       z     vdW  Elec       q    Type
REMARK                         _______ _______ _______ _____ _____    ______ ____
ROOT
ATOM      1  N   UNL     1       5.890   4.816  17.845  0.00  0.00    +0.000 NA
ATOM      2  C   UNL     1       4.911   4.563  16.756  0.00  0.00    +0.000 C 
ATOM      3  C   UNL     1       3.609   4.039  17.331  0.00  0.00    +0.000 C 
ATOM      4  C   UNL     1       2.991   5.007  18.356  0.00  0.00    +0.000 C 
ATOM      5  C   UNL     1       4.036   5.233  19.466  0.00  0.00    +0.000 C 
ATOM      6  C   UNL     1       5.368   5.747  18.893  0.00  0.00    +0.000 C 
ENDROOT
BRANCH   1   7
ATOM      7  S   UNL     1       7.467   5.220  17.268  0.00  0.00    +0.000 S 
ATOM      8  O   UNL     1       7.335   5.636  15.887  0.00  0.00    +0.000 OA
ATOM      9  O   UNL     1       8.360   4.149  17.659  0.00  0.00    +0.000 OA
BRANCH   7  10
ATOM     10  C   UNL     1       7.803   6.678  18.260  0.00  0.00    +0.000 C 
BRANCH  10  12
ATOM     11  C   UNL     1       8.404   9.105  18.177  0.00  0.00    +0.000 C 
ATOM     12  C   UNL     1       7.696   7.966  17.456  0.00  0.00    +0.000 C 
ENDBRANCH  10  12
ENDBRANCH   7  10
ENDBRANCH   1   7
BRANCH   4  13
ATOM     13  O   UNL     1       2.695   6.298  17.801  0.00  0.00    +0.000 OA
ATOM     14  H   UNL     1       3.473   6.875  17.850  0.00  0.00    +0.000 HD
ENDBRANCH   4  13
BRANCH   4  15
ATOM     15  C   UNL     1       1.639   4.423  18.908  0.00  0.00    +0.000 C 
BRANCH  15  16
ATOM     16  N   UNL     1       1.678   2.972  19.223  0.00  0.00    +0.000 NA
ATOM     17  C   UNL     1       0.788   2.542  20.326  0.00  0.00    +0.000 C 
ATOM     18  C   UNL     1       1.330   2.819  21.737  0.00  0.00    +0.000 C 
ATOM     19  O   UNL     1       2.607   2.194  21.917  0.00  0.00    +0.000 OA
ATOM     20  C   UNL     1       3.538   2.691  20.949  0.00  0.00    +0.000 C 
ATOM     21  C   UNL     1       3.040   2.470  19.508  0.00  0.00    +0.000 C 
ENDBRANCH  15  16
ENDBRANCH   4  15
TORSDOF 6
ENDMDL
MODEL 8
REMARK VINA RESULT:      -5.4      2.425      7.314
REMARK  Name = 
REMARK  7 active torsions:
REMARK  status: ('A' for Active; 'I' for Inactive)
REMARK    1  A    between atoms: C_1  and  C_2
REMARK    2  A    between atoms: C_2  and  C_3
REMARK    3  A    between atoms: C_3  and  S_4
REMARK    4  A    between atoms: S_4  and  N_7
REMARK    5  A    between atoms: C_10  and  O_11
REMARK    6  A    between atoms: C_10  and  C_12
REMARK    7  A    between atoms: C_12  and  N_13
REMARK                            x       y       z     vdW  Elec       q    Type
REMARK                         _______ _______ _______ _____ _____    ______ ____
ROOT
ATOM      1  N   UNL     1       4.540   5.606  16.553  0.00  0.00    +0.000 NA
ATOM      2  C   UNL     1       4.843   6.880  17.255  0.00  0.00    +0.000 C 
ATOM      3  C   UNL     1       3.565   7.509  17.777  0.00  0.00    +0.000 C 
ATOM      4  C   UNL     1       2.799   6.573  18.729  0.00  0.00    +0.000 C 
ATOM      5  C   UNL     1       2.502   5.272  17.958  0.00  0.00    +0.000 C 
ATOM      6  C   UNL     1       3.790   4.634  17.407  0.00  0.00    +0.000 C 
ENDROOT
BRANCH   1   7
ATOM      7  S   UNL     1       5.908   4.925  15.750  0.00  0.00    +0.000 S 
ATOM      8  O   UNL     1       5.962   5.491  14.418  0.00  0.00    +0.000 OA
ATOM      9  O   UNL     1       5.873   3.493  15.969  0.00  0.00    +0.000 OA
BRANCH   7  10
ATOM     10  C   UNL     1       7.236   5.649  16.718  0.00  0.00    +0.000 C 
BRANCH  10  12
ATOM     11  C   UNL     1       7.677   5.606  19.180  0.00  0.00    +0.000 C 
ATOM     12  C   UNL     1       7.634   4.779  17.902  0.00  0.00    +0.000 C 
ENDBRANCH  10  12
ENDBRANCH   7  10
ENDBRANCH   1   7
BRANCH   4  13
ATOM     13  O   UNL     1       3.565   6.200  19.885  0.00  0.00    +0.000 OA
ATOM     14  H   UNL     1       3.704   6.967  20.462  0.00  0.00    +0.000 HD
ENDBRANCH   4  13
BRANCH   4  15
ATOM     15  C   UNL     1       1.493   7.278  19.251  0.00  0.00    +0.000 C 
BRANCH  15  16
ATOM     16  N   UNL     1       1.733   8.521  20.028  0.00  0.00    +0.000 NA
ATOM     17  C   UNL     1       1.278   8.480  21.437  0.00  0.00    +0.000 C 
ATOM     18  C   UNL     1      -0.230   8.697  21.635  0.00  0.00    +0.000 C 
ATOM     19  O   UNL     1      -0.637   9.947  21.066  0.00  0.00    +0.000 OA
ATOM     20  C   UNL     1      -0.339   9.969  19.665  0.00  0.00    +0.000 C 
ATOM     21  C   UNL     1       1.159   9.728  19.394  0.00  0.00    +0.000 C 
ENDBRANCH  15  16
ENDBRANCH   4  15
TORSDOF 6
ENDMDL
MODEL 9
REMARK VINA RESULT:      -5.4      1.752      2.222
REMARK  Name = 
REMARK  7 active torsions:
REMARK  status: ('A' for Active; 'I' for Inactive)
REMARK    1  A    between atoms: C_1  and  C_2
REMARK    2  A    between atoms: C_2  and  C_3
REMARK    3  A    between atoms: C_3  and  S_4
REMARK    4  A    between atoms: S_4  and  N_7
REMARK    5  A    between atoms: C_10  and  O_11
REMARK    6  A    between atoms: C_10  and  C_12
REMARK    7  A    between atoms: C_12  and  N_13
REMARK                            x       y       z     vdW  Elec       q    Type
REMARK                         _______ _______ _______ _____ _____    ______ ____
ROOT
ATOM      1  N   UNL     1       1.599   8.587  20.061  0.00  0.00    +0.000 NA
ATOM      2  C   UNL     1       1.490   8.821  18.598  0.00  0.00    +0.000 C 
ATOM      3  C   UNL     1       2.732   8.312  17.891  0.00  0.00    +0.000 C 
ATOM      4  C   UNL     1       2.979   6.814  18.149  0.00  0.00    +0.000 C 
ATOM      5  C   UNL     1       3.091   6.622  19.675  0.00  0.00    +0.000 C 
ATOM      6  C   UNL     1       1.845   7.152  20.405  0.00  0.00    +0.000 C 
ENDROOT
BRANCH   1   7
ATOM      7  S   UNL     1       0.323   9.317  20.968  0.00  0.00    +0.000 S 
ATOM      8  O   UNL     1       0.911  10.344  21.803  0.00  0.00    +0.000 OA
ATOM      9  O   UNL     1      -0.481   8.249  21.526  0.00  0.00    +0.000 OA
BRANCH   7  10
ATOM     10  C   UNL     1      -0.583  10.125  19.645  0.00  0.00    +0.000 C 
BRANCH  10  12
ATOM     11  C   UNL     1      -1.200  12.303  18.580  0.00  0.00    +0.000 C 
ATOM     12  C   UNL     1      -0.682  11.631  19.845  0.00  0.00    +0.000 C 
ENDBRANCH  10  12
ENDBRANCH   7  10
ENDBRANCH   1   7
BRANCH   4  13
ATOM     13  O   UNL     1       1.895   5.982  17.708  0.00  0.00    +0.000 OA
ATOM     14  H   UNL     1       1.528   5.480  18.452  0.00  0.00    +0.000 HD
ENDBRANCH   4  13
BRANCH   4  15
ATOM     15  C   UNL     1       4.267   6.337  17.383  0.00  0.00    +0.000 C 
BRANCH  15  16
ATOM     16  N   UNL     1       4.914   5.129  17.958  0.00  0.00    +0.000 NA
ATOM     17  C   UNL     1       6.145   5.385  18.740  0.00  0.00    +0.000 C 
ATOM     18  C   UNL     1       7.410   5.609  17.896  0.00  0.00    +0.000 C 
ATOM     19  O   UNL     1       7.646   4.488  17.036  0.00  0.00    +0.000 OA
ATOM     20  C   UNL     1       6.527   4.294  16.164  0.00  0.00    +0.000 C 
ATOM     21  C   UNL     1       5.217   4.091  16.948  0.00  0.00    +0.000 C 
ENDBRANCH  15  16
ENDBRANCH   4  15
TORSDOF 6
ENDMDL
