MODEL 1
REMARK VINA RESULT:      -7.0      0.000      0.000
REMARK  Name = 
REMARK  10 active torsions:
REMARK  status: ('A' for Active; 'I' for Inactive)
REMARK    1  A    between atoms: C_1  and  O_2
REMARK    2  A    between atoms: O_2  and  C_3
REMARK    3  A    between atoms: C_8  and  C_9
REMARK    4  A    between atoms: C_10  and  C_11
REMARK    5  A    between atoms: C_13  and  O_14
REMARK    6  A    between atoms: O_14  and  C_15
REMARK    7  A    between atoms: C_16  and  O_17
REMARK    8  A    between atoms: O_17  and  C_18
REMARK    9  A    between atoms: C_19  and  O_20
REMARK   10  A    between atoms: O_20  and  C_21
REMARK                            x       y       z     vdW  Elec       q    Type
REMARK                         _______ _______ _______ _____ _____    ______ ____
ROOT
ATOM      1  C   UNL     1       4.184   4.671  17.706  0.00  0.00    +0.000 C 
ATOM      2  C   UNL     1       2.959   5.159  17.931  0.00  0.00    +0.000 C 
ATOM      3  C   UNL     1       2.019   4.073  17.617  0.00  0.00    +0.000 C 
ATOM      4  O   UNL     1       0.807   4.125  17.708  0.00  0.00    +0.000 OA
ATOM      5  O   UNL     1       2.723   2.975  17.220  0.00  0.00    +0.000 OA
ATOM      6  C   UNL     1       4.123   3.265  17.273  0.00  0.00    +0.000 C 
ENDROOT
BRANCH   1  12
ATOM      7  C   UNL     1       6.021   6.230  16.967  0.00  0.00    +0.000 A 
ATOM      8  C   UNL     1       7.171   6.959  17.294  0.00  0.00    +0.000 A 
ATOM      9  C   UNL     1       7.790   6.791  18.533  0.00  0.00    +0.000 A 
ATOM     10  C   UNL     1       7.260   5.899  19.460  0.00  0.00    +0.000 A 
ATOM     11  C   UNL     1       6.092   5.200  19.163  0.00  0.00    +0.000 A 
ATOM     12  C   UNL     1       5.455   5.367  17.925  0.00  0.00    +0.000 A 
BRANCH   7  14
ATOM     13  C   UNL     1       5.852   5.463  14.740  0.00  0.00    +0.000 C 
ATOM     14  O   UNL     1       5.380   6.349  15.756  0.00  0.00    +0.000 OA
ENDBRANCH   7  14
ENDBRANCH   1  12
BRANCH   2  15
ATOM     15  C   UNL     1       2.612   6.460  18.475  0.00  0.00    +0.000 A 
ATOM     16  C   UNL     1       2.176   6.589  19.790  0.00  0.00    +0.000 A 
ATOM     17  C   UNL     1       1.765   7.835  20.276  0.00  0.00    +0.000 A 
ATOM     18  C   UNL     1       1.752   8.962  19.421  0.00  0.00    +0.000 A 
ATOM     19  C   UNL     1       2.182   8.827  18.084  0.00  0.00    +0.000 A 
ATOM     20  C   UNL     1       2.635   7.579  17.639  0.00  0.00    +0.000 A 
BRANCH  17  21
ATOM     21  O   UNL     1       1.326   8.020  21.570  0.00  0.00    +0.000 OA
ATOM     22  C   UNL     1      -0.077   7.896  21.775  0.00  0.00    +0.000 C 
ENDBRANCH  17  21
BRANCH  18  23
ATOM     23  O   UNL     1       1.233  10.110  19.979  0.00  0.00    +0.000 OA
ATOM     24  C   UNL     1      -0.122  10.425  19.684  0.00  0.00    +0.000 C 
ENDBRANCH  18  23
BRANCH  19  25
ATOM     25  O   UNL     1       2.097   9.914  17.253  0.00  0.00    +0.000 OA
ATOM     26  C   UNL     1       2.631  11.152  17.709  0.00  0.00    +0.000 C 
ENDBRANCH  19  25
ENDBRANCH   2  15
TORSDOF 6
ENDMDL
MODEL 2
REMARK VINA RESULT:      -6.8      5.795      8.749
REMARK  Name = 
REMARK  10 active torsions:
REMARK  status: ('A' for Active; 'I' for Inactive)
REMARK    1  A    between atoms: C_1  and  O_2
REMARK    2  A    between atoms: O_2  and  C_3
REMARK    3  A    between atoms: C_8  and  C_9
REMARK    4  A    between atoms: C_10  and  C_11
REMARK    5  A    between atoms: C_13  and  O_14
REMARK    6  A    between atoms: O_14  and  C_15
REMARK    7  A    between atoms: C_16  and  O_17
REMARK    8  A    between atoms: O_17  and  C_18
REMARK    9  A    between atoms: C_19  and  O_20
REMARK   10  A    between atoms: O_20  and  C_21
REMARK                            x       y       z     vdW  Elec       q    Type
REMARK                         _______ _______ _______ _____ _____    ______ ____
ROOT
ATOM      1  C   UNL     1       0.600  12.237  20.418  0.00  0.00    +0.000 C 
ATOM      2  C   UNL     1      -0.328  12.875  19.697  0.00  0.00    +0.000 C 
ATOM      3  C   UNL     1       0.293  14.127  19.241  0.00  0.00    +0.000 C 
ATOM      4  O   UNL     1      -0.232  14.977  18.546  0.00  0.00    +0.000 OA
ATOM      5  O   UNL     1       1.573  14.185  19.707  0.00  0.00    +0.000 OA
ATOM      6  C   UNL     1       1.861  12.999  20.452  0.00  0.00    +0.000 C 
ENDROOT
BRANCH   1  12
ATOM      7  C   UNL     1      -0.174  10.729  22.284  0.00  0.00    +0.000 A 
ATOM      8  C   UNL     1      -0.377   9.428  22.760  0.00  0.00    +0.000 A 
ATOM      9  C   UNL     1       0.103   8.329  22.047  0.00  0.00    +0.000 A 
ATOM     10  C   UNL     1       0.782   8.518  20.848  0.00  0.00    +0.000 A 
ATOM     11  C   UNL     1       0.953   9.805  20.343  0.00  0.00    +0.000 A 
ATOM     12  C   UNL     1       0.467  10.919  21.044  0.00  0.00    +0.000 A 
BRANCH   7  14
ATOM     13  C   UNL     1      -1.992  11.815  23.330  0.00  0.00    +0.000 C 
ATOM     14  O   UNL     1      -0.615  11.847  22.953  0.00  0.00    +0.000 OA
ENDBRANCH   7  14
ENDBRANCH   1  12
BRANCH   2  15
ATOM     15  C   UNL     1      -1.651  12.395  19.338  0.00  0.00    +0.000 A 
ATOM     16  C   UNL     1      -1.839  11.599  18.213  0.00  0.00    +0.000 A 
ATOM     17  C   UNL     1      -3.129  11.214  17.830  0.00  0.00    +0.000 A 
ATOM     18  C   UNL     1      -4.252  11.667  18.562  0.00  0.00    +0.000 A 
ATOM     19  C   UNL     1      -4.060  12.487  19.695  0.00  0.00    +0.000 A 
ATOM     20  C   UNL     1      -2.756  12.815  20.083  0.00  0.00    +0.000 A 
BRANCH  17  21
ATOM     21  O   UNL     1      -3.372  10.423  16.728  0.00  0.00    +0.000 OA
ATOM     22  C   UNL     1      -2.837  10.893  15.495  0.00  0.00    +0.000 C 
ENDBRANCH  17  21
BRANCH  18  23
ATOM     23  O   UNL     1      -5.473  11.309  18.034  0.00  0.00    +0.000 OA
ATOM     24  C   UNL     1      -6.174  12.293  17.283  0.00  0.00    +0.000 C 
ENDBRANCH  18  23
BRANCH  19  25
ATOM     25  O   UNL     1      -5.163  12.972  20.349  0.00  0.00    +0.000 OA
ATOM     26  C   UNL     1      -5.298  12.690  21.738  0.00  0.00    +0.000 C 
ENDBRANCH  19  25
ENDBRANCH   2  15
TORSDOF 6
ENDMDL
MODEL 3
REMARK VINA RESULT:      -6.7      2.315      5.711
REMARK  Name = 
REMARK  10 active torsions:
REMARK  status: ('A' for Active; 'I' for Inactive)
REMARK    1  A    between atoms: C_1  and  O_2
REMARK    2  A    between atoms: O_2  and  C_3
REMARK    3  A    between atoms: C_8  and  C_9
REMARK    4  A    between atoms: C_10  and  C_11
REMARK    5  A    between atoms: C_13  and  O_14
REMARK    6  A    between atoms: O_14  and  C_15
REMARK    7  A    between atoms: C_16  and  O_17
REMARK    8  A    between atoms: O_17  and  C_18
REMARK    9  A    between atoms: C_19  and  O_20
REMARK   10  A    between atoms: O_20  and  C_21
REMARK                            x       y       z     vdW  Elec       q    Type
REMARK                         _______ _______ _______ _____ _____    ______ ____
ROOT
ATOM      1  C   UNL     1       2.280   4.055  18.614  0.00  0.00    +0.000 C 
ATOM      2  C   UNL     1       3.438   3.565  18.159  0.00  0.00    +0.000 C 
ATOM      3  C   UNL     1       3.176   2.168  17.784  0.00  0.00    +0.000 C 
ATOM      4  O   UNL     1       3.982   1.388  17.315  0.00  0.00    +0.000 OA
ATOM      5  O   UNL     1       1.865   1.880  18.028  0.00  0.00    +0.000 OA
ATOM      6  C   UNL     1       1.211   3.045  18.539  0.00  0.00    +0.000 C 
ENDROOT
BRANCH   1  12
ATOM      7  C   UNL     1       1.612   5.734  20.372  0.00  0.00    +0.000 A 
ATOM      8  C   UNL     1       1.514   7.074  20.766  0.00  0.00    +0.000 A 
ATOM      9  C   UNL     1       1.764   8.102  19.856  0.00  0.00    +0.000 A 
ATOM     10  C   UNL     1       2.124   7.800  18.547  0.00  0.00    +0.000 A 
ATOM     11  C   UNL     1       2.267   6.470  18.154  0.00  0.00    +0.000 A 
ATOM     12  C   UNL     1       2.028   5.428  19.062  0.00  0.00    +0.000 A 
BRANCH   7  14
ATOM     13  C   UNL     1       2.530   4.079  21.786  0.00  0.00    +0.000 C 
ATOM     14  O   UNL     1       1.364   4.684  21.225  0.00  0.00    +0.000 OA
ENDBRANCH   7  14
ENDBRANCH   1  12
BRANCH   2  15
ATOM     15  C   UNL     1       4.686   4.283  17.966  0.00  0.00    +0.000 A 
ATOM     16  C   UNL     1       5.431   4.722  19.056  0.00  0.00    +0.000 A 
ATOM     17  C   UNL     1       6.587   5.485  18.858  0.00  0.00    +0.000 A 
ATOM     18  C   UNL     1       6.981   5.850  17.548  0.00  0.00    +0.000 A 
ATOM     19  C   UNL     1       6.216   5.416  16.445  0.00  0.00    +0.000 A 
ATOM     20  C   UNL     1       5.092   4.611  16.671  0.00  0.00    +0.000 A 
BRANCH  17  21
ATOM     21  O   UNL     1       7.364   5.943  19.900  0.00  0.00    +0.000 OA
ATOM     22  C   UNL     1       8.463   5.115  20.267  0.00  0.00    +0.000 C 
ENDBRANCH  17  21
BRANCH  18  23
ATOM     23  O   UNL     1       8.074   6.686  17.481  0.00  0.00    +0.000 OA
ATOM     24  C   UNL     1       7.836   8.083  17.587  0.00  0.00    +0.000 C 
ENDBRANCH  18  23
BRANCH  19  25
ATOM     25  O   UNL     1       6.575   5.836  15.190  0.00  0.00    +0.000 OA
ATOM     26  C   UNL     1       6.924   4.850  14.225  0.00  0.00    +0.000 C 
ENDBRANCH  19  25
ENDBRANCH   2  15
TORSDOF 6
ENDMDL
MODEL 4
REMARK VINA RESULT:      -6.7      2.183      3.553
REMARK  Name = 
REMARK  10 active torsions:
REMARK  status: ('A' for Active; 'I' for Inactive)
REMARK    1  A    between atoms: C_1  and  O_2
REMARK    2  A    between atoms: O_2  and  C_3
REMARK    3  A    between atoms: C_8  and  C_9
REMARK    4  A    between atoms: C_10  and  C_11
REMARK    5  A    between atoms: C_13  and  O_14
REMARK    6  A    between atoms: O_14  and  C_15
REMARK    7  A    between atoms: C_16  and  O_17
REMARK    8  A    between atoms: O_17  and  C_18
REMARK    9  A    between atoms: C_19  and  O_20
REMARK   10  A    between atoms: O_20  and  C_21
REMARK                            x       y       z     vdW  Elec       q    Type
REMARK                         _______ _______ _______ _____ _____    ______ ____
ROOT
ATOM      1  C   UNL     1       4.183   3.421  19.466  0.00  0.00    +0.000 C 
ATOM      2  C   UNL     1       3.200   4.101  20.065  0.00  0.00    +0.000 C 
ATOM      3  C   UNL     1       2.767   3.281  21.206  0.00  0.00    +0.000 C 
ATOM      4  O   UNL     1       1.896   3.567  22.005  0.00  0.00    +0.000 OA
ATOM      5  O   UNL     1       3.515   2.141  21.245  0.00  0.00    +0.000 OA
ATOM      6  C   UNL     1       4.466   2.162  20.177  0.00  0.00    +0.000 C 
ENDROOT
BRANCH   1  12
ATOM      7  C   UNL     1       6.156   4.601  18.432  0.00  0.00    +0.000 A 
ATOM      8  C   UNL     1       6.919   4.874  17.290  0.00  0.00    +0.000 A 
ATOM      9  C   UNL     1       6.479   4.467  16.029  0.00  0.00    +0.000 A 
ATOM     10  C   UNL     1       5.278   3.778  15.899  0.00  0.00    +0.000 A 
ATOM     11  C   UNL     1       4.531   3.463  17.033  0.00  0.00    +0.000 A 
ATOM     12  C   UNL     1       4.967   3.857  18.307  0.00  0.00    +0.000 A 
BRANCH   7  14
ATOM     13  C   UNL     1       7.814   5.625  19.767  0.00  0.00    +0.000 C 
ATOM     14  O   UNL     1       6.536   4.990  19.695  0.00  0.00    +0.000 OA
ENDBRANCH   7  14
ENDBRANCH   1  12
BRANCH   2  15
ATOM     15  C   UNL     1       2.716   5.430  19.734  0.00  0.00    +0.000 A 
ATOM     16  C   UNL     1       3.157   6.083  18.588  0.00  0.00    +0.000 A 
ATOM     17  C   UNL     1       2.748   7.396  18.324  0.00  0.00    +0.000 A 
ATOM     18  C   UNL     1       1.919   8.080  19.245  0.00  0.00    +0.000 A 
ATOM     19  C   UNL     1       1.485   7.420  20.414  0.00  0.00    +0.000 A 
ATOM     20  C   UNL     1       1.869   6.091  20.627  0.00  0.00    +0.000 A 
BRANCH  17  21
ATOM     21  O   UNL     1       3.151   8.089  17.203  0.00  0.00    +0.000 OA
ATOM     22  C   UNL     1       4.278   7.557  16.514  0.00  0.00    +0.000 C 
ENDBRANCH  17  21
BRANCH  18  23
ATOM     23  O   UNL     1       1.666   9.398  18.932  0.00  0.00    +0.000 OA
ATOM     24  C   UNL     1       0.419   9.694  18.316  0.00  0.00    +0.000 C 
ENDBRANCH  18  23
BRANCH  19  25
ATOM     25  O   UNL     1       0.739   8.122  21.326  0.00  0.00    +0.000 OA
ATOM     26  C   UNL     1       1.415   9.021  22.198  0.00  0.00    +0.000 C 
ENDBRANCH  19  25
ENDBRANCH   2  15
TORSDOF 6
ENDMDL
MODEL 5
REMARK VINA RESULT:      -6.6      4.335      8.138
REMARK  Name = 
REMARK  10 active torsions:
REMARK  status: ('A' for Active; 'I' for Inactive)
REMARK    1  A    between atoms: C_1  and  O_2
REMARK    2  A    between atoms: O_2  and  C_3
REMARK    3  A    between atoms: C_8  and  C_9
REMARK    4  A    between atoms: C_10  and  C_11
REMARK    5  A    between atoms: C_13  and  O_14
REMARK    6  A    between atoms: O_14  and  C_15
REMARK    7  A    between atoms: C_16  and  O_17
REMARK    8  A    between atoms: O_17  and  C_18
REMARK    9  A    between atoms: C_19  and  O_20
REMARK   10  A    between atoms: O_20  and  C_21
REMARK                            x       y       z     vdW  Elec       q    Type
REMARK                         _______ _______ _______ _____ _____    ______ ____
ROOT
ATOM      1  C   UNL     1       0.661  12.255  20.077  0.00  0.00    +0.000 C 
ATOM      2  C   UNL     1      -0.326  12.932  19.480  0.00  0.00    +0.000 C 
ATOM      3  C   UNL     1       0.231  14.246  19.126  0.00  0.00    +0.000 C 
ATOM      4  O   UNL     1      -0.358  15.144  18.555  0.00  0.00    +0.000 OA
ATOM      5  O   UNL     1       1.535  14.299  19.523  0.00  0.00    +0.000 OA
ATOM      6  C   UNL     1       1.899  13.052  20.121  0.00  0.00    +0.000 C 
ENDROOT
BRANCH   1  12
ATOM      7  C   UNL     1       1.039   9.779  19.797  0.00  0.00    +0.000 A 
ATOM      8  C   UNL     1       1.072   8.504  20.375  0.00  0.00    +0.000 A 
ATOM      9  C   UNL     1       0.620   8.305  21.680  0.00  0.00    +0.000 A 
ATOM     10  C   UNL     1       0.139   9.378  22.422  0.00  0.00    +0.000 A 
ATOM     11  C   UNL     1       0.141  10.659  21.873  0.00  0.00    +0.000 A 
ATOM     12  C   UNL     1       0.602  10.875  20.566  0.00  0.00    +0.000 A 
BRANCH   7  14
ATOM     13  C   UNL     1       2.021   8.901  17.836  0.00  0.00    +0.000 C 
ATOM     14  O   UNL     1       1.460  10.028  18.512  0.00  0.00    +0.000 OA
ENDBRANCH   7  14
ENDBRANCH   1  12
BRANCH   2  15
ATOM     15  C   UNL     1      -1.654  12.447  19.146  0.00  0.00    +0.000 A 
ATOM     16  C   UNL     1      -1.909  11.865  17.909  0.00  0.00    +0.000 A 
ATOM     17  C   UNL     1      -3.211  11.479  17.568  0.00  0.00    +0.000 A 
ATOM     18  C   UNL     1      -4.280  11.717  18.464  0.00  0.00    +0.000 A 
ATOM     19  C   UNL     1      -4.021  12.320  19.713  0.00  0.00    +0.000 A 
ATOM     20  C   UNL     1      -2.702  12.650  20.048  0.00  0.00    +0.000 A 
BRANCH  17  21
ATOM     21  O   UNL     1      -3.520  10.896  16.357  0.00  0.00    +0.000 OA
ATOM     22  C   UNL     1      -2.593   9.927  15.879  0.00  0.00    +0.000 C 
ENDBRANCH  17  21
BRANCH  18  23
ATOM     23  O   UNL     1      -5.528  11.389  17.980  0.00  0.00    +0.000 OA
ATOM     24  C   UNL     1      -6.279  12.424  17.358  0.00  0.00    +0.000 C 
ENDBRANCH  18  23
BRANCH  19  25
ATOM     25  O   UNL     1      -5.079  12.604  20.538  0.00  0.00    +0.000 OA
ATOM     26  C   UNL     1      -5.486  13.961  20.665  0.00  0.00    +0.000 C 
ENDBRANCH  19  25
ENDBRANCH   2  15
TORSDOF 6
ENDMDL
MODEL 6
REMARK VINA RESULT:      -6.5      6.292      9.824
REMARK  Name = 
REMARK  10 active torsions:
REMARK  status: ('A' for Active; 'I' for Inactive)
REMARK    1  A    between atoms: C_1  and  O_2
REMARK    2  A    between atoms: O_2  and  C_3
REMARK    3  A    between atoms: C_8  and  C_9
REMARK    4  A    between atoms: C_10  and  C_11
REMARK    5  A    between atoms: C_13  and  O_14
REMARK    6  A    between atoms: O_14  and  C_15
REMARK    7  A    between atoms: C_16  and  O_17
REMARK    8  A    between atoms: O_17  and  C_18
REMARK    9  A    between atoms: C_19  and  O_20
REMARK   10  A    between atoms: O_20  and  C_21
REMARK                            x       y       z     vdW  Elec       q    Type
REMARK                         _______ _______ _______ _____ _____    ______ ____
ROOT
ATOM      1  C   UNL     1      -1.049  13.040  21.328  0.00  0.00    +0.000 C 
ATOM      2  C   UNL     1      -2.216  13.635  21.057  0.00  0.00    +0.000 C 
ATOM      3  C   UNL     1      -1.915  15.059  20.851  0.00  0.00    +0.000 C 
ATOM      4  O   UNL     1      -2.718  15.929  20.571  0.00  0.00    +0.000 OA
ATOM      5  O   UNL     1      -0.574  15.258  21.004  0.00  0.00    +0.000 OA
ATOM      6  C   UNL     1       0.061  14.008  21.288  0.00  0.00    +0.000 C 
ENDROOT
BRANCH   1  12
ATOM      7  C   UNL     1      -0.508  10.714  20.523  0.00  0.00    +0.000 A 
ATOM      8  C   UNL     1      -0.189   9.387  20.835  0.00  0.00    +0.000 A 
ATOM      9  C   UNL     1      -0.247   8.935  22.154  0.00  0.00    +0.000 A 
ATOM     10  C   UNL     1      -0.617   9.806  23.173  0.00  0.00    +0.000 A 
ATOM     11  C   UNL     1      -0.896  11.140  22.880  0.00  0.00    +0.000 A 
ATOM     12  C   UNL     1      -0.831  11.610  21.560  0.00  0.00    +0.000 A 
BRANCH   7  14
ATOM     13  C   UNL     1      -1.248  10.463  18.294  0.00  0.00    +0.000 C 
ATOM     14  O   UNL     1      -0.478  11.207  19.239  0.00  0.00    +0.000 OA
ENDBRANCH   7  14
ENDBRANCH   1  12
BRANCH   2  15
ATOM     15  C   UNL     1      -3.512  13.001  20.890  0.00  0.00    +0.000 A 
ATOM     16  C   UNL     1      -3.944  12.582  19.635  0.00  0.00    +0.000 A 
ATOM     17  C   UNL     1      -5.229  12.051  19.474  0.00  0.00    +0.000 A 
ATOM     18  C   UNL     1      -6.110  11.976  20.579  0.00  0.00    +0.000 A 
ATOM     19  C   UNL     1      -5.675  12.415  21.848  0.00  0.00    +0.000 A 
ATOM     20  C   UNL     1      -4.368  12.895  21.989  0.00  0.00    +0.000 A 
BRANCH  17  21
ATOM     21  O   UNL     1      -5.707  11.617  18.256  0.00  0.00    +0.000 OA
ATOM     22  C   UNL     1      -4.794  11.696  17.166  0.00  0.00    +0.000 C 
ENDBRANCH  17  21
BRANCH  18  23
ATOM     23  O   UNL     1      -7.380  11.532  20.281  0.00  0.00    +0.000 OA
ATOM     24  C   UNL     1      -7.693  10.184  20.608  0.00  0.00    +0.000 C 
ENDBRANCH  18  23
BRANCH  19  25
ATOM     25  O   UNL     1      -6.566  12.398  22.890  0.00  0.00    +0.000 OA
ATOM     26  C   UNL     1      -6.626  13.537  23.741  0.00  0.00    +0.000 C 
ENDBRANCH  19  25
ENDBRANCH   2  15
TORSDOF 6
ENDMDL
MODEL 7
REMARK VINA RESULT:      -6.5      4.435      8.153
REMARK  Name = 
REMARK  10 active torsions:
REMARK  status: ('A' for Active; 'I' for Inactive)
REMARK    1  A    between atoms: C_1  and  O_2
REMARK    2  A    between atoms: O_2  and  C_3
REMARK    3  A    between atoms: C_8  and  C_9
REMARK    4  A    between atoms: C_10  and  C_11
REMARK    5  A    between atoms: C_13  and  O_14
REMARK    6  A    between atoms: O_14  and  C_15
REMARK    7  A    between atoms: C_16  and  O_17
REMARK    8  A    between atoms: O_17  and  C_18
REMARK    9  A    between atoms: C_19  and  O_20
REMARK   10  A    between atoms: O_20  and  C_21
REMARK                            x       y       z     vdW  Elec       q    Type
REMARK                         _______ _______ _______ _____ _____    ______ ____
ROOT
ATOM      1  C   UNL     1       0.522  12.368  20.426  0.00  0.00    +0.000 C 
ATOM      2  C   UNL     1      -0.353  13.070  19.697  0.00  0.00    +0.000 C 
ATOM      3  C   UNL     1       0.363  14.267  19.233  0.00  0.00    +0.000 C 
ATOM      4  O   UNL     1      -0.094  15.149  18.530  0.00  0.00    +0.000 OA
ATOM      5  O   UNL     1       1.643  14.231  19.703  0.00  0.00    +0.000 OA
ATOM      6  C   UNL     1       1.837  13.031  20.457  0.00  0.00    +0.000 C 
ENDROOT
BRANCH   1  12
ATOM      7  C   UNL     1       0.647   9.851  20.452  0.00  0.00    +0.000 A 
ATOM      8  C   UNL     1       0.509   8.657  21.170  0.00  0.00    +0.000 A 
ATOM      9  C   UNL     1      -0.038   8.660  22.454  0.00  0.00    +0.000 A 
ATOM     10  C   UNL     1      -0.444   9.857  23.035  0.00  0.00    +0.000 A 
ATOM     11  C   UNL     1      -0.272  11.057  22.348  0.00  0.00    +0.000 A 
ATOM     12  C   UNL     1       0.286  11.069  21.061  0.00  0.00    +0.000 A 
BRANCH   7  14
ATOM     13  C   UNL     1       1.783   8.692  18.736  0.00  0.00    +0.000 C 
ATOM     14  O   UNL     1       1.168   9.902  19.180  0.00  0.00    +0.000 OA
ENDBRANCH   7  14
ENDBRANCH   1  12
BRANCH   2  15
ATOM     15  C   UNL     1      -1.708  12.690  19.337  0.00  0.00    +0.000 A 
ATOM     16  C   UNL     1      -2.760  12.871  20.230  0.00  0.00    +0.000 A 
ATOM     17  C   UNL     1      -4.045  12.423  19.904  0.00  0.00    +0.000 A 
ATOM     18  C   UNL     1      -4.273  11.747  18.682  0.00  0.00    +0.000 A 
ATOM     19  C   UNL     1      -3.202  11.553  17.784  0.00  0.00    +0.000 A 
ATOM     20  C   UNL     1      -1.938  12.055  18.114  0.00  0.00    +0.000 A 
BRANCH  17  21
ATOM     21  O   UNL     1      -5.123  12.579  20.749  0.00  0.00    +0.000 OA
ATOM     22  C   UNL     1      -4.851  13.217  21.994  0.00  0.00    +0.000 C 
ENDBRANCH  17  21
BRANCH  18  23
ATOM     23  O   UNL     1      -5.552  11.264  18.515  0.00  0.00    +0.000 OA
ATOM     24  C   UNL     1      -6.437  12.025  17.702  0.00  0.00    +0.000 C 
ENDBRANCH  18  23
BRANCH  19  25
ATOM     25  O   UNL     1      -3.429  10.836  16.637  0.00  0.00    +0.000 OA
ATOM     26  C   UNL     1      -2.472   9.853  16.259  0.00  0.00    +0.000 C 
ENDBRANCH  19  25
ENDBRANCH   2  15
TORSDOF 6
ENDMDL
MODEL 8
REMARK VINA RESULT:      -6.4      5.231      8.259
REMARK  Name = 
REMARK  10 active torsions:
REMARK  status: ('A' for Active; 'I' for Inactive)
REMARK    1  A    between atoms: C_1  and  O_2
REMARK    2  A    between atoms: O_2  and  C_3
REMARK    3  A    between atoms: C_8  and  C_9
REMARK    4  A    between atoms: C_10  and  C_11
REMARK    5  A    between atoms: C_13  and  O_14
REMARK    6  A    between atoms: O_14  and  C_15
REMARK    7  A    between atoms: C_16  and  O_17
REMARK    8  A    between atoms: O_17  and  C_18
REMARK    9  A    between atoms: C_19  and  O_20
REMARK   10  A    between atoms: O_20  and  C_21
REMARK                            x       y       z     vdW  Elec       q    Type
REMARK                         _______ _______ _______ _____ _____    ______ ____
ROOT
ATOM      1  C   UNL     1       0.933  12.525  19.664  0.00  0.00    +0.000 C 
ATOM      2  C   UNL     1      -0.134  13.197  19.219  0.00  0.00    +0.000 C 
ATOM      3  C   UNL     1       0.334  14.556  18.910  0.00  0.00    +0.000 C 
ATOM      4  O   UNL     1      -0.342  15.465  18.468  0.00  0.00    +0.000 OA
ATOM      5  O   UNL     1       1.669  14.639  19.180  0.00  0.00    +0.000 OA
ATOM      6  C   UNL     1       2.139  13.371  19.644  0.00  0.00    +0.000 C 
ENDROOT
BRANCH   1  12
ATOM      7  C   UNL     1       0.538  10.658  21.311  0.00  0.00    +0.000 A 
ATOM      8  C   UNL     1       0.489   9.282  21.566  0.00  0.00    +0.000 A 
ATOM      9  C   UNL     1       0.926   8.367  20.608  0.00  0.00    +0.000 A 
ATOM     10  C   UNL     1       1.407   8.817  19.383  0.00  0.00    +0.000 A 
ATOM     11  C   UNL     1       1.421  10.182  19.101  0.00  0.00    +0.000 A 
ATOM     12  C   UNL     1       0.976  11.112  20.052  0.00  0.00    +0.000 A 
BRANCH   7  14
ATOM     13  C   UNL     1      -1.099  11.307  22.886  0.00  0.00    +0.000 C 
ATOM     14  O   UNL     1       0.133  11.603  22.225  0.00  0.00    +0.000 OA
ENDBRANCH   7  14
ENDBRANCH   1  12
BRANCH   2  15
ATOM     15  C   UNL     1      -1.470  12.678  18.983  0.00  0.00    +0.000 A 
ATOM     16  C   UNL     1      -2.492  12.897  19.900  0.00  0.00    +0.000 A 
ATOM     17  C   UNL     1      -3.752  12.320  19.702  0.00  0.00    +0.000 A 
ATOM     18  C   UNL     1      -3.979  11.477  18.588  0.00  0.00    +0.000 A 
ATOM     19  C   UNL     1      -2.937  11.245  17.666  0.00  0.00    +0.000 A 
ATOM     20  C   UNL     1      -1.702  11.875  17.863  0.00  0.00    +0.000 A 
BRANCH  17  21
ATOM     21  O   UNL     1      -4.801  12.507  20.576  0.00  0.00    +0.000 OA
ATOM     22  C   UNL     1      -4.530  13.329  21.707  0.00  0.00    +0.000 C 
ENDBRANCH  17  21
BRANCH  18  23
ATOM     23  O   UNL     1      -5.223  10.886  18.551  0.00  0.00    +0.000 OA
ATOM     24  C   UNL     1      -6.237  11.544  17.803  0.00  0.00    +0.000 C 
ENDBRANCH  18  23
BRANCH  19  25
ATOM     25  O   UNL     1      -3.157  10.371  16.632  0.00  0.00    +0.000 OA
ATOM     26  C   UNL     1      -3.220  10.896  15.311  0.00  0.00    +0.000 C 
ENDBRANCH  19  25
ENDBRANCH   2  15
TORSDOF 6
ENDMDL
MODEL 9
REMARK VINA RESULT:      -6.4      1.022      1.048
REMARK  Name = 
REMARK  10 active torsions:
REMARK  status: ('A' for Active; 'I' for Inactive)
REMARK    1  A    between atoms: C_1  and  O_2
REMARK    2  A    between atoms: O_2  and  C_3
REMARK    3  A    between atoms: C_8  and  C_9
REMARK    4  A    between atoms: C_10  and  C_11
REMARK    5  A    between atoms: C_13  and  O_14
REMARK    6  A    between atoms: O_14  and  C_15
REMARK    7  A    between atoms: C_16  and  O_17
REMARK    8  A    between atoms: O_17  and  C_18
REMARK    9  A    between atoms: C_19  and  O_20
REMARK   10  A    between atoms: O_20  and  C_21
REMARK                            x       y       z     vdW  Elec       q    Type
REMARK                         _______ _______ _______ _____ _____    ______ ____
ROOT
ATOM      1  C   UNL     1       3.924   4.060  18.509  0.00  0.00    +0.000 C 
ATOM      2  C   UNL     1       2.732   4.553  18.861  0.00  0.00    +0.000 C 
ATOM      3  C   UNL     1       1.833   3.398  19.001  0.00  0.00    +0.000 C 
ATOM      4  O   UNL     1       0.660   3.437  19.324  0.00  0.00    +0.000 OA
ATOM      5  O   UNL     1       2.527   2.257  18.729  0.00  0.00    +0.000 OA
ATOM      6  C   UNL     1       3.886   2.589  18.428  0.00  0.00    +0.000 C 
ENDROOT
BRANCH   1  12
ATOM      7  C   UNL     1       5.571   5.262  17.027  0.00  0.00    +0.000 A 
ATOM      8  C   UNL     1       6.692   6.093  16.918  0.00  0.00    +0.000 A 
ATOM      9  C   UNL     1       7.433   6.437  18.049  0.00  0.00    +0.000 A 
ATOM     10  C   UNL     1       7.056   5.960  19.300  0.00  0.00    +0.000 A 
ATOM     11  C   UNL     1       5.918   5.167  19.427  0.00  0.00    +0.000 A 
ATOM     12  C   UNL     1       5.158   4.822  18.300  0.00  0.00    +0.000 A 
BRANCH   7  14
ATOM     13  C   UNL     1       5.541   4.752  14.721  0.00  0.00    +0.000 C 
ATOM     14  O   UNL     1       4.814   4.883  15.943  0.00  0.00    +0.000 OA
ENDBRANCH   7  14
ENDBRANCH   1  12
BRANCH   2  15
ATOM     15  C   UNL     1       2.400   5.936  19.155  0.00  0.00    +0.000 A 
ATOM     16  C   UNL     1       1.866   6.295  20.389  0.00  0.00    +0.000 A 
ATOM     17  C   UNL     1       1.473   7.616  20.629  0.00  0.00    +0.000 A 
ATOM     18  C   UNL     1       1.577   8.586  19.603  0.00  0.00    +0.000 A 
ATOM     19  C   UNL     1       2.106   8.217  18.348  0.00  0.00    +0.000 A 
ATOM     20  C   UNL     1       2.538   6.900  18.153  0.00  0.00    +0.000 A 
BRANCH  17  21
ATOM     21  O   UNL     1       0.941   8.027  21.832  0.00  0.00    +0.000 OA
ATOM     22  C   UNL     1       1.660   9.050  22.514  0.00  0.00    +0.000 C 
ENDBRANCH  17  21
BRANCH  18  23
ATOM     23  O   UNL     1       1.066   9.825  19.920  0.00  0.00    +0.000 OA
ATOM     24  C   UNL     1      -0.274  10.098  19.531  0.00  0.00    +0.000 C 
ENDBRANCH  18  23
BRANCH  19  25
ATOM     25  O   UNL     1       2.136   9.153  17.346  0.00  0.00    +0.000 OA
ATOM     26  C   UNL     1       2.690  10.432  17.638  0.00  0.00    +0.000 C 
ENDBRANCH  19  25
ENDBRANCH   2  15
TORSDOF 6
ENDMDL
