MODEL 1
REMARK VINA RESULT:      -6.6      0.000      0.000
REMARK  Name = 
REMARK  6 active torsions:
REMARK  status: ('A' for Active; 'I' for Inactive)
REMARK    1  A    between atoms: C_1  and  C_2
REMARK    2  A    between atoms: C_2  and  S_3
REMARK    3  A    between atoms: S_3  and  N_6
REMARK    4  A    between atoms: N_6  and  C_7
REMARK    5  A    between atoms: C_7  and  C_8
REMARK    6  A    between atoms: C_7  and  C_9
REMARK                            x       y       z     vdW  Elec       q    Type
REMARK                         _______ _______ _______ _____ _____    ______ ____
ROOT
ATOM      1  C   UNL     1       4.499   4.306  18.093  0.00  0.00    +0.000 C 
ATOM      2  C   UNL     1       3.814   3.639  16.901  0.00  0.00    +0.000 C 
ENDROOT
BRANCH   1   3
ATOM      3  C   UNL     1       3.619   4.128  19.332  0.00  0.00    +0.000 A 
ATOM      4  C   UNL     1       3.635   2.910  20.042  0.00  0.00    +0.000 A 
ATOM      5  C   UNL     1       2.797   2.698  21.140  0.00  0.00    +0.000 A 
ATOM      6  C   UNL     1       1.909   3.690  21.544  0.00  0.00    +0.000 A 
ATOM      7  C   UNL     1       1.866   4.898  20.853  0.00  0.00    +0.000 A 
ATOM      8  C   UNL     1       2.713   5.121  19.759  0.00  0.00    +0.000 A 
ATOM      9 BR   UNL     1       2.549   6.809  18.896  0.00  0.00    +0.000 Br
ENDBRANCH   1   3
BRANCH   1  10
ATOM     10  N   UNL     1       5.889   3.766  18.312  0.00  0.00    +0.000 NA
ATOM     11  H   UNL     1       5.856   3.153  19.131  0.00  0.00    +0.000 HD
BRANCH  10  12
ATOM     12  S   UNL     1       7.091   4.935  18.571  0.00  0.00    +0.000 S 
ATOM     13  O   UNL     1       8.293   4.410  17.963  0.00  0.00    +0.000 OA
ATOM     14  O   UNL     1       7.050   5.343  19.957  0.00  0.00    +0.000 OA
BRANCH  12  16
ATOM     15  C   UNL     1       7.531   7.400  17.503  0.00  0.00    +0.000 C 
ATOM     16  C   UNL     1       6.493   6.295  17.580  0.00  0.00    +0.000 C 
ENDBRANCH  12  16
ENDBRANCH  10  12
ENDBRANCH   1  10
TORSDOF 4
ENDMDL
MODEL 2
REMARK VINA RESULT:      -6.1      1.744      1.914
REMARK  Name = 
REMARK  6 active torsions:
REMARK  status: ('A' for Active; 'I' for Inactive)
REMARK    1  A    between atoms: C_1  and  C_2
REMARK    2  A    between atoms: C_2  and  S_3
REMARK    3  A    between atoms: S_3  and  N_6
REMARK    4  A    between atoms: N_6  and  C_7
REMARK    5  A    between atoms: C_7  and  C_8
REMARK    6  A    between atoms: C_7  and  C_9
REMARK                            x       y       z     vdW  Elec       q    Type
REMARK                         _______ _______ _______ _____ _____    ______ ____
ROOT
ATOM      1  C   UNL     1       4.808   4.521  16.995  0.00  0.00    +0.000 C 
ATOM      2  C   UNL     1       4.622   4.436  15.480  0.00  0.00    +0.000 C 
ENDROOT
BRANCH   1   3
ATOM      3  C   UNL     1       3.559   3.959  17.678  0.00  0.00    +0.000 A 
ATOM      4  C   UNL     1       3.322   2.569  17.687  0.00  0.00    +0.000 A 
ATOM      5  C   UNL     1       2.160   2.034  18.250  0.00  0.00    +0.000 A 
ATOM      6  C   UNL     1       1.199   2.876  18.800  0.00  0.00    +0.000 A 
ATOM      7  C   UNL     1       1.403   4.252  18.794  0.00  0.00    +0.000 A 
ATOM      8  C   UNL     1       2.573   4.794  18.243  0.00  0.00    +0.000 A 
ATOM      9 BR   UNL     1       2.728   6.689  18.289  0.00  0.00    +0.000 Br
ENDBRANCH   1   3
BRANCH   1  10
ATOM     10  N   UNL     1       6.059   3.809  17.443  0.00  0.00    +0.000 NA
ATOM     11  H   UNL     1       5.931   3.550  18.425  0.00  0.00    +0.000 HD
BRANCH  10  12
ATOM     12  S   UNL     1       7.492   4.708  17.312  0.00  0.00    +0.000 S 
ATOM     13  O   UNL     1       7.618   5.054  15.913  0.00  0.00    +0.000 OA
ATOM     14  O   UNL     1       8.542   4.015  18.026  0.00  0.00    +0.000 OA
BRANCH  12  16
ATOM     15  C   UNL     1       7.477   7.426  17.459  0.00  0.00    +0.000 C 
ATOM     16  C   UNL     1       7.082   6.181  18.234  0.00  0.00    +0.000 C 
ENDBRANCH  12  16
ENDBRANCH  10  12
ENDBRANCH   1  10
TORSDOF 4
ENDMDL
MODEL 3
REMARK VINA RESULT:      -6.1      1.576      1.968
REMARK  Name = 
REMARK  6 active torsions:
REMARK  status: ('A' for Active; 'I' for Inactive)
REMARK    1  A    between atoms: C_1  and  C_2
REMARK    2  A    between atoms: C_2  and  S_3
REMARK    3  A    between atoms: S_3  and  N_6
REMARK    4  A    between atoms: N_6  and  C_7
REMARK    5  A    between atoms: C_7  and  C_8
REMARK    6  A    between atoms: C_7  and  C_9
REMARK                            x       y       z     vdW  Elec       q    Type
REMARK                         _______ _______ _______ _____ _____    ______ ____
ROOT
ATOM      1  C   UNL     1       4.715   4.837  17.961  0.00  0.00    +0.000 C 
ATOM      2  C   UNL     1       4.347   4.310  16.574  0.00  0.00    +0.000 C 
ENDROOT
BRANCH   1   3
ATOM      3  C   UNL     1       3.514   4.659  18.892  0.00  0.00    +0.000 A 
ATOM      4  C   UNL     1       2.960   5.775  19.553  0.00  0.00    +0.000 A 
ATOM      5  C   UNL     1       1.902   5.634  20.455  0.00  0.00    +0.000 A 
ATOM      6  C   UNL     1       1.386   4.373  20.734  0.00  0.00    +0.000 A 
ATOM      7  C   UNL     1       1.921   3.253  20.103  0.00  0.00    +0.000 A 
ATOM      8  C   UNL     1       2.973   3.391  19.188  0.00  0.00    +0.000 A 
ATOM      9 BR   UNL     1       3.622   1.784  18.401  0.00  0.00    +0.000 Br
ENDBRANCH   1   3
BRANCH   1  10
ATOM     10  N   UNL     1       5.949   4.161  18.504  0.00  0.00    +0.000 NA
ATOM     11  H   UNL     1       5.840   4.092  19.519  0.00  0.00    +0.000 HD
BRANCH  10  12
ATOM     12  S   UNL     1       7.414   4.953  18.178  0.00  0.00    +0.000 S 
ATOM     13  O   UNL     1       8.066   4.174  17.149  0.00  0.00    +0.000 OA
ATOM     14  O   UNL     1       8.064   5.261  19.432  0.00  0.00    +0.000 OA
BRANCH  12  16
ATOM     15  C   UNL     1       7.755   7.636  17.861  0.00  0.00    +0.000 C 
ATOM     16  C   UNL     1       6.845   6.488  17.463  0.00  0.00    +0.000 C 
ENDBRANCH  12  16
ENDBRANCH  10  12
ENDBRANCH   1  10
TORSDOF 4
ENDMDL
MODEL 4
REMARK VINA RESULT:      -6.1      1.227      1.466
REMARK  Name = 
REMARK  6 active torsions:
REMARK  status: ('A' for Active; 'I' for Inactive)
REMARK    1  A    between atoms: C_1  and  C_2
REMARK    2  A    between atoms: C_2  and  S_3
REMARK    3  A    between atoms: S_3  and  N_6
REMARK    4  A    between atoms: N_6  and  C_7
REMARK    5  A    between atoms: C_7  and  C_8
REMARK    6  A    between atoms: C_7  and  C_9
REMARK                            x       y       z     vdW  Elec       q    Type
REMARK                         _______ _______ _______ _____ _____    ______ ____
ROOT
ATOM      1  C   UNL     1       4.523   4.714  17.869  0.00  0.00    +0.000 C 
ATOM      2  C   UNL     1       4.469   3.516  16.921  0.00  0.00    +0.000 C 
ENDROOT
BRANCH   1   3
ATOM      3  C   UNL     1       3.541   4.479  19.018  0.00  0.00    +0.000 A 
ATOM      4  C   UNL     1       3.476   3.218  19.647  0.00  0.00    +0.000 A 
ATOM      5  C   UNL     1       2.547   2.958  20.658  0.00  0.00    +0.000 A 
ATOM      6  C   UNL     1       1.647   3.944  21.052  0.00  0.00    +0.000 A 
ATOM      7  C   UNL     1       1.683   5.193  20.440  0.00  0.00    +0.000 A 
ATOM      8  C   UNL     1       2.622   5.464  19.435  0.00  0.00    +0.000 A 
ATOM      9 BR   UNL     1       2.561   7.207  18.672  0.00  0.00    +0.000 Br
ENDBRANCH   1   3
BRANCH   1  10
ATOM     10  N   UNL     1       5.922   4.965  18.370  0.00  0.00    +0.000 NA
ATOM     11  H   UNL     1       5.853   5.597  19.172  0.00  0.00    +0.000 HD
BRANCH  10  12
ATOM     12  S   UNL     1       6.986   5.653  17.242  0.00  0.00    +0.000 S 
ATOM     13  O   UNL     1       6.158   6.392  16.315  0.00  0.00    +0.000 OA
ATOM     14  O   UNL     1       7.912   4.636  16.796  0.00  0.00    +0.000 OA
BRANCH  12  16
ATOM     15  C   UNL     1       7.847   8.203  17.648  0.00  0.00    +0.000 C 
ATOM     16  C   UNL     1       7.890   6.812  18.255  0.00  0.00    +0.000 C 
ENDBRANCH  12  16
ENDBRANCH  10  12
ENDBRANCH   1  10
TORSDOF 4
ENDMDL
MODEL 5
REMARK VINA RESULT:      -6.0      3.500      5.519
REMARK  Name = 
REMARK  6 active torsions:
REMARK  status: ('A' for Active; 'I' for Inactive)
REMARK    1  A    between atoms: C_1  and  C_2
REMARK    2  A    between atoms: C_2  and  S_3
REMARK    3  A    between atoms: S_3  and  N_6
REMARK    4  A    between atoms: N_6  and  C_7
REMARK    5  A    between atoms: C_7  and  C_8
REMARK    6  A    between atoms: C_7  and  C_9
REMARK                            x       y       z     vdW  Elec       q    Type
REMARK                         _______ _______ _______ _____ _____    ______ ____
ROOT
ATOM      1  C   UNL     1       3.838   3.851  18.568  0.00  0.00    +0.000 C 
ATOM      2  C   UNL     1       4.924   3.321  19.504  0.00  0.00    +0.000 C 
ENDROOT
BRANCH   1   3
ATOM      3  C   UNL     1       4.501   4.401  17.303  0.00  0.00    +0.000 A 
ATOM      4  C   UNL     1       5.282   3.556  16.488  0.00  0.00    +0.000 A 
ATOM      5  C   UNL     1       5.948   4.045  15.361  0.00  0.00    +0.000 A 
ATOM      6  C   UNL     1       5.866   5.395  15.033  0.00  0.00    +0.000 A 
ATOM      7  C   UNL     1       5.111   6.253  15.826  0.00  0.00    +0.000 A 
ATOM      8  C   UNL     1       4.430   5.765  16.950  0.00  0.00    +0.000 A 
ATOM      9 BR   UNL     1       3.441   7.041  17.956  0.00  0.00    +0.000 Br
ENDBRANCH   1   3
BRANCH   1  10
ATOM     10  N   UNL     1       2.814   2.793  18.247  0.00  0.00    +0.000 NA
ATOM     11  H   UNL     1       2.985   2.479  17.288  0.00  0.00    +0.000 HD
BRANCH  10  12
ATOM     12  S   UNL     1       1.196   3.289  18.363  0.00  0.00    +0.000 S 
ATOM     13  O   UNL     1       0.412   2.075  18.437  0.00  0.00    +0.000 OA
ATOM     14  O   UNL     1       0.947   4.300  17.360  0.00  0.00    +0.000 OA
BRANCH  12  16
ATOM     15  C   UNL     1       1.266   3.055  21.075  0.00  0.00    +0.000 C 
ATOM     16  C   UNL     1       1.174   4.084  19.962  0.00  0.00    +0.000 C 
ENDBRANCH  12  16
ENDBRANCH  10  12
ENDBRANCH   1  10
TORSDOF 4
ENDMDL
MODEL 6
REMARK VINA RESULT:      -6.0      2.235      2.716
REMARK  Name = 
REMARK  6 active torsions:
REMARK  status: ('A' for Active; 'I' for Inactive)
REMARK    1  A    between atoms: C_1  and  C_2
REMARK    2  A    between atoms: C_2  and  S_3
REMARK    3  A    between atoms: S_3  and  N_6
REMARK    4  A    between atoms: N_6  and  C_7
REMARK    5  A    between atoms: C_7  and  C_8
REMARK    6  A    between atoms: C_7  and  C_9
REMARK                            x       y       z     vdW  Elec       q    Type
REMARK                         _______ _______ _______ _____ _____    ______ ____
ROOT
ATOM      1  C   UNL     1       5.398   4.372  18.039  0.00  0.00    +0.000 C 
ATOM      2  C   UNL     1       5.760   5.245  19.240  0.00  0.00    +0.000 C 
ENDROOT
BRANCH   1   3
ATOM      3  C   UNL     1       3.960   3.877  18.202  0.00  0.00    +0.000 A 
ATOM      4  C   UNL     1       3.688   2.493  18.241  0.00  0.00    +0.000 A 
ATOM      5  C   UNL     1       2.379   2.013  18.328  0.00  0.00    +0.000 A 
ATOM      6  C   UNL     1       1.309   2.901  18.359  0.00  0.00    +0.000 A 
ATOM      7  C   UNL     1       1.549   4.271  18.312  0.00  0.00    +0.000 A 
ATOM      8  C   UNL     1       2.861   4.759  18.238  0.00  0.00    +0.000 A 
ATOM      9 BR   UNL     1       3.054   6.651  18.170  0.00  0.00    +0.000 Br
ENDBRANCH   1   3
BRANCH   1  10
ATOM     10  N   UNL     1       5.592   5.108  16.737  0.00  0.00    +0.000 NA
ATOM     11  H   UNL     1       5.084   4.593  16.013  0.00  0.00    +0.000 HD
BRANCH  10  12
ATOM     12  S   UNL     1       7.203   5.283  16.234  0.00  0.00    +0.000 S 
ATOM     13  O   UNL     1       7.935   4.209  16.869  0.00  0.00    +0.000 OA
ATOM     14  O   UNL     1       7.590   6.667  16.387  0.00  0.00    +0.000 OA
BRANCH  12  16
ATOM     15  C   UNL     1       5.984   3.918  14.219  0.00  0.00    +0.000 C 
ATOM     16  C   UNL     1       7.077   4.937  14.487  0.00  0.00    +0.000 C 
ENDBRANCH  12  16
ENDBRANCH  10  12
ENDBRANCH   1  10
TORSDOF 4
ENDMDL
MODEL 7
REMARK VINA RESULT:      -5.9      3.171      5.207
REMARK  Name = 
REMARK  6 active torsions:
REMARK  status: ('A' for Active; 'I' for Inactive)
REMARK    1  A    between atoms: C_1  and  C_2
REMARK    2  A    between atoms: C_2  and  S_3
REMARK    3  A    between atoms: S_3  and  N_6
REMARK    4  A    between atoms: N_6  and  C_7
REMARK    5  A    between atoms: C_7  and  C_8
REMARK    6  A    between atoms: C_7  and  C_9
REMARK                            x       y       z     vdW  Elec       q    Type
REMARK                         _______ _______ _______ _____ _____    ______ ____
ROOT
ATOM      1  C   UNL     1       3.757   5.069  17.965  0.00  0.00    +0.000 C 
ATOM      2  C   UNL     1       2.878   6.292  18.222  0.00  0.00    +0.000 C 
ENDROOT
BRANCH   1   3
ATOM      3  C   UNL     1       5.225   5.472  18.124  0.00  0.00    +0.000 A 
ATOM      4  C   UNL     1       5.897   5.234  19.341  0.00  0.00    +0.000 A 
ATOM      5  C   UNL     1       7.218   5.647  19.534  0.00  0.00    +0.000 A 
ATOM      6  C   UNL     1       7.893   6.324  18.524  0.00  0.00    +0.000 A 
ATOM      7  C   UNL     1       7.249   6.581  17.317  0.00  0.00    +0.000 A 
ATOM      8  C   UNL     1       5.929   6.158  17.113  0.00  0.00    +0.000 A 
ATOM      9 BR   UNL     1       5.160   6.578  15.424  0.00  0.00    +0.000 Br
ENDBRANCH   1   3
BRANCH   1  10
ATOM     10  N   UNL     1       3.392   3.920  18.871  0.00  0.00    +0.000 NA
ATOM     11  H   UNL     1       4.261   3.546  19.261  0.00  0.00    +0.000 HD
BRANCH  10  12
ATOM     12  S   UNL     1       2.552   2.647  18.127  0.00  0.00    +0.000 S 
ATOM     13  O   UNL     1       3.308   1.449  18.419  0.00  0.00    +0.000 OA
ATOM     14  O   UNL     1       2.225   3.035  16.773  0.00  0.00    +0.000 OA
BRANCH  12  16
ATOM     15  C   UNL     1       1.159   3.470  20.317  0.00  0.00    +0.000 C 
ATOM     16  C   UNL     1       1.036   2.613  19.070  0.00  0.00    +0.000 C 
ENDBRANCH  12  16
ENDBRANCH  10  12
ENDBRANCH   1  10
TORSDOF 4
ENDMDL
MODEL 8
REMARK VINA RESULT:      -5.9      1.179      1.424
REMARK  Name = 
REMARK  6 active torsions:
REMARK  status: ('A' for Active; 'I' for Inactive)
REMARK    1  A    between atoms: C_1  and  C_2
REMARK    2  A    between atoms: C_2  and  S_3
REMARK    3  A    between atoms: S_3  and  N_6
REMARK    4  A    between atoms: N_6  and  C_7
REMARK    5  A    between atoms: C_7  and  C_8
REMARK    6  A    between atoms: C_7  and  C_9
REMARK                            x       y       z     vdW  Elec       q    Type
REMARK                         _______ _______ _______ _____ _____    ______ ____
ROOT
ATOM      1  C   UNL     1       4.737   4.427  18.004  0.00  0.00    +0.000 C 
ATOM      2  C   UNL     1       4.231   3.219  17.217  0.00  0.00    +0.000 C 
ENDROOT
BRANCH   1   3
ATOM      3  C   UNL     1       3.681   4.820  19.040  0.00  0.00    +0.000 A 
ATOM      4  C   UNL     1       3.256   3.885  20.007  0.00  0.00    +0.000 A 
ATOM      5  C   UNL     1       2.250   4.197  20.926  0.00  0.00    +0.000 A 
ATOM      6  C   UNL     1       1.632   5.442  20.889  0.00  0.00    +0.000 A 
ATOM      7  C   UNL     1       2.025   6.380  19.938  0.00  0.00    +0.000 A 
ATOM      8  C   UNL     1       3.043   6.077  19.023  0.00  0.00    +0.000 A 
ATOM      9 BR   UNL     1       3.481   7.440  17.769  0.00  0.00    +0.000 Br
ENDBRANCH   1   3
BRANCH   1  10
ATOM     10  N   UNL     1       6.074   4.154  18.644  0.00  0.00    +0.000 NA
ATOM     11  H   UNL     1       5.989   4.372  19.641  0.00  0.00    +0.000 HD
BRANCH  10  12
ATOM     12  S   UNL     1       7.376   5.043  18.015  0.00  0.00    +0.000 S 
ATOM     13  O   UNL     1       8.385   4.070  17.659  0.00  0.00    +0.000 OA
ATOM     14  O   UNL     1       7.657   6.147  18.905  0.00  0.00    +0.000 OA
BRANCH  12  16
ATOM     15  C   UNL     1       7.299   5.072  15.294  0.00  0.00    +0.000 C 
ATOM     16  C   UNL     1       6.668   5.711  16.518  0.00  0.00    +0.000 C 
ENDBRANCH  12  16
ENDBRANCH  10  12
ENDBRANCH   1  10
TORSDOF 4
ENDMDL
MODEL 9
REMARK VINA RESULT:      -5.8      1.267      1.530
REMARK  Name = 
REMARK  6 active torsions:
REMARK  status: ('A' for Active; 'I' for Inactive)
REMARK    1  A    between atoms: C_1  and  C_2
REMARK    2  A    between atoms: C_2  and  S_3
REMARK    3  A    between atoms: S_3  and  N_6
REMARK    4  A    between atoms: N_6  and  C_7
REMARK    5  A    between atoms: C_7  and  C_8
REMARK    6  A    between atoms: C_7  and  C_9
REMARK                            x       y       z     vdW  Elec       q    Type
REMARK                         _______ _______ _______ _____ _____    ______ ____
ROOT
ATOM      1  C   UNL     1       3.920   4.195  17.759  0.00  0.00    +0.000 C 
ATOM      2  C   UNL     1       3.011   3.479  16.761  0.00  0.00    +0.000 C 
ENDROOT
BRANCH   1   3
ATOM      3  C   UNL     1       3.352   4.011  19.167  0.00  0.00    +0.000 A 
ATOM      4  C   UNL     1       3.407   2.748  19.793  0.00  0.00    +0.000 A 
ATOM      5  C   UNL     1       2.842   2.536  21.053  0.00  0.00    +0.000 A 
ATOM      6  C   UNL     1       2.191   3.575  21.711  0.00  0.00    +0.000 A 
ATOM      7  C   UNL     1       2.113   4.829  21.111  0.00  0.00    +0.000 A 
ATOM      8  C   UNL     1       2.690   5.050  19.853  0.00  0.00    +0.000 A 
ATOM      9 BR   UNL     1       2.507   6.804  19.138  0.00  0.00    +0.000 Br
ENDBRANCH   1   3
BRANCH   1  10
ATOM     10  N   UNL     1       5.345   3.711  17.662  0.00  0.00    +0.000 NA
ATOM     11  H   UNL     1       5.530   3.132  18.486  0.00  0.00    +0.000 HD
BRANCH  10  12
ATOM     12  S   UNL     1       6.523   4.929  17.592  0.00  0.00    +0.000 S 
ATOM     13  O   UNL     1       7.686   4.396  18.269  0.00  0.00    +0.000 OA
ATOM     14  O   UNL     1       5.919   6.183  17.983  0.00  0.00    +0.000 OA
BRANCH  12  16
ATOM     15  C   UNL     1       6.258   3.810  15.124  0.00  0.00    +0.000 C 
ATOM     16  C   UNL     1       6.863   5.005  15.841  0.00  0.00    +0.000 C 
ENDBRANCH  12  16
ENDBRANCH  10  12
ENDBRANCH   1  10
TORSDOF 4
ENDMDL
