MODEL 1
REMARK VINA RESULT:      -7.6      0.000      0.000
REMARK  Name = 
REMARK  7 active torsions:
REMARK  status: ('A' for Active; 'I' for Inactive)
REMARK    1  A    between atoms: C_1  and  C_2
REMARK    2  A    between atoms: C_2  and  O_3
REMARK    3  A    between atoms: O_3  and  C_4
REMARK    4  A    between atoms: C_4  and  C_6
REMARK    5  A    between atoms: C_9  and  N_10
REMARK    6  A    between atoms: N_10  and  C_11
REMARK    7  A    between atoms: C_11  and  C_12
REMARK                            x       y       z     vdW  Elec       q    Type
REMARK                         _______ _______ _______ _____ _____    ______ ____
ROOT
ATOM      1  N   UNL     1       3.186   6.356  17.836  0.00  0.00    +0.000 N 
ATOM      2  H   UNL     1       4.184   6.531  17.935  0.00  0.00    +0.000 HD
ENDROOT
BRANCH   1   3
ATOM      3  C   UNL     1       2.803   5.018  17.809  0.00  0.00    +0.000 C 
ATOM      4  C   UNL     1       1.313   4.800  17.594  0.00  0.00    +0.000 C 
ATOM      5  C   UNL     1       3.619   3.977  18.129  0.00  0.00    +0.000 C 
ATOM      6  C   UNL     1       4.996   4.162  18.663  0.00  0.00    +0.000 C 
ATOM      7  O   UNL     1       5.818   4.985  18.283  0.00  0.00    +0.000 OA
ATOM      8  N   UNL     1       5.343   3.265  19.641  0.00  0.00    +0.000 N 
ATOM      9  C   UNL     1       4.716   2.084  19.892  0.00  0.00    +0.000 C 
ATOM     10  O   UNL     1       5.208   1.236  20.628  0.00  0.00    +0.000 OA
ATOM     11  N   UNL     1       3.557   1.848  19.217  0.00  0.00    +0.000 N 
ATOM     12  C   UNL     1       3.091   2.591  18.171  0.00  0.00    +0.000 C 
ATOM     13  O   UNL     1       2.322   2.124  17.339  0.00  0.00    +0.000 OA
ATOM     14  H   UNL     1       6.269   3.367  20.026  0.00  0.00    +0.000 HD
ATOM     15  H   UNL     1       3.191   0.909  19.299  0.00  0.00    +0.000 HD
ENDBRANCH   1   3
BRANCH   1  19
ATOM     16  C   UNL     1       1.142   9.554  19.697  0.00  0.00    +0.000 A 
ATOM     17  C   UNL     1       1.365   9.593  18.314  0.00  0.00    +0.000 A 
ATOM     18  C   UNL     1       2.011   8.529  17.674  0.00  0.00    +0.000 A 
ATOM     19  C   UNL     1       2.429   7.409  18.402  0.00  0.00    +0.000 A 
ATOM     20  C   UNL     1       2.142   7.352  19.774  0.00  0.00    +0.000 A 
ATOM     21  C   UNL     1       1.516   8.421  20.423  0.00  0.00    +0.000 A 
BRANCH  16  22
ATOM     22  C   UNL     1       0.452  10.662  20.405  0.00  0.00    +0.000 C 
ATOM     23  O   UNL     1       0.790  11.832  20.331  0.00  0.00    +0.000 OA
BRANCH  22  24
ATOM     24  O   UNL     1      -0.532  10.151  21.186  0.00  0.00    +0.000 OA
BRANCH  24  26
ATOM     25  C   UNL     1      -0.105   9.541  23.442  0.00  0.00    +0.000 C 
ATOM     26  C   UNL     1      -0.585  10.653  22.527  0.00  0.00    +0.000 C 
ENDBRANCH  24  26
ENDBRANCH  22  24
ENDBRANCH  16  22
ENDBRANCH   1  19
TORSDOF 5
ENDMDL
MODEL 2
REMARK VINA RESULT:      -7.6      2.431      3.728
REMARK  Name = 
REMARK  7 active torsions:
REMARK  status: ('A' for Active; 'I' for Inactive)
REMARK    1  A    between atoms: C_1  and  C_2
REMARK    2  A    between atoms: C_2  and  O_3
REMARK    3  A    between atoms: O_3  and  C_4
REMARK    4  A    between atoms: C_4  and  C_6
REMARK    5  A    between atoms: C_9  and  N_10
REMARK    6  A    between atoms: N_10  and  C_11
REMARK    7  A    between atoms: C_11  and  C_12
REMARK                            x       y       z     vdW  Elec       q    Type
REMARK                         _______ _______ _______ _____ _____    ______ ____
ROOT
ATOM      1  N   UNL     1       4.228   4.917  19.087  0.00  0.00    +0.000 N 
ATOM      2  H   UNL     1       3.680   4.065  18.995  0.00  0.00    +0.000 HD
ENDROOT
BRANCH   1   3
ATOM      3  C   UNL     1       5.543   4.846  18.634  0.00  0.00    +0.000 C 
ATOM      4  C   UNL     1       6.551   5.542  19.536  0.00  0.00    +0.000 C 
ATOM      5  C   UNL     1       5.912   4.375  17.413  0.00  0.00    +0.000 C 
ATOM      6  C   UNL     1       4.930   3.986  16.364  0.00  0.00    +0.000 C 
ATOM      7  O   UNL     1       3.887   3.370  16.538  0.00  0.00    +0.000 OA
ATOM      8  N   UNL     1       5.302   4.334  15.091  0.00  0.00    +0.000 N 
ATOM      9  C   UNL     1       6.563   4.657  14.694  0.00  0.00    +0.000 C 
ATOM     10  O   UNL     1       6.864   4.742  13.508  0.00  0.00    +0.000 OA
ATOM     11  N   UNL     1       7.499   4.795  15.673  0.00  0.00    +0.000 N 
ATOM     12  C   UNL     1       7.329   4.435  16.979  0.00  0.00    +0.000 C 
ATOM     13  O   UNL     1       8.281   4.167  17.703  0.00  0.00    +0.000 OA
ATOM     14  H   UNL     1       4.656   4.087  14.358  0.00  0.00    +0.000 HD
ATOM     15  H   UNL     1       8.454   4.881  15.351  0.00  0.00    +0.000 HD
ENDBRANCH   1   3
BRANCH   1  19
ATOM     16  C   UNL     1       1.882   8.434  19.082  0.00  0.00    +0.000 A 
ATOM     17  C   UNL     1       2.685   8.141  17.971  0.00  0.00    +0.000 A 
ATOM     18  C   UNL     1       3.443   6.966  17.940  0.00  0.00    +0.000 A 
ATOM     19  C   UNL     1       3.400   6.062  19.008  0.00  0.00    +0.000 A 
ATOM     20  C   UNL     1       2.544   6.334  20.085  0.00  0.00    +0.000 A 
ATOM     21  C   UNL     1       1.800   7.517  20.132  0.00  0.00    +0.000 A 
BRANCH  16  22
ATOM     22  C   UNL     1       1.059   9.668  19.144  0.00  0.00    +0.000 C 
ATOM     23  O   UNL     1       1.176  10.603  18.369  0.00  0.00    +0.000 OA
BRANCH  22  24
ATOM     24  O   UNL     1       0.241   9.608  20.224  0.00  0.00    +0.000 OA
BRANCH  24  26
ATOM     25  C   UNL     1      -0.167  10.073  22.518  0.00  0.00    +0.000 C 
ATOM     26  C   UNL     1       0.489  10.581  21.246  0.00  0.00    +0.000 C 
ENDBRANCH  24  26
ENDBRANCH  22  24
ENDBRANCH  16  22
ENDBRANCH   1  19
TORSDOF 5
ENDMDL
MODEL 3
REMARK VINA RESULT:      -7.6      2.602      4.124
REMARK  Name = 
REMARK  7 active torsions:
REMARK  status: ('A' for Active; 'I' for Inactive)
REMARK    1  A    between atoms: C_1  and  C_2
REMARK    2  A    between atoms: C_2  and  O_3
REMARK    3  A    between atoms: O_3  and  C_4
REMARK    4  A    between atoms: C_4  and  C_6
REMARK    5  A    between atoms: C_9  and  N_10
REMARK    6  A    between atoms: N_10  and  C_11
REMARK    7  A    between atoms: C_11  and  C_12
REMARK                            x       y       z     vdW  Elec       q    Type
REMARK                         _______ _______ _______ _____ _____    ______ ____
ROOT
ATOM      1  N   UNL     1       4.129   5.033  18.887  0.00  0.00    +0.000 N 
ATOM      2  H   UNL     1       3.519   4.265  18.611  0.00  0.00    +0.000 HD
ENDROOT
BRANCH   1   3
ATOM      3  C   UNL     1       5.465   4.911  18.514  0.00  0.00    +0.000 C 
ATOM      4  C   UNL     1       6.445   5.538  19.495  0.00  0.00    +0.000 C 
ATOM      5  C   UNL     1       5.889   4.453  17.306  0.00  0.00    +0.000 C 
ATOM      6  C   UNL     1       4.958   4.135  16.189  0.00  0.00    +0.000 C 
ATOM      7  O   UNL     1       3.880   3.564  16.282  0.00  0.00    +0.000 OA
ATOM      8  N   UNL     1       5.425   4.495  14.950  0.00  0.00    +0.000 N 
ATOM      9  C   UNL     1       6.721   4.768  14.641  0.00  0.00    +0.000 C 
ATOM     10  O   UNL     1       7.101   4.867  13.479  0.00  0.00    +0.000 OA
ATOM     11  N   UNL     1       7.600   4.840  15.679  0.00  0.00    +0.000 N 
ATOM     12  C   UNL     1       7.332   4.457  16.962  0.00  0.00    +0.000 C 
ATOM     13  O   UNL     1       8.223   4.128  17.736  0.00  0.00    +0.000 OA
ATOM     14  H   UNL     1       4.816   4.296  14.173  0.00  0.00    +0.000 HD
ATOM     15  H   UNL     1       8.576   4.889  15.419  0.00  0.00    +0.000 HD
ENDBRANCH   1   3
BRANCH   1  19
ATOM     16  C   UNL     1       1.835   8.583  18.875  0.00  0.00    +0.000 A 
ATOM     17  C   UNL     1       1.823   7.761  20.010  0.00  0.00    +0.000 A 
ATOM     18  C   UNL     1       2.601   6.599  20.046  0.00  0.00    +0.000 A 
ATOM     19  C   UNL     1       3.410   6.249  18.958  0.00  0.00    +0.000 A 
ATOM     20  C   UNL     1       3.464   7.114  17.854  0.00  0.00    +0.000 A 
ATOM     21  C   UNL     1       2.673   8.265  17.804  0.00  0.00    +0.000 A 
BRANCH  16  22
ATOM     22  C   UNL     1       1.028   9.828  18.807  0.00  0.00    +0.000 C 
ATOM     23  O   UNL     1       1.480  10.914  18.485  0.00  0.00    +0.000 OA
BRANCH  22  24
ATOM     24  O   UNL     1      -0.233   9.569  19.230  0.00  0.00    +0.000 OA
BRANCH  24  26
ATOM     25  C   UNL     1      -1.908  10.170  17.655  0.00  0.00    +0.000 C 
ATOM     26  C   UNL     1      -1.207  10.579  18.939  0.00  0.00    +0.000 C 
ENDBRANCH  24  26
ENDBRANCH  22  24
ENDBRANCH  16  22
ENDBRANCH   1  19
TORSDOF 5
ENDMDL
MODEL 4
REMARK VINA RESULT:      -7.6      2.479      3.897
REMARK  Name = 
REMARK  7 active torsions:
REMARK  status: ('A' for Active; 'I' for Inactive)
REMARK    1  A    between atoms: C_1  and  C_2
REMARK    2  A    between atoms: C_2  and  O_3
REMARK    3  A    between atoms: O_3  and  C_4
REMARK    4  A    between atoms: C_4  and  C_6
REMARK    5  A    between atoms: C_9  and  N_10
REMARK    6  A    between atoms: N_10  and  C_11
REMARK    7  A    between atoms: C_11  and  C_12
REMARK                            x       y       z     vdW  Elec       q    Type
REMARK                         _______ _______ _______ _____ _____    ______ ____
ROOT
ATOM      1  N   UNL     1       4.104   4.911  18.831  0.00  0.00    +0.000 N 
ATOM      2  H   UNL     1       3.507   4.171  18.470  0.00  0.00    +0.000 HD
ENDROOT
BRANCH   1   3
ATOM      3  C   UNL     1       5.449   4.835  18.476  0.00  0.00    +0.000 C 
ATOM      4  C   UNL     1       6.400   5.425  19.506  0.00  0.00    +0.000 C 
ATOM      5  C   UNL     1       5.901   4.451  17.252  0.00  0.00    +0.000 C 
ATOM      6  C   UNL     1       4.994   4.178  16.103  0.00  0.00    +0.000 C 
ATOM      7  O   UNL     1       3.926   3.583  16.147  0.00  0.00    +0.000 OA
ATOM      8  N   UNL     1       5.474   4.613  14.894  0.00  0.00    +0.000 N 
ATOM      9  C   UNL     1       6.770   4.927  14.623  0.00  0.00    +0.000 C 
ATOM     10  O   UNL     1       7.166   5.096  13.475  0.00  0.00    +0.000 OA
ATOM     11  N   UNL     1       7.630   4.958  15.678  0.00  0.00    +0.000 N 
ATOM     12  C   UNL     1       7.349   4.500  16.933  0.00  0.00    +0.000 C 
ATOM     13  O   UNL     1       8.233   4.146  17.704  0.00  0.00    +0.000 OA
ATOM     14  H   UNL     1       4.881   4.446  14.097  0.00  0.00    +0.000 HD
ATOM     15  H   UNL     1       8.609   5.039  15.438  0.00  0.00    +0.000 HD
ENDBRANCH   1   3
BRANCH   1  19
ATOM     16  C   UNL     1       1.769   8.421  19.133  0.00  0.00    +0.000 A 
ATOM     17  C   UNL     1       1.822   7.535  20.217  0.00  0.00    +0.000 A 
ATOM     18  C   UNL     1       2.615   6.385  20.149  0.00  0.00    +0.000 A 
ATOM     19  C   UNL     1       3.375   6.111  19.006  0.00  0.00    +0.000 A 
ATOM     20  C   UNL     1       3.365   7.038  17.953  0.00  0.00    +0.000 A 
ATOM     21  C   UNL     1       2.558   8.178  18.006  0.00  0.00    +0.000 A 
BRANCH  16  22
ATOM     22  C   UNL     1       0.944   9.655  19.175  0.00  0.00    +0.000 C 
ATOM     23  O   UNL     1       1.129  10.622  18.453  0.00  0.00    +0.000 OA
BRANCH  22  24
ATOM     24  O   UNL     1       0.036   9.554  20.176  0.00  0.00    +0.000 OA
BRANCH  24  26
ATOM     25  C   UNL     1      -0.274  10.196  22.443  0.00  0.00    +0.000 C 
ATOM     26  C   UNL     1      -0.085  10.703  21.024  0.00  0.00    +0.000 C 
ENDBRANCH  24  26
ENDBRANCH  22  24
ENDBRANCH  16  22
ENDBRANCH   1  19
TORSDOF 5
ENDMDL
MODEL 5
REMARK VINA RESULT:      -7.5      2.608      4.225
REMARK  Name = 
REMARK  7 active torsions:
REMARK  status: ('A' for Active; 'I' for Inactive)
REMARK    1  A    between atoms: C_1  and  C_2
REMARK    2  A    between atoms: C_2  and  O_3
REMARK    3  A    between atoms: O_3  and  C_4
REMARK    4  A    between atoms: C_4  and  C_6
REMARK    5  A    between atoms: C_9  and  N_10
REMARK    6  A    between atoms: N_10  and  C_11
REMARK    7  A    between atoms: C_11  and  C_12
REMARK                            x       y       z     vdW  Elec       q    Type
REMARK                         _______ _______ _______ _____ _____    ______ ____
ROOT
ATOM      1  N   UNL     1       4.197   5.027  18.970  0.00  0.00    +0.000 N 
ATOM      2  H   UNL     1       3.606   4.221  18.780  0.00  0.00    +0.000 HD
ENDROOT
BRANCH   1   3
ATOM      3  C   UNL     1       5.523   4.921  18.555  0.00  0.00    +0.000 C 
ATOM      4  C   UNL     1       6.522   5.591  19.486  0.00  0.00    +0.000 C 
ATOM      5  C   UNL     1       5.914   4.438  17.345  0.00  0.00    +0.000 C 
ATOM      6  C   UNL     1       4.953   4.074  16.269  0.00  0.00    +0.000 C 
ATOM      7  O   UNL     1       3.890   3.486  16.414  0.00  0.00    +0.000 OA
ATOM      8  N   UNL     1       5.371   4.409  15.007  0.00  0.00    +0.000 N 
ATOM      9  C   UNL     1       6.651   4.698  14.646  0.00  0.00    +0.000 C 
ATOM     10  O   UNL     1       6.989   4.773  13.470  0.00  0.00    +0.000 OA
ATOM     11  N   UNL     1       7.562   4.814  15.652  0.00  0.00    +0.000 N 
ATOM     12  C   UNL     1       7.345   4.460  16.952  0.00  0.00    +0.000 C 
ATOM     13  O   UNL     1       8.267   4.168  17.704  0.00  0.00    +0.000 OA
ATOM     14  H   UNL     1       4.740   4.179  14.256  0.00  0.00    +0.000 HD
ATOM     15  H   UNL     1       8.527   4.874  15.358  0.00  0.00    +0.000 HD
ENDBRANCH   1   3
BRANCH   1  19
ATOM     16  C   UNL     1       1.792   8.497  18.757  0.00  0.00    +0.000 A 
ATOM     17  C   UNL     1       1.779   7.721  19.924  0.00  0.00    +0.000 A 
ATOM     18  C   UNL     1       2.592   6.588  20.026  0.00  0.00    +0.000 A 
ATOM     19  C   UNL     1       3.439   6.221  18.973  0.00  0.00    +0.000 A 
ATOM     20  C   UNL     1       3.492   7.042  17.837  0.00  0.00    +0.000 A 
ATOM     21  C   UNL     1       2.666   8.164  17.719  0.00  0.00    +0.000 A 
BRANCH  16  22
ATOM     22  C   UNL     1       0.947   9.710  18.619  0.00  0.00    +0.000 C 
ATOM     23  O   UNL     1       0.039   9.818  17.811  0.00  0.00    +0.000 OA
BRANCH  22  24
ATOM     24  O   UNL     1       1.401  10.671  19.461  0.00  0.00    +0.000 OA
BRANCH  24  26
ATOM     25  C   UNL     1       2.472  12.344  18.156  0.00  0.00    +0.000 C 
ATOM     26  C   UNL     1       1.253  12.020  19.001  0.00  0.00    +0.000 C 
ENDBRANCH  24  26
ENDBRANCH  22  24
ENDBRANCH  16  22
ENDBRANCH   1  19
TORSDOF 5
ENDMDL
MODEL 6
REMARK VINA RESULT:      -7.5      2.589      4.143
REMARK  Name = 
REMARK  7 active torsions:
REMARK  status: ('A' for Active; 'I' for Inactive)
REMARK    1  A    between atoms: C_1  and  C_2
REMARK    2  A    between atoms: C_2  and  O_3
REMARK    3  A    between atoms: O_3  and  C_4
REMARK    4  A    between atoms: C_4  and  C_6
REMARK    5  A    between atoms: C_9  and  N_10
REMARK    6  A    between atoms: N_10  and  C_11
REMARK    7  A    between atoms: C_11  and  C_12
REMARK                            x       y       z     vdW  Elec       q    Type
REMARK                         _______ _______ _______ _____ _____    ______ ____
ROOT
ATOM      1  N   UNL     1       4.101   4.828  18.848  0.00  0.00    +0.000 N 
ATOM      2  H   UNL     1       3.546   4.023  18.565  0.00  0.00    +0.000 HD
ENDROOT
BRANCH   1   3
ATOM      3  C   UNL     1       5.447   4.793  18.493  0.00  0.00    +0.000 C 
ATOM      4  C   UNL     1       6.379   5.421  19.519  0.00  0.00    +0.000 C 
ATOM      5  C   UNL     1       5.912   4.415  17.272  0.00  0.00    +0.000 C 
ATOM      6  C   UNL     1       5.015   4.104  16.125  0.00  0.00    +0.000 C 
ATOM      7  O   UNL     1       3.967   3.475  16.172  0.00  0.00    +0.000 OA
ATOM      8  N   UNL     1       5.481   4.546  14.913  0.00  0.00    +0.000 N 
ATOM      9  C   UNL     1       6.766   4.900  14.639  0.00  0.00    +0.000 C 
ATOM     10  O   UNL     1       7.157   5.073  13.490  0.00  0.00    +0.000 OA
ATOM     11  N   UNL     1       7.624   4.966  15.694  0.00  0.00    +0.000 N 
ATOM     12  C   UNL     1       7.358   4.508  16.953  0.00  0.00    +0.000 C 
ATOM     13  O   UNL     1       8.253   4.189  17.726  0.00  0.00    +0.000 OA
ATOM     14  H   UNL     1       4.894   4.354  14.117  0.00  0.00    +0.000 HD
ATOM     15  H   UNL     1       8.600   5.077  15.454  0.00  0.00    +0.000 HD
ENDBRANCH   1   3
BRANCH   1  19
ATOM     16  C   UNL     1       1.865   8.392  19.255  0.00  0.00    +0.000 A 
ATOM     17  C   UNL     1       2.597   8.170  18.081  0.00  0.00    +0.000 A 
ATOM     18  C   UNL     1       3.317   6.982  17.914  0.00  0.00    +0.000 A 
ATOM     19  C   UNL     1       3.305   5.996  18.907  0.00  0.00    +0.000 A 
ATOM     20  C   UNL     1       2.516   6.201  20.049  0.00  0.00    +0.000 A 
ATOM     21  C   UNL     1       1.812   7.394  20.232  0.00  0.00    +0.000 A 
BRANCH  16  22
ATOM     22  C   UNL     1       1.083   9.637  19.462  0.00  0.00    +0.000 C 
ATOM     23  O   UNL     1       0.344   9.826  20.414  0.00  0.00    +0.000 OA
BRANCH  22  24
ATOM     24  O   UNL     1       1.265  10.463  18.402  0.00  0.00    +0.000 OA
BRANCH  24  26
ATOM     25  C   UNL     1       2.467  12.499  18.164  0.00  0.00    +0.000 C 
ATOM     26  C   UNL     1       1.190  11.865  18.687  0.00  0.00    +0.000 C 
ENDBRANCH  24  26
ENDBRANCH  22  24
ENDBRANCH  16  22
ENDBRANCH   1  19
TORSDOF 5
ENDMDL
MODEL 7
REMARK VINA RESULT:      -7.5      0.851      1.338
REMARK  Name = 
REMARK  7 active torsions:
REMARK  status: ('A' for Active; 'I' for Inactive)
REMARK    1  A    between atoms: C_1  and  C_2
REMARK    2  A    between atoms: C_2  and  O_3
REMARK    3  A    between atoms: O_3  and  C_4
REMARK    4  A    between atoms: C_4  and  C_6
REMARK    5  A    between atoms: C_9  and  N_10
REMARK    6  A    between atoms: N_10  and  C_11
REMARK    7  A    between atoms: C_11  and  C_12
REMARK                            x       y       z     vdW  Elec       q    Type
REMARK                         _______ _______ _______ _____ _____    ______ ____
ROOT
ATOM      1  N   UNL     1       3.136   6.351  17.831  0.00  0.00    +0.000 N 
ATOM      2  H   UNL     1       4.137   6.531  17.871  0.00  0.00    +0.000 HD
ENDROOT
BRANCH   1   3
ATOM      3  C   UNL     1       2.759   5.010  17.809  0.00  0.00    +0.000 C 
ATOM      4  C   UNL     1       1.269   4.785  17.600  0.00  0.00    +0.000 C 
ATOM      5  C   UNL     1       3.581   3.975  18.130  0.00  0.00    +0.000 C 
ATOM      6  C   UNL     1       4.958   4.168  18.660  0.00  0.00    +0.000 C 
ATOM      7  O   UNL     1       5.775   4.994  18.275  0.00  0.00    +0.000 OA
ATOM      8  N   UNL     1       5.313   3.276  19.640  0.00  0.00    +0.000 N 
ATOM      9  C   UNL     1       4.691   2.093  19.896  0.00  0.00    +0.000 C 
ATOM     10  O   UNL     1       5.190   1.250  20.634  0.00  0.00    +0.000 OA
ATOM     11  N   UNL     1       3.532   1.849  19.226  0.00  0.00    +0.000 N 
ATOM     12  C   UNL     1       3.060   2.587  18.179  0.00  0.00    +0.000 C 
ATOM     13  O   UNL     1       2.290   2.113  17.351  0.00  0.00    +0.000 OA
ATOM     14  H   UNL     1       6.239   3.383  20.022  0.00  0.00    +0.000 HD
ATOM     15  H   UNL     1       3.171   0.908  19.312  0.00  0.00    +0.000 HD
ENDBRANCH   1   3
BRANCH   1  19
ATOM     16  C   UNL     1       1.185   9.497  19.872  0.00  0.00    +0.000 A 
ATOM     17  C   UNL     1       1.409   9.606  18.493  0.00  0.00    +0.000 A 
ATOM     18  C   UNL     1       2.023   8.562  17.794  0.00  0.00    +0.000 A 
ATOM     19  C   UNL     1       2.410   7.391  18.457  0.00  0.00    +0.000 A 
ATOM     20  C   UNL     1       2.121   7.266  19.824  0.00  0.00    +0.000 A 
ATOM     21  C   UNL     1       1.527   8.314  20.533  0.00  0.00    +0.000 A 
BRANCH  16  22
ATOM     22  C   UNL     1       0.528  10.582  20.643  0.00  0.00    +0.000 C 
ATOM     23  O   UNL     1       1.129  11.379  21.344  0.00  0.00    +0.000 OA
BRANCH  22  24
ATOM     24  O   UNL     1      -0.817  10.483  20.501  0.00  0.00    +0.000 OA
BRANCH  24  26
ATOM     25  C   UNL     1      -1.969  11.095  18.515  0.00  0.00    +0.000 C 
ATOM     26  C   UNL     1      -1.457  11.591  19.856  0.00  0.00    +0.000 C 
ENDBRANCH  24  26
ENDBRANCH  22  24
ENDBRANCH  16  22
ENDBRANCH   1  19
TORSDOF 5
ENDMDL
MODEL 8
REMARK VINA RESULT:      -7.5      4.450      7.095
REMARK  Name = 
REMARK  7 active torsions:
REMARK  status: ('A' for Active; 'I' for Inactive)
REMARK    1  A    between atoms: C_1  and  C_2
REMARK    2  A    between atoms: C_2  and  O_3
REMARK    3  A    between atoms: O_3  and  C_4
REMARK    4  A    between atoms: C_4  and  C_6
REMARK    5  A    between atoms: C_9  and  N_10
REMARK    6  A    between atoms: N_10  and  C_11
REMARK    7  A    between atoms: C_11  and  C_12
REMARK                            x       y       z     vdW  Elec       q    Type
REMARK                         _______ _______ _______ _____ _____    ______ ____
ROOT
ATOM      1  N   UNL     1       3.604   5.322  18.273  0.00  0.00    +0.000 N 
ATOM      2  H   UNL     1       3.537   6.270  18.638  0.00  0.00    +0.000 HD
ENDROOT
BRANCH   1   3
ATOM      3  C   UNL     1       2.445   4.555  18.361  0.00  0.00    +0.000 C 
ATOM      4  C   UNL     1       1.299   5.056  17.494  0.00  0.00    +0.000 C 
ATOM      5  C   UNL     1       2.248   3.558  19.265  0.00  0.00    +0.000 C 
ATOM      6  C   UNL     1       3.217   3.248  20.352  0.00  0.00    +0.000 C 
ATOM      7  O   UNL     1       4.436   3.228  20.254  0.00  0.00    +0.000 OA
ATOM      8  N   UNL     1       2.631   2.912  21.546  0.00  0.00    +0.000 N 
ATOM      9  C   UNL     1       1.340   2.517  21.711  0.00  0.00    +0.000 C 
ATOM     10  O   UNL     1       0.946   2.024  22.762  0.00  0.00    +0.000 OA
ATOM     11  N   UNL     1       0.523   2.611  20.625  0.00  0.00    +0.000 N 
ATOM     12  C   UNL     1       0.940   2.865  19.350  0.00  0.00    +0.000 C 
ATOM     13  O   UNL     1       0.281   2.520  18.376  0.00  0.00    +0.000 OA
ATOM     14  H   UNL     1       3.261   2.700  22.303  0.00  0.00    +0.000 HD
ATOM     15  H   UNL     1      -0.382   2.171  20.723  0.00  0.00    +0.000 HD
ENDBRANCH   1   3
BRANCH   1  19
ATOM     16  C   UNL     1       6.248   4.956  14.995  0.00  0.00    +0.000 A 
ATOM     17  C   UNL     1       5.882   6.232  15.445  0.00  0.00    +0.000 A 
ATOM     18  C   UNL     1       5.034   6.375  16.548  0.00  0.00    +0.000 A 
ATOM     19  C   UNL     1       4.552   5.248  17.225  0.00  0.00    +0.000 A 
ATOM     20  C   UNL     1       4.977   3.978  16.807  0.00  0.00    +0.000 A 
ATOM     21  C   UNL     1       5.807   3.829  15.692  0.00  0.00    +0.000 A 
BRANCH  16  22
ATOM     22  C   UNL     1       7.152   4.770  13.833  0.00  0.00    +0.000 C 
ATOM     23  O   UNL     1       8.000   5.579  13.494  0.00  0.00    +0.000 OA
BRANCH  22  24
ATOM     24  O   UNL     1       6.827   3.622  13.190  0.00  0.00    +0.000 OA
BRANCH  24  26
ATOM     25  C   UNL     1       5.115   2.850  11.732  0.00  0.00    +0.000 C 
ATOM     26  C   UNL     1       6.311   3.777  11.862  0.00  0.00    +0.000 C 
ENDBRANCH  24  26
ENDBRANCH  22  24
ENDBRANCH  16  22
ENDBRANCH   1  19
TORSDOF 5
ENDMDL
MODEL 9
REMARK VINA RESULT:      -7.5      4.441      7.225
REMARK  Name = 
REMARK  7 active torsions:
REMARK  status: ('A' for Active; 'I' for Inactive)
REMARK    1  A    between atoms: C_1  and  C_2
REMARK    2  A    between atoms: C_2  and  O_3
REMARK    3  A    between atoms: O_3  and  C_4
REMARK    4  A    between atoms: C_4  and  C_6
REMARK    5  A    between atoms: C_9  and  N_10
REMARK    6  A    between atoms: N_10  and  C_11
REMARK    7  A    between atoms: C_11  and  C_12
REMARK                            x       y       z     vdW  Elec       q    Type
REMARK                         _______ _______ _______ _____ _____    ______ ____
ROOT
ATOM      1  N   UNL     1       3.840   5.007  18.142  0.00  0.00    +0.000 N 
ATOM      2  H   UNL     1       3.939   5.923  18.575  0.00  0.00    +0.000 HD
ENDROOT
BRANCH   1   3
ATOM      3  C   UNL     1       2.604   4.387  18.309  0.00  0.00    +0.000 C 
ATOM      4  C   UNL     1       1.474   5.027  17.518  0.00  0.00    +0.000 C 
ATOM      5  C   UNL     1       2.347   3.418  19.228  0.00  0.00    +0.000 C 
ATOM      6  C   UNL     1       3.341   2.988  20.251  0.00  0.00    +0.000 C 
ATOM      7  O   UNL     1       4.539   2.819  20.073  0.00  0.00    +0.000 OA
ATOM      8  N   UNL     1       2.798   2.721  21.482  0.00  0.00    +0.000 N 
ATOM      9  C   UNL     1       1.482   2.486  21.733  0.00  0.00    +0.000 C 
ATOM     10  O   UNL     1       1.100   2.041  22.811  0.00  0.00    +0.000 OA
ATOM     11  N   UNL     1       0.613   2.683  20.704  0.00  0.00    +0.000 N 
ATOM     12  C   UNL     1       0.972   2.890  19.402  0.00  0.00    +0.000 C 
ATOM     13  O   UNL     1       0.214   2.632  18.475  0.00  0.00    +0.000 OA
ATOM     14  H   UNL     1       3.446   2.431  22.197  0.00  0.00    +0.000 HD
ATOM     15  H   UNL     1      -0.330   2.357  20.863  0.00  0.00    +0.000 HD
ENDBRANCH   1   3
BRANCH   1  19
ATOM     16  C   UNL     1       6.463   4.854  14.831  0.00  0.00    +0.000 A 
ATOM     17  C   UNL     1       6.107   3.665  15.482  0.00  0.00    +0.000 A 
ATOM     18  C   UNL     1       5.214   3.691  16.558  0.00  0.00    +0.000 A 
ATOM     19  C   UNL     1       4.656   4.900  16.991  0.00  0.00    +0.000 A 
ATOM     20  C   UNL     1       4.969   6.075  16.291  0.00  0.00    +0.000 A 
ATOM     21  C   UNL     1       5.877   6.058  15.228  0.00  0.00    +0.000 A 
BRANCH  16  22
ATOM     22  C   UNL     1       7.401   4.861  13.680  0.00  0.00    +0.000 C 
ATOM     23  O   UNL     1       8.189   5.763  13.450  0.00  0.00    +0.000 OA
BRANCH  22  24
ATOM     24  O   UNL     1       7.176   3.767  12.911  0.00  0.00    +0.000 OA
BRANCH  24  26
ATOM     25  C   UNL     1       5.155   3.065  11.877  0.00  0.00    +0.000 C 
ATOM     26  C   UNL     1       6.362   3.978  11.751  0.00  0.00    +0.000 C 
ENDBRANCH  24  26
ENDBRANCH  22  24
ENDBRANCH  16  22
ENDBRANCH   1  19
TORSDOF 5
ENDMDL
