MODEL 1
REMARK VINA RESULT:      -7.4      0.000      0.000
REMARK  Name = 
REMARK  5 active torsions:
REMARK  status: ('A' for Active; 'I' for Inactive)
REMARK    1  A    between atoms: C_2  and  C_3
REMARK    2  A    between atoms: C_4  and  C_5
REMARK    3  A    between atoms: C_5  and  O_6
REMARK    4  A    between atoms: N_7  and  C_8
REMARK    5  A    between atoms: N_16  and  C_17
REMARK                            x       y       z     vdW  Elec       q    Type
REMARK                         _______ _______ _______ _____ _____    ______ ____
ROOT
ATOM      1  C   UNL     1       4.006   4.874  17.379  0.00  0.00    +0.000 A 
ATOM      2  C   UNL     1       3.999   3.977  18.442  0.00  0.00    +0.000 A 
ATOM      3  C   UNL     1       3.399   4.325  19.657  0.00  0.00    +0.000 A 
ATOM      4  C   UNL     1       2.768   5.546  19.838  0.00  0.00    +0.000 A 
ATOM      5  N   UNL     1       2.176   5.783  21.011  0.00  0.00    +0.000 NA
ATOM      6  C   UNL     1       1.558   6.958  21.143  0.00  0.00    +0.000 A 
ATOM      7  N   UNL     1       1.484   7.912  20.214  0.00  0.00    +0.000 NA
ATOM      8  C   UNL     1       2.081   7.664  19.032  0.00  0.00    +0.000 A 
ATOM      9  N   UNL     1       1.964   8.641  17.998  0.00  0.00    +0.000 N 
ATOM     10  C   UNL     1       2.774   6.468  18.781  0.00  0.00    +0.000 A 
ATOM     11  C   UNL     1       3.437   6.137  17.568  0.00  0.00    +0.000 A 
ATOM     12  H   UNL     1       1.527   8.201  17.193  0.00  0.00    +0.000 HD
ENDROOT
BRANCH   9  13
ATOM     13  C   UNL     1       1.479   9.954  18.215  0.00  0.00    +0.000 A 
ATOM     14  C   UNL     1       0.109  10.183  18.419  0.00  0.00    +0.000 A 
ATOM     15  C   UNL     1      -0.388  11.477  18.576  0.00  0.00    +0.000 A 
ATOM     16  C   UNL     1       0.489  12.552  18.542  0.00  0.00    +0.000 A 
ATOM     17  F   UNL     1      -0.008  13.791  18.667  0.00  0.00    +0.000 F 
ATOM     18  C   UNL     1       1.856  12.344  18.373  0.00  0.00    +0.000 A 
ATOM     19 CL   UNL     1       2.945  13.680  18.332  0.00  0.00    +0.000 Cl
ATOM     20  C   UNL     1       2.356  11.046  18.224  0.00  0.00    +0.000 A 
ENDBRANCH   9  13
BRANCH   1  23
ATOM     21  O   UNL     1       6.825   4.469  16.582  0.00  0.00    +0.000 OA
ATOM     22  C   UNL     1       5.878   4.405  15.813  0.00  0.00    +0.000 C 
ATOM     23  N   UNL     1       4.540   4.572  16.111  0.00  0.00    +0.000 N 
ATOM     24  H   UNL     1       3.890   4.338  15.371  0.00  0.00    +0.000 HD
BRANCH  22  25
ATOM     25  C   UNL     1       6.153   4.078  14.430  0.00  0.00    +0.000 C 
ATOM     26  C   UNL     1       6.365   3.760  13.289  0.00  0.00    +0.000 C 
BRANCH  26  27
ATOM     27  C   UNL     1       6.617   3.320  11.917  0.00  0.00    +0.000 C 
BRANCH  27  28
ATOM     28  O   UNL     1       6.064   2.030  11.710  0.00  0.00    +0.000 OA
ATOM     29  H   UNL     1       6.695   1.391  12.085  0.00  0.00    +0.000 HD
ENDBRANCH  27  28
ENDBRANCH  26  27
ENDBRANCH  22  25
ENDBRANCH   1  23
TORSDOF 5
ENDMDL
MODEL 2
REMARK VINA RESULT:      -7.4      1.096      1.448
REMARK  Name = 
REMARK  5 active torsions:
REMARK  status: ('A' for Active; 'I' for Inactive)
REMARK    1  A    between atoms: C_2  and  C_3
REMARK    2  A    between atoms: C_4  and  C_5
REMARK    3  A    between atoms: C_5  and  O_6
REMARK    4  A    between atoms: N_7  and  C_8
REMARK    5  A    between atoms: N_16  and  C_17
REMARK                            x       y       z     vdW  Elec       q    Type
REMARK                         _______ _______ _______ _____ _____    ______ ____
ROOT
ATOM      1  C   UNL     1       4.158   4.760  17.367  0.00  0.00    +0.000 A 
ATOM      2  C   UNL     1       4.147   3.864  18.431  0.00  0.00    +0.000 A 
ATOM      3  C   UNL     1       3.524   4.205  19.637  0.00  0.00    +0.000 A 
ATOM      4  C   UNL     1       2.875   5.417  19.807  0.00  0.00    +0.000 A 
ATOM      5  N   UNL     1       2.263   5.647  20.971  0.00  0.00    +0.000 NA
ATOM      6  C   UNL     1       1.626   6.815  21.093  0.00  0.00    +0.000 A 
ATOM      7  N   UNL     1       1.554   7.766  20.161  0.00  0.00    +0.000 NA
ATOM      8  C   UNL     1       2.171   7.526  18.989  0.00  0.00    +0.000 A 
ATOM      9  N   UNL     1       2.057   8.500  17.952  0.00  0.00    +0.000 N 
ATOM     10  C   UNL     1       2.884   6.338  18.749  0.00  0.00    +0.000 A 
ATOM     11  C   UNL     1       3.569   6.015  17.546  0.00  0.00    +0.000 A 
ATOM     12  H   UNL     1       1.638   8.053  17.142  0.00  0.00    +0.000 HD
ENDROOT
BRANCH   9  13
ATOM     13  C   UNL     1       1.551   9.806  18.161  0.00  0.00    +0.000 A 
ATOM     14  C   UNL     1       2.413  10.914  18.151  0.00  0.00    +0.000 A 
ATOM     15  C   UNL     1       1.934  12.198  18.412  0.00  0.00    +0.000 A 
ATOM     16  C   UNL     1       0.583  12.383  18.672  0.00  0.00    +0.000 A 
ATOM     17  F   UNL     1       0.144  13.620  18.947  0.00  0.00    +0.000 F 
ATOM     18  C   UNL     1      -0.294  11.301  18.654  0.00  0.00    +0.000 A 
ATOM     19 CL   UNL     1      -1.971  11.531  18.975  0.00  0.00    +0.000 Cl
ATOM     20  C   UNL     1       0.184  10.014  18.384  0.00  0.00    +0.000 A 
ENDBRANCH   9  13
BRANCH   1  23
ATOM     21  O   UNL     1       6.878   5.308  16.346  0.00  0.00    +0.000 OA
ATOM     22  C   UNL     1       6.000   4.761  15.699  0.00  0.00    +0.000 C 
ATOM     23  N   UNL     1       4.715   4.464  16.107  0.00  0.00    +0.000 N 
ATOM     24  H   UNL     1       4.176   3.878  15.482  0.00  0.00    +0.000 HD
BRANCH  22  25
ATOM     25  C   UNL     1       6.322   4.325  14.356  0.00  0.00    +0.000 C 
ATOM     26  C   UNL     1       6.547   3.938  13.240  0.00  0.00    +0.000 C 
BRANCH  26  27
ATOM     27  C   UNL     1       6.779   3.430  11.888  0.00  0.00    +0.000 C 
BRANCH  27  28
ATOM     28  O   UNL     1       6.458   2.049  11.824  0.00  0.00    +0.000 OA
ATOM     29  H   UNL     1       5.517   1.990  11.583  0.00  0.00    +0.000 HD
ENDBRANCH  27  28
ENDBRANCH  26  27
ENDBRANCH  22  25
ENDBRANCH   1  23
TORSDOF 5
ENDMDL
MODEL 3
REMARK VINA RESULT:      -7.3      4.678      8.450
REMARK  Name = 
REMARK  5 active torsions:
REMARK  status: ('A' for Active; 'I' for Inactive)
REMARK    1  A    between atoms: C_2  and  C_3
REMARK    2  A    between atoms: C_4  and  C_5
REMARK    3  A    between atoms: C_5  and  O_6
REMARK    4  A    between atoms: N_7  and  C_8
REMARK    5  A    between atoms: N_16  and  C_17
REMARK                            x       y       z     vdW  Elec       q    Type
REMARK                         _______ _______ _______ _____ _____    ______ ____
ROOT
ATOM      1  C   UNL     1       2.144   6.865  19.648  0.00  0.00    +0.000 A 
ATOM      2  C   UNL     1       1.653   5.914  20.537  0.00  0.00    +0.000 A 
ATOM      3  C   UNL     1       1.963   4.560  20.366  0.00  0.00    +0.000 A 
ATOM      4  C   UNL     1       2.784   4.122  19.341  0.00  0.00    +0.000 A 
ATOM      5  N   UNL     1       3.072   2.819  19.275  0.00  0.00    +0.000 NA
ATOM      6  C   UNL     1       3.886   2.435  18.289  0.00  0.00    +0.000 A 
ATOM      7  N   UNL     1       4.429   3.232  17.368  0.00  0.00    +0.000 NA
ATOM      8  C   UNL     1       4.137   4.544  17.442  0.00  0.00    +0.000 A 
ATOM      9  N   UNL     1       4.754   5.428  16.507  0.00  0.00    +0.000 N 
ATOM     10  C   UNL     1       3.281   5.064  18.428  0.00  0.00    +0.000 A 
ATOM     11  C   UNL     1       2.917   6.431  18.567  0.00  0.00    +0.000 A 
ATOM     12  H   UNL     1       5.279   6.125  17.029  0.00  0.00    +0.000 HD
ENDROOT
BRANCH   9  13
ATOM     13  C   UNL     1       5.452   4.985  15.357  0.00  0.00    +0.000 A 
ATOM     14  C   UNL     1       6.838   5.179  15.247  0.00  0.00    +0.000 A 
ATOM     15  C   UNL     1       7.527   4.800  14.094  0.00  0.00    +0.000 A 
ATOM     16  C   UNL     1       6.831   4.210  13.048  0.00  0.00    +0.000 A 
ATOM     17  F   UNL     1       7.503   3.875  11.936  0.00  0.00    +0.000 F 
ATOM     18  C   UNL     1       5.461   3.979  13.151  0.00  0.00    +0.000 A 
ATOM     19 CL   UNL     1       4.598   3.247  11.851  0.00  0.00    +0.000 Cl
ATOM     20  C   UNL     1       4.771   4.353  14.309  0.00  0.00    +0.000 A 
ENDBRANCH   9  13
BRANCH   1  23
ATOM     21  O   UNL     1       1.202   8.825  17.644  0.00  0.00    +0.000 OA
ATOM     22  C   UNL     1       1.485   9.105  18.798  0.00  0.00    +0.000 C 
ATOM     23  N   UNL     1       1.921   8.249  19.789  0.00  0.00    +0.000 N 
ATOM     24  H   UNL     1       1.965   8.638  20.723  0.00  0.00    +0.000 HD
BRANCH  22  25
ATOM     25  C   UNL     1       1.319  10.481  19.219  0.00  0.00    +0.000 C 
ATOM     26  C   UNL     1       1.218  11.617  19.601  0.00  0.00    +0.000 C 
BRANCH  26  27
ATOM     27  C   UNL     1       1.127  12.985  20.109  0.00  0.00    +0.000 C 
BRANCH  27  28
ATOM     28  O   UNL     1       1.942  13.132  21.263  0.00  0.00    +0.000 OA
ATOM     29  H   UNL     1       2.828  13.384  20.950  0.00  0.00    +0.000 HD
ENDBRANCH  27  28
ENDBRANCH  26  27
ENDBRANCH  22  25
ENDBRANCH   1  23
TORSDOF 5
ENDMDL
MODEL 4
REMARK VINA RESULT:      -7.3      5.064      8.613
REMARK  Name = 
REMARK  5 active torsions:
REMARK  status: ('A' for Active; 'I' for Inactive)
REMARK    1  A    between atoms: C_2  and  C_3
REMARK    2  A    between atoms: C_4  and  C_5
REMARK    3  A    between atoms: C_5  and  O_6
REMARK    4  A    between atoms: N_7  and  C_8
REMARK    5  A    between atoms: N_16  and  C_17
REMARK                            x       y       z     vdW  Elec       q    Type
REMARK                         _______ _______ _______ _____ _____    ______ ____
ROOT
ATOM      1  C   UNL     1       2.064   6.751  19.939  0.00  0.00    +0.000 A 
ATOM      2  C   UNL     1       1.555   5.773  20.787  0.00  0.00    +0.000 A 
ATOM      3  C   UNL     1       1.857   4.424  20.572  0.00  0.00    +0.000 A 
ATOM      4  C   UNL     1       2.689   4.016  19.542  0.00  0.00    +0.000 A 
ATOM      5  N   UNL     1       2.969   2.715  19.432  0.00  0.00    +0.000 NA
ATOM      6  C   UNL     1       3.793   2.360  18.444  0.00  0.00    +0.000 A 
ATOM      7  N   UNL     1       4.354   3.185  17.560  0.00  0.00    +0.000 NA
ATOM      8  C   UNL     1       4.070   4.496  17.677  0.00  0.00    +0.000 A 
ATOM      9  N   UNL     1       4.705   5.409  16.782  0.00  0.00    +0.000 N 
ATOM     10  C   UNL     1       3.204   4.987  18.670  0.00  0.00    +0.000 A 
ATOM     11  C   UNL     1       2.848   6.351  18.853  0.00  0.00    +0.000 A 
ATOM     12  H   UNL     1       5.228   6.082  17.335  0.00  0.00    +0.000 HD
ENDROOT
BRANCH   9  13
ATOM     13  C   UNL     1       5.415   5.002  15.626  0.00  0.00    +0.000 A 
ATOM     14  C   UNL     1       6.804   5.189  15.540  0.00  0.00    +0.000 A 
ATOM     15  C   UNL     1       7.504   4.847  14.384  0.00  0.00    +0.000 A 
ATOM     16  C   UNL     1       6.818   4.300  13.308  0.00  0.00    +0.000 A 
ATOM     17  F   UNL     1       7.502   4.000  12.194  0.00  0.00    +0.000 F 
ATOM     18  C   UNL     1       5.445   4.076  13.385  0.00  0.00    +0.000 A 
ATOM     19 CL   UNL     1       4.594   3.396  12.050  0.00  0.00    +0.000 Cl
ATOM     20  C   UNL     1       4.743   4.412  14.548  0.00  0.00    +0.000 A 
ENDBRANCH   9  13
BRANCH   1  23
ATOM     21  O   UNL     1      -0.078   8.125  21.445  0.00  0.00    +0.000 OA
ATOM     22  C   UNL     1       0.815   8.700  20.842  0.00  0.00    +0.000 C 
ATOM     23  N   UNL     1       1.849   8.131  20.128  0.00  0.00    +0.000 N 
ATOM     24  H   UNL     1       2.575   8.765  19.819  0.00  0.00    +0.000 HD
BRANCH  22  25
ATOM     25  C   UNL     1       0.841  10.147  20.895  0.00  0.00    +0.000 C 
ATOM     26  C   UNL     1       0.890  11.349  20.896  0.00  0.00    +0.000 C 
BRANCH  26  27
ATOM     27  C   UNL     1       0.988  12.808  20.857  0.00  0.00    +0.000 C 
BRANCH  27  28
ATOM     28  O   UNL     1       2.269  13.222  21.307  0.00  0.00    +0.000 OA
ATOM     29  H   UNL     1       2.912  12.909  20.648  0.00  0.00    +0.000 HD
ENDBRANCH  27  28
ENDBRANCH  26  27
ENDBRANCH  22  25
ENDBRANCH   1  23
TORSDOF 5
ENDMDL
MODEL 5
REMARK VINA RESULT:      -7.2      4.774      8.490
REMARK  Name = 
REMARK  5 active torsions:
REMARK  status: ('A' for Active; 'I' for Inactive)
REMARK    1  A    between atoms: C_2  and  C_3
REMARK    2  A    between atoms: C_4  and  C_5
REMARK    3  A    between atoms: C_5  and  O_6
REMARK    4  A    between atoms: N_7  and  C_8
REMARK    5  A    between atoms: N_16  and  C_17
REMARK                            x       y       z     vdW  Elec       q    Type
REMARK                         _______ _______ _______ _____ _____    ______ ____
ROOT
ATOM      1  C   UNL     1       1.640   5.246  20.362  0.00  0.00    +0.000 A 
ATOM      2  C   UNL     1       1.178   4.069  20.941  0.00  0.00    +0.000 A 
ATOM      3  C   UNL     1       1.615   2.828  20.463  0.00  0.00    +0.000 A 
ATOM      4  C   UNL     1       2.536   2.724  19.433  0.00  0.00    +0.000 A 
ATOM      5  N   UNL     1       2.940   1.505  19.068  0.00  0.00    +0.000 NA
ATOM      6  C   UNL     1       3.846   1.442  18.090  0.00  0.00    +0.000 A 
ATOM      7  N   UNL     1       4.375   2.483  17.446  0.00  0.00    +0.000 NA
ATOM      8  C   UNL     1       3.965   3.710  17.821  0.00  0.00    +0.000 A 
ATOM      9  N   UNL     1       4.560   4.844  17.192  0.00  0.00    +0.000 N 
ATOM     10  C   UNL     1       3.005   3.901  18.831  0.00  0.00    +0.000 A 
ATOM     11  C   UNL     1       2.515   5.158  19.275  0.00  0.00    +0.000 A 
ATOM     12  H   UNL     1       4.988   5.418  17.913  0.00  0.00    +0.000 HD
ENDROOT
BRANCH   9  13
ATOM     13  C   UNL     1       5.367   4.759  16.031  0.00  0.00    +0.000 A 
ATOM     14  C   UNL     1       6.674   5.269  16.032  0.00  0.00    +0.000 A 
ATOM     15  C   UNL     1       7.456   5.244  14.877  0.00  0.00    +0.000 A 
ATOM     16  C   UNL     1       6.937   4.693  13.714  0.00  0.00    +0.000 A 
ATOM     17  F   UNL     1       7.692   4.700  12.606  0.00  0.00    +0.000 F 
ATOM     18  C   UNL     1       5.653   4.151  13.701  0.00  0.00    +0.000 A 
ATOM     19 CL   UNL     1       5.009   3.467  12.256  0.00  0.00    +0.000 Cl
ATOM     20  C   UNL     1       4.871   4.170  14.860  0.00  0.00    +0.000 A 
ENDBRANCH   9  13
BRANCH   1  23
ATOM     21  O   UNL     1       2.311   7.896  19.233  0.00  0.00    +0.000 OA
ATOM     22  C   UNL     1       1.648   7.729  20.245  0.00  0.00    +0.000 C 
ATOM     23  N   UNL     1       1.288   6.530  20.826  0.00  0.00    +0.000 N 
ATOM     24  H   UNL     1       0.614   6.588  21.579  0.00  0.00    +0.000 HD
BRANCH  22  25
ATOM     25  C   UNL     1       1.133   8.904  20.916  0.00  0.00    +0.000 C 
ATOM     26  C   UNL     1       0.660   9.871  21.452  0.00  0.00    +0.000 C 
BRANCH  26  27
ATOM     27  C   UNL     1       0.040  11.042  22.072  0.00  0.00    +0.000 C 
BRANCH  27  28
ATOM     28  O   UNL     1      -0.398  10.724  23.385  0.00  0.00    +0.000 OA
ATOM     29  H   UNL     1      -0.288  11.529  23.920  0.00  0.00    +0.000 HD
ENDBRANCH  27  28
ENDBRANCH  26  27
ENDBRANCH  22  25
ENDBRANCH   1  23
TORSDOF 5
ENDMDL
MODEL 6
REMARK VINA RESULT:      -7.1      0.937      1.094
REMARK  Name = 
REMARK  5 active torsions:
REMARK  status: ('A' for Active; 'I' for Inactive)
REMARK    1  A    between atoms: C_2  and  C_3
REMARK    2  A    between atoms: C_4  and  C_5
REMARK    3  A    between atoms: C_5  and  O_6
REMARK    4  A    between atoms: N_7  and  C_8
REMARK    5  A    between atoms: N_16  and  C_17
REMARK                            x       y       z     vdW  Elec       q    Type
REMARK                         _______ _______ _______ _____ _____    ______ ____
ROOT
ATOM      1  C   UNL     1       3.646   5.748  17.846  0.00  0.00    +0.000 A 
ATOM      2  C   UNL     1       3.439   4.872  18.906  0.00  0.00    +0.000 A 
ATOM      3  C   UNL     1       2.726   5.286  20.037  0.00  0.00    +0.000 A 
ATOM      4  C   UNL     1       2.178   6.555  20.131  0.00  0.00    +0.000 A 
ATOM      5  N   UNL     1       1.469   6.857  21.221  0.00  0.00    +0.000 NA
ATOM      6  C   UNL     1       0.934   8.079  21.268  0.00  0.00    +0.000 A 
ATOM      7  N   UNL     1       1.049   9.019  20.330  0.00  0.00    +0.000 NA
ATOM      8  C   UNL     1       1.762   8.707  19.231  0.00  0.00    +0.000 A 
ATOM      9  N   UNL     1       1.849   9.672  18.184  0.00  0.00    +0.000 N 
ATOM     10  C   UNL     1       2.384   7.456  19.075  0.00  0.00    +0.000 A 
ATOM     11  C   UNL     1       3.160   7.054  17.954  0.00  0.00    +0.000 A 
ATOM     12  H   UNL     1       1.479   9.253  17.335  0.00  0.00    +0.000 HD
ENDROOT
BRANCH   9  13
ATOM     13  C   UNL     1       1.447  11.022  18.330  0.00  0.00    +0.000 A 
ATOM     14  C   UNL     1       0.109  11.340  18.615  0.00  0.00    +0.000 A 
ATOM     15  C   UNL     1      -0.310  12.668  18.703  0.00  0.00    +0.000 A 
ATOM     16  C   UNL     1       0.613  13.687  18.520  0.00  0.00    +0.000 A 
ATOM     17  F   UNL     1       0.189  14.958  18.583  0.00  0.00    +0.000 F 
ATOM     18  C   UNL     1       1.952  13.393  18.270  0.00  0.00    +0.000 A 
ATOM     19 CL   UNL     1       3.098  14.660  18.043  0.00  0.00    +0.000 Cl
ATOM     20  C   UNL     1       2.375  12.062  18.188  0.00  0.00    +0.000 A 
ENDBRANCH   9  13
BRANCH   1  23
ATOM     21  O   UNL     1       6.324   4.549  17.475  0.00  0.00    +0.000 OA
ATOM     22  C   UNL     1       5.566   4.833  16.561  0.00  0.00    +0.000 C 
ATOM     23  N   UNL     1       4.304   5.384  16.654  0.00  0.00    +0.000 N 
ATOM     24  H   UNL     1       3.769   5.412  15.795  0.00  0.00    +0.000 HD
BRANCH  22  25
ATOM     25  C   UNL     1       5.996   4.533  15.211  0.00  0.00    +0.000 C 
ATOM     26  C   UNL     1       6.316   4.251  14.086  0.00  0.00    +0.000 C 
BRANCH  26  27
ATOM     27  C   UNL     1       6.672   3.863  12.722  0.00  0.00    +0.000 C 
BRANCH  27  28
ATOM     28  O   UNL     1       6.181   2.561  12.441  0.00  0.00    +0.000 OA
ATOM     29  H   UNL     1       6.636   2.257  11.637  0.00  0.00    +0.000 HD
ENDBRANCH  27  28
ENDBRANCH  26  27
ENDBRANCH  22  25
ENDBRANCH   1  23
TORSDOF 5
ENDMDL
MODEL 7
REMARK VINA RESULT:      -7.1      5.004      8.571
REMARK  Name = 
REMARK  5 active torsions:
REMARK  status: ('A' for Active; 'I' for Inactive)
REMARK    1  A    between atoms: C_2  and  C_3
REMARK    2  A    between atoms: C_4  and  C_5
REMARK    3  A    between atoms: C_5  and  O_6
REMARK    4  A    between atoms: N_7  and  C_8
REMARK    5  A    between atoms: N_16  and  C_17
REMARK                            x       y       z     vdW  Elec       q    Type
REMARK                         _______ _______ _______ _____ _____    ______ ____
ROOT
ATOM      1  C   UNL     1       2.190   7.343  19.130  0.00  0.00    +0.000 A 
ATOM      2  C   UNL     1       1.997   6.579  20.276  0.00  0.00    +0.000 A 
ATOM      3  C   UNL     1       2.602   5.323  20.398  0.00  0.00    +0.000 A 
ATOM      4  C   UNL     1       3.431   4.812  19.412  0.00  0.00    +0.000 A 
ATOM      5  N   UNL     1       4.010   3.627  19.626  0.00  0.00    +0.000 NA
ATOM      6  C   UNL     1       4.821   3.175  18.667  0.00  0.00    +0.000 A 
ATOM      7  N   UNL     1       5.098   3.797  17.520  0.00  0.00    +0.000 NA
ATOM      8  C   UNL     1       4.513   4.993  17.313  0.00  0.00    +0.000 A 
ATOM      9  N   UNL     1       4.840   5.708  16.123  0.00  0.00    +0.000 N 
ATOM     10  C   UNL     1       3.629   5.564  18.245  0.00  0.00    +0.000 A 
ATOM     11  C   UNL     1       2.966   6.812  18.095  0.00  0.00    +0.000 A 
ATOM     12  H   UNL     1       5.223   6.611  16.390  0.00  0.00    +0.000 HD
ENDROOT
BRANCH   9  13
ATOM     13  C   UNL     1       5.542   5.135  15.034  0.00  0.00    +0.000 A 
ATOM     14  C   UNL     1       6.927   5.320  14.902  0.00  0.00    +0.000 A 
ATOM     15  C   UNL     1       7.618   4.809  13.803  0.00  0.00    +0.000 A 
ATOM     16  C   UNL     1       6.926   4.095  12.834  0.00  0.00    +0.000 A 
ATOM     17  F   UNL     1       7.600   3.633  11.771  0.00  0.00    +0.000 F 
ATOM     18  C   UNL     1       5.557   3.872  12.964  0.00  0.00    +0.000 A 
ATOM     19 CL   UNL     1       4.698   2.985  11.761  0.00  0.00    +0.000 Cl
ATOM     20  C   UNL     1       4.864   4.378  14.069  0.00  0.00    +0.000 A 
ENDBRANCH   9  13
BRANCH   1  23
ATOM     21  O   UNL     1       0.858   9.095  21.106  0.00  0.00    +0.000 OA
ATOM     22  C   UNL     1       1.042   9.395  19.936  0.00  0.00    +0.000 C 
ATOM     23  N   UNL     1       1.660   8.638  18.961  0.00  0.00    +0.000 N 
ATOM     24  H   UNL     1       1.850   9.113  18.087  0.00  0.00    +0.000 HD
BRANCH  22  25
ATOM     25  C   UNL     1       0.606  10.705  19.499  0.00  0.00    +0.000 C 
ATOM     26  C   UNL     1       0.288  11.798  19.112  0.00  0.00    +0.000 C 
BRANCH  26  27
ATOM     27  C   UNL     1      -0.046  13.137  18.626  0.00  0.00    +0.000 C 
BRANCH  27  28
ATOM     28  O   UNL     1      -0.927  13.047  17.517  0.00  0.00    +0.000 OA
ATOM     29  H   UNL     1      -0.789  12.170  17.119  0.00  0.00    +0.000 HD
ENDBRANCH  27  28
ENDBRANCH  26  27
ENDBRANCH  22  25
ENDBRANCH   1  23
TORSDOF 5
ENDMDL
MODEL 8
REMARK VINA RESULT:      -7.0      2.121      2.704
REMARK  Name = 
REMARK  5 active torsions:
REMARK  status: ('A' for Active; 'I' for Inactive)
REMARK    1  A    between atoms: C_2  and  C_3
REMARK    2  A    between atoms: C_4  and  C_5
REMARK    3  A    between atoms: C_5  and  O_6
REMARK    4  A    between atoms: N_7  and  C_8
REMARK    5  A    between atoms: N_16  and  C_17
REMARK                            x       y       z     vdW  Elec       q    Type
REMARK                         _______ _______ _______ _____ _____    ______ ____
ROOT
ATOM      1  C   UNL     1       4.445   3.922  17.143  0.00  0.00    +0.000 A 
ATOM      2  C   UNL     1       4.301   2.626  17.628  0.00  0.00    +0.000 A 
ATOM      3  C   UNL     1       3.521   2.379  18.763  0.00  0.00    +0.000 A 
ATOM      4  C   UNL     1       2.844   3.393  19.420  0.00  0.00    +0.000 A 
ATOM      5  N   UNL     1       2.080   3.068  20.466  0.00  0.00    +0.000 NA
ATOM      6  C   UNL     1       1.422   4.066  21.061  0.00  0.00    +0.000 A 
ATOM      7  N   UNL     1       1.465   5.351  20.707  0.00  0.00    +0.000 NA
ATOM      8  C   UNL     1       2.235   5.671  19.649  0.00  0.00    +0.000 A 
ATOM      9  N   UNL     1       2.250   7.028  19.210  0.00  0.00    +0.000 N 
ATOM     10  C   UNL     1       2.985   4.708  18.952  0.00  0.00    +0.000 A 
ATOM     11  C   UNL     1       3.826   4.966  17.836  0.00  0.00    +0.000 A 
ATOM     12  H   UNL     1       1.947   7.052  18.241  0.00  0.00    +0.000 HD
ENDROOT
BRANCH   9  13
ATOM     13  C   UNL     1       1.709   8.099  19.963  0.00  0.00    +0.000 A 
ATOM     14  C   UNL     1       1.667   8.035  21.365  0.00  0.00    +0.000 A 
ATOM     15  C   UNL     1       1.083   9.058  22.113  0.00  0.00    +0.000 A 
ATOM     16  C   UNL     1       0.549  10.160  21.461  0.00  0.00    +0.000 A 
ATOM     17  F   UNL     1      -0.032  11.122  22.193  0.00  0.00    +0.000 F 
ATOM     18  C   UNL     1       0.610  10.258  20.072  0.00  0.00    +0.000 A 
ATOM     19 CL   UNL     1      -0.052  11.628  19.263  0.00  0.00    +0.000 Cl
ATOM     20  C   UNL     1       1.202   9.237  19.322  0.00  0.00    +0.000 A 
ENDBRANCH   9  13
BRANCH   1  23
ATOM     21  O   UNL     1       7.340   4.423  16.809  0.00  0.00    +0.000 OA
ATOM     22  C   UNL     1       6.526   4.468  15.900  0.00  0.00    +0.000 C 
ATOM     23  N   UNL     1       5.167   4.239  15.976  0.00  0.00    +0.000 N 
ATOM     24  H   UNL     1       4.680   4.178  15.091  0.00  0.00    +0.000 HD
BRANCH  22  25
ATOM     25  C   UNL     1       7.018   4.755  14.568  0.00  0.00    +0.000 C 
ATOM     26  C   UNL     1       7.381   4.978  13.444  0.00  0.00    +0.000 C 
BRANCH  26  27
ATOM     27  C   UNL     1       7.779   5.223  12.058  0.00  0.00    +0.000 C 
BRANCH  27  28
ATOM     28  O   UNL     1       8.397   6.496  11.945  0.00  0.00    +0.000 OA
ATOM     29  H   UNL     1       7.848   7.022  11.337  0.00  0.00    +0.000 HD
ENDBRANCH  27  28
ENDBRANCH  26  27
ENDBRANCH  22  25
ENDBRANCH   1  23
TORSDOF 5
ENDMDL
MODEL 9
REMARK VINA RESULT:      -6.8      1.378      1.851
REMARK  Name = 
REMARK  5 active torsions:
REMARK  status: ('A' for Active; 'I' for Inactive)
REMARK    1  A    between atoms: C_2  and  C_3
REMARK    2  A    between atoms: C_4  and  C_5
REMARK    3  A    between atoms: C_5  and  O_6
REMARK    4  A    between atoms: N_7  and  C_8
REMARK    5  A    between atoms: N_16  and  C_17
REMARK                            x       y       z     vdW  Elec       q    Type
REMARK                         _______ _______ _______ _____ _____    ______ ____
ROOT
ATOM      1  C   UNL     1       3.411   5.781  17.953  0.00  0.00    +0.000 A 
ATOM      2  C   UNL     1       3.114   4.933  19.015  0.00  0.00    +0.000 A 
ATOM      3  C   UNL     1       2.412   5.412  20.127  0.00  0.00    +0.000 A 
ATOM      4  C   UNL     1       1.963   6.720  20.200  0.00  0.00    +0.000 A 
ATOM      5  N   UNL     1       1.257   7.086  21.273  0.00  0.00    +0.000 NA
ATOM      6  C   UNL     1       0.819   8.347  21.300  0.00  0.00    +0.000 A 
ATOM      7  N   UNL     1       1.028   9.267  20.358  0.00  0.00    +0.000 NA
ATOM      8  C   UNL     1       1.738   8.890  19.278  0.00  0.00    +0.000 A 
ATOM      9  N   UNL     1       1.923   9.837  18.226  0.00  0.00    +0.000 N 
ATOM     10  C   UNL     1       2.262   7.593  19.144  0.00  0.00    +0.000 A 
ATOM     11  C   UNL     1       3.028   7.123  18.042  0.00  0.00    +0.000 A 
ATOM     12  H   UNL     1       1.539   9.442  17.372  0.00  0.00    +0.000 HD
ENDROOT
BRANCH   9  13
ATOM     13  C   UNL     1       1.625  11.216  18.355  0.00  0.00    +0.000 A 
ATOM     14  C   UNL     1       2.593  12.186  18.050  0.00  0.00    +0.000 A 
ATOM     15  C   UNL     1       2.330  13.544  18.229  0.00  0.00    +0.000 A 
ATOM     16  C   UNL     1       1.087  13.941  18.702  0.00  0.00    +0.000 A 
ATOM     17  F   UNL     1       0.859  15.249  18.892  0.00  0.00    +0.000 F 
ATOM     18  C   UNL     1       0.101  12.996  18.979  0.00  0.00    +0.000 A 
ATOM     19 CL   UNL     1      -1.442  13.490  19.565  0.00  0.00    +0.000 Cl
ATOM     20  C   UNL     1       0.362  11.634  18.793  0.00  0.00    +0.000 A 
ENDBRANCH   9  13
BRANCH   1  23
ATOM     21  O   UNL     1       6.271   5.165  17.516  0.00  0.00    +0.000 OA
ATOM     22  C   UNL     1       5.413   5.095  16.650  0.00  0.00    +0.000 C 
ATOM     23  N   UNL     1       4.064   5.357  16.779  0.00  0.00    +0.000 N 
ATOM     24  H   UNL     1       3.487   5.102  15.987  0.00  0.00    +0.000 HD
BRANCH  22  25
ATOM     25  C   UNL     1       5.820   4.651  15.333  0.00  0.00    +0.000 C 
ATOM     26  C   UNL     1       6.205   4.294  14.251  0.00  0.00    +0.000 C 
BRANCH  26  27
ATOM     27  C   UNL     1       6.723   3.884  12.946  0.00  0.00    +0.000 C 
BRANCH  27  28
ATOM     28  O   UNL     1       6.103   2.676  12.533  0.00  0.00    +0.000 OA
ATOM     29  H   UNL     1       6.317   2.006  13.206  0.00  0.00    +0.000 HD
ENDBRANCH  27  28
ENDBRANCH  26  27
ENDBRANCH  22  25
ENDBRANCH   1  23
TORSDOF 5
ENDMDL
