MODEL 1
REMARK VINA RESULT:      -8.5      0.000      0.000
REMARK  Name = 
REMARK  7 active torsions:
REMARK  status: ('A' for Active; 'I' for Inactive)
REMARK    1  A    between atoms: C_1  and  C_2
REMARK    2  A    between atoms: C_7  and  N_8
REMARK    3  A    between atoms: C_17  and  C_18
REMARK    4  A    between atoms: N_20  and  C_21
REMARK    5  A    between atoms: C_21  and  C_22
REMARK    6  A    between atoms: C_22  and  C_23
REMARK    7  A    between atoms: C_22  and  C_24
REMARK                            x       y       z     vdW  Elec       q    Type
REMARK                         _______ _______ _______ _____ _____    ______ ____
ROOT
ATOM      1  N   UNL     1       1.517  15.357  19.645  0.00  0.00    +0.000 N 
ATOM      2  C   UNL     1       1.365  14.011  19.512  0.00  0.00    +0.000 A 
ATOM      3  N   UNL     1       0.545  13.199  20.098  0.00  0.00    +0.000 NA
ATOM      4  N   UNL     1       0.787  11.925  19.679  0.00  0.00    +0.000 N 
ATOM      5  C   UNL     1       0.108  10.842  20.191  0.00  0.00    +0.000 A 
ATOM      6  O   UNL     1      -0.937  10.836  20.829  0.00  0.00    +0.000 OA
ATOM      7  C   UNL     1       0.801   9.582  19.881  0.00  0.00    +0.000 A 
ATOM      8  C   UNL     1       1.030   8.621  20.858  0.00  0.00    +0.000 A 
ATOM      9  C   UNL     1       1.863   7.541  20.547  0.00  0.00    +0.000 A 
ATOM     10  C   UNL     1       2.320   7.346  19.231  0.00  0.00    +0.000 A 
ATOM     11  C   UNL     1       2.056   8.321  18.266  0.00  0.00    +0.000 A 
ATOM     12  C   UNL     1       1.474   9.517  18.659  0.00  0.00    +0.000 A 
ATOM     13  N   UNL     1       1.953  10.684  18.031  0.00  0.00    +0.000 NA
ATOM     14  C   UNL     1       1.692  11.780  18.660  0.00  0.00    +0.000 A 
ATOM     15  S   UNL     1       2.488  13.282  18.370  0.00  0.00    +0.000 S 
ATOM     16  H   UNL     1       2.370  15.732  19.259  0.00  0.00    +0.000 HD
ENDROOT
BRANCH   1  23
ATOM     17  C   UNL     1       2.427  16.898  21.969  0.00  0.00    +0.000 C 
ATOM     18  C   UNL     1       1.042  17.009  21.381  0.00  0.00    +0.000 A 
ATOM     19  C   UNL     1       0.122  17.850  22.036  0.00  0.00    +0.000 A 
ATOM     20  C   UNL     1      -1.169  18.022  21.545  0.00  0.00    +0.000 A 
ATOM     21  C   UNL     1      -1.556  17.349  20.399  0.00  0.00    +0.000 A 
ATOM     22  C   UNL     1      -0.658  16.486  19.756  0.00  0.00    +0.000 A 
ATOM     23  C   UNL     1       0.642  16.282  20.238  0.00  0.00    +0.000 A 
ENDBRANCH   1  23
BRANCH  10  24
ATOM     24  C   UNL     1       3.162   6.161  18.918  0.00  0.00    +0.000 C 
ATOM     25  O   UNL     1       3.799   5.600  19.818  0.00  0.00    +0.000 OA
ATOM     26  N   UNL     1       3.208   5.754  17.610  0.00  0.00    +0.000 N 
ATOM     27  H   UNL     1       2.772   6.301  16.884  0.00  0.00    +0.000 HD
BRANCH  26  28
ATOM     28  C   UNL     1       3.957   4.584  17.170  0.00  0.00    +0.000 C 
BRANCH  28  29
ATOM     29  C   UNL     1       5.258   4.958  16.413  0.00  0.00    +0.000 C 
ATOM     30  C   UNL     1       5.873   3.678  15.808  0.00  0.00    +0.000 C 
BRANCH  29  31
ATOM     31  C   UNL     1       6.294   5.762  17.205  0.00  0.00    +0.000 A 
ATOM     32  C   UNL     1       6.735   7.036  16.813  0.00  0.00    +0.000 A 
ATOM     33  C   UNL     1       7.682   7.737  17.564  0.00  0.00    +0.000 A 
ATOM     34  C   UNL     1       8.223   7.172  18.714  0.00  0.00    +0.000 A 
ATOM     35  C   UNL     1       7.826   5.899  19.107  0.00  0.00    +0.000 A 
ATOM     36  C   UNL     1       6.876   5.201  18.357  0.00  0.00    +0.000 A 
ENDBRANCH  29  31
ENDBRANCH  28  29
ENDBRANCH  26  28
ENDBRANCH  10  24
TORSDOF 5
ENDMDL
MODEL 2
REMARK VINA RESULT:      -8.5      4.297     10.965
REMARK  Name = 
REMARK  7 active torsions:
REMARK  status: ('A' for Active; 'I' for Inactive)
REMARK    1  A    between atoms: C_1  and  C_2
REMARK    2  A    between atoms: C_7  and  N_8
REMARK    3  A    between atoms: C_17  and  C_18
REMARK    4  A    between atoms: N_20  and  C_21
REMARK    5  A    between atoms: C_21  and  C_22
REMARK    6  A    between atoms: C_22  and  C_23
REMARK    7  A    between atoms: C_22  and  C_24
REMARK                            x       y       z     vdW  Elec       q    Type
REMARK                         _______ _______ _______ _____ _____    ______ ____
ROOT
ATOM      1  N   UNL     1       2.359   7.035  18.077  0.00  0.00    +0.000 N 
ATOM      2  C   UNL     1       1.897   8.009  18.908  0.00  0.00    +0.000 A 
ATOM      3  N   UNL     1       1.916   8.085  20.200  0.00  0.00    +0.000 NA
ATOM      4  N   UNL     1       1.297   9.232  20.599  0.00  0.00    +0.000 N 
ATOM      5  C   UNL     1       1.109   9.541  21.928  0.00  0.00    +0.000 A 
ATOM      6  O   UNL     1       1.663   9.053  22.904  0.00  0.00    +0.000 OA
ATOM      7  C   UNL     1       0.099  10.598  22.092  0.00  0.00    +0.000 A 
ATOM      8  C   UNL     1      -0.931  10.478  23.016  0.00  0.00    +0.000 A 
ATOM      9  C   UNL     1      -1.965  11.421  22.986  0.00  0.00    +0.000 A 
ATOM     10  C   UNL     1      -1.879  12.551  22.153  0.00  0.00    +0.000 A 
ATOM     11  C   UNL     1      -0.820  12.652  21.248  0.00  0.00    +0.000 A 
ATOM     12  C   UNL     1       0.040  11.574  21.094  0.00  0.00    +0.000 A 
ATOM     13  N   UNL     1       0.472  11.298  19.782  0.00  0.00    +0.000 NA
ATOM     14  C   UNL     1       0.936  10.106  19.607  0.00  0.00    +0.000 A 
ATOM     15  S   UNL     1       1.141   9.357  18.068  0.00  0.00    +0.000 S 
ATOM     16  H   UNL     1       2.026   7.090  17.126  0.00  0.00    +0.000 HD
ENDROOT
BRANCH   1  23
ATOM     17  C   UNL     1       1.433   4.272  17.746  0.00  0.00    +0.000 C 
ATOM     18  C   UNL     1       2.805   4.640  18.254  0.00  0.00    +0.000 A 
ATOM     19  C   UNL     1       3.653   3.591  18.655  0.00  0.00    +0.000 A 
ATOM     20  C   UNL     1       4.941   3.846  19.118  0.00  0.00    +0.000 A 
ATOM     21  C   UNL     1       5.391   5.153  19.189  0.00  0.00    +0.000 A 
ATOM     22  C   UNL     1       4.545   6.207  18.821  0.00  0.00    +0.000 A 
ATOM     23  C   UNL     1       3.238   5.979  18.368  0.00  0.00    +0.000 A 
ENDBRANCH   1  23
BRANCH  10  24
ATOM     24  C   UNL     1      -2.969  13.563  22.178  0.00  0.00    +0.000 C 
ATOM     25  O   UNL     1      -2.706  14.747  22.421  0.00  0.00    +0.000 OA
ATOM     26  N   UNL     1      -4.244  13.116  21.945  0.00  0.00    +0.000 N 
ATOM     27  H   UNL     1      -4.438  12.130  21.866  0.00  0.00    +0.000 HD
BRANCH  26  28
ATOM     28  C   UNL     1      -5.398  14.005  21.898  0.00  0.00    +0.000 C 
BRANCH  28  29
ATOM     29  C   UNL     1      -6.738  13.235  21.782  0.00  0.00    +0.000 C 
ATOM     30  C   UNL     1      -7.159  12.745  23.184  0.00  0.00    +0.000 C 
BRANCH  29  31
ATOM     31  C   UNL     1      -6.780  12.101  20.753  0.00  0.00    +0.000 A 
ATOM     32  C   UNL     1      -6.325  12.251  19.432  0.00  0.00    +0.000 A 
ATOM     33  C   UNL     1      -6.380  11.190  18.523  0.00  0.00    +0.000 A 
ATOM     34  C   UNL     1      -6.909   9.963  18.908  0.00  0.00    +0.000 A 
ATOM     35  C   UNL     1      -7.396   9.799  20.200  0.00  0.00    +0.000 A 
ATOM     36  C   UNL     1      -7.336  10.859  21.109  0.00  0.00    +0.000 A 
ENDBRANCH  29  31
ENDBRANCH  28  29
ENDBRANCH  26  28
ENDBRANCH  10  24
TORSDOF 5
ENDMDL
MODEL 3
REMARK VINA RESULT:      -8.4      4.266     10.881
REMARK  Name = 
REMARK  7 active torsions:
REMARK  status: ('A' for Active; 'I' for Inactive)
REMARK    1  A    between atoms: C_1  and  C_2
REMARK    2  A    between atoms: C_7  and  N_8
REMARK    3  A    between atoms: C_17  and  C_18
REMARK    4  A    between atoms: N_20  and  C_21
REMARK    5  A    between atoms: C_21  and  C_22
REMARK    6  A    between atoms: C_22  and  C_23
REMARK    7  A    between atoms: C_22  and  C_24
REMARK                            x       y       z     vdW  Elec       q    Type
REMARK                         _______ _______ _______ _____ _____    ______ ____
ROOT
ATOM      1  N   UNL     1       2.299   7.155  18.086  0.00  0.00    +0.000 N 
ATOM      2  C   UNL     1       1.810   8.130  18.899  0.00  0.00    +0.000 A 
ATOM      3  N   UNL     1       1.873   8.257  20.186  0.00  0.00    +0.000 NA
ATOM      4  N   UNL     1       1.201   9.380  20.568  0.00  0.00    +0.000 N 
ATOM      5  C   UNL     1       1.045   9.728  21.891  0.00  0.00    +0.000 A 
ATOM      6  O   UNL     1       1.664   9.312  22.862  0.00  0.00    +0.000 OA
ATOM      7  C   UNL     1      -0.021  10.728  22.057  0.00  0.00    +0.000 A 
ATOM      8  C   UNL     1      -1.006  10.583  23.026  0.00  0.00    +0.000 A 
ATOM      9  C   UNL     1      -2.096  11.461  23.003  0.00  0.00    +0.000 A 
ATOM     10  C   UNL     1      -2.110  12.561  22.127  0.00  0.00    +0.000 A 
ATOM     11  C   UNL     1      -1.094  12.690  21.177  0.00  0.00    +0.000 A 
ATOM     12  C   UNL     1      -0.177  11.660  21.028  0.00  0.00    +0.000 A 
ATOM     13  N   UNL     1       0.221  11.360  19.710  0.00  0.00    +0.000 NA
ATOM     14  C   UNL     1       0.750  10.192  19.560  0.00  0.00    +0.000 A 
ATOM     15  S   UNL     1       0.942   9.398  18.042  0.00  0.00    +0.000 S 
ATOM     16  H   UNL     1       1.927   7.153  17.148  0.00  0.00    +0.000 HD
ENDROOT
BRANCH   1  23
ATOM     17  C   UNL     1       1.434   4.693  19.426  0.00  0.00    +0.000 C 
ATOM     18  C   UNL     1       2.868   4.987  19.059  0.00  0.00    +0.000 A 
ATOM     19  C   UNL     1       3.844   4.052  19.449  0.00  0.00    +0.000 A 
ATOM     20  C   UNL     1       5.187   4.241  19.132  0.00  0.00    +0.000 A 
ATOM     21  C   UNL     1       5.566   5.370  18.426  0.00  0.00    +0.000 A 
ATOM     22  C   UNL     1       4.606   6.322  18.058  0.00  0.00    +0.000 A 
ATOM     23  C   UNL     1       3.251   6.165  18.380  0.00  0.00    +0.000 A 
ENDBRANCH   1  23
BRANCH  10  24
ATOM     24  C   UNL     1      -3.258  13.507  22.158  0.00  0.00    +0.000 C 
ATOM     25  O   UNL     1      -3.093  14.689  21.833  0.00  0.00    +0.000 OA
ATOM     26  N   UNL     1      -4.465  13.013  22.578  0.00  0.00    +0.000 N 
ATOM     27  H   UNL     1      -4.539  12.077  22.946  0.00  0.00    +0.000 HD
BRANCH  26  28
ATOM     28  C   UNL     1      -5.680  13.816  22.617  0.00  0.00    +0.000 C 
BRANCH  28  29
ATOM     29  C   UNL     1      -6.904  13.075  22.021  0.00  0.00    +0.000 C 
ATOM     30  C   UNL     1      -7.484  12.123  23.090  0.00  0.00    +0.000 C 
BRANCH  29  31
ATOM     31  C   UNL     1      -6.676  12.355  20.689  0.00  0.00    +0.000 A 
ATOM     32  C   UNL     1      -7.052  11.019  20.468  0.00  0.00    +0.000 A 
ATOM     33  C   UNL     1      -6.827  10.398  19.236  0.00  0.00    +0.000 A 
ATOM     34  C   UNL     1      -6.205  11.092  18.204  0.00  0.00    +0.000 A 
ATOM     35  C   UNL     1      -5.795  12.405  18.407  0.00  0.00    +0.000 A 
ATOM     36  C   UNL     1      -6.024  13.026  19.638  0.00  0.00    +0.000 A 
ENDBRANCH  29  31
ENDBRANCH  28  29
ENDBRANCH  26  28
ENDBRANCH  10  24
TORSDOF 5
ENDMDL
MODEL 4
REMARK VINA RESULT:      -8.4      4.273     10.911
REMARK  Name = 
REMARK  7 active torsions:
REMARK  status: ('A' for Active; 'I' for Inactive)
REMARK    1  A    between atoms: C_1  and  C_2
REMARK    2  A    between atoms: C_7  and  N_8
REMARK    3  A    between atoms: C_17  and  C_18
REMARK    4  A    between atoms: N_20  and  C_21
REMARK    5  A    between atoms: C_21  and  C_22
REMARK    6  A    between atoms: C_22  and  C_23
REMARK    7  A    between atoms: C_22  and  C_24
REMARK                            x       y       z     vdW  Elec       q    Type
REMARK                         _______ _______ _______ _____ _____    ______ ____
ROOT
ATOM      1  N   UNL     1       2.236   7.133  18.200  0.00  0.00    +0.000 N 
ATOM      2  C   UNL     1       1.760   8.117  19.010  0.00  0.00    +0.000 A 
ATOM      3  N   UNL     1       1.787   8.226  20.299  0.00  0.00    +0.000 NA
ATOM      4  N   UNL     1       1.146   9.369  20.675  0.00  0.00    +0.000 N 
ATOM      5  C   UNL     1       0.961   9.707  21.997  0.00  0.00    +0.000 A 
ATOM      6  O   UNL     1       1.534   9.255  22.981  0.00  0.00    +0.000 OA
ATOM      7  C   UNL     1      -0.069  10.746  22.143  0.00  0.00    +0.000 A 
ATOM      8  C   UNL     1      -1.090  10.628  23.078  0.00  0.00    +0.000 A 
ATOM      9  C   UNL     1      -2.144  11.547  23.033  0.00  0.00    +0.000 A 
ATOM     10  C   UNL     1      -2.088  12.658  22.171  0.00  0.00    +0.000 A 
ATOM     11  C   UNL     1      -1.038  12.758  21.256  0.00  0.00    +0.000 A 
ATOM     12  C   UNL     1      -0.157  11.696  21.122  0.00  0.00    +0.000 A 
ATOM     13  N   UNL     1       0.271  11.396  19.814  0.00  0.00    +0.000 NA
ATOM     14  C   UNL     1       0.760  10.210  19.665  0.00  0.00    +0.000 A 
ATOM     15  S   UNL     1       0.969   9.428  18.143  0.00  0.00    +0.000 S 
ATOM     16  H   UNL     1       1.895   7.158  17.250  0.00  0.00    +0.000 HD
ENDROOT
BRANCH   1  23
ATOM     17  C   UNL     1       4.800   7.007  16.782  0.00  0.00    +0.000 C 
ATOM     18  C   UNL     1       4.365   5.998  17.815  0.00  0.00    +0.000 A 
ATOM     19  C   UNL     1       5.213   4.900  18.051  0.00  0.00    +0.000 A 
ATOM     20  C   UNL     1       4.892   3.935  19.002  0.00  0.00    +0.000 A 
ATOM     21  C   UNL     1       3.716   4.055  19.721  0.00  0.00    +0.000 A 
ATOM     22  C   UNL     1       2.848   5.128  19.473  0.00  0.00    +0.000 A 
ATOM     23  C   UNL     1       3.139   6.104  18.510  0.00  0.00    +0.000 A 
ENDBRANCH   1  23
BRANCH  10  24
ATOM     24  C   UNL     1      -3.199  13.647  22.180  0.00  0.00    +0.000 C 
ATOM     25  O   UNL     1      -2.962  14.843  21.969  0.00  0.00    +0.000 OA
ATOM     26  N   UNL     1      -4.457  13.174  22.449  0.00  0.00    +0.000 N 
ATOM     27  H   UNL     1      -4.598  12.216  22.731  0.00  0.00    +0.000 HD
BRANCH  26  28
ATOM     28  C   UNL     1      -5.640  14.024  22.447  0.00  0.00    +0.000 C 
BRANCH  28  29
ATOM     29  C   UNL     1      -6.898  13.293  21.911  0.00  0.00    +0.000 C 
ATOM     30  C   UNL     1      -7.485  12.413  23.037  0.00  0.00    +0.000 C 
BRANCH  29  31
ATOM     31  C   UNL     1      -6.719  12.501  20.613  0.00  0.00    +0.000 A 
ATOM     32  C   UNL     1      -7.009  11.130  20.507  0.00  0.00    +0.000 A 
ATOM     33  C   UNL     1      -6.832  10.444  19.303  0.00  0.00    +0.000 A 
ATOM     34  C   UNL     1      -6.344  11.107  18.182  0.00  0.00    +0.000 A 
ATOM     35  C   UNL     1      -6.019  12.456  18.269  0.00  0.00    +0.000 A 
ATOM     36  C   UNL     1      -6.199  13.142  19.473  0.00  0.00    +0.000 A 
ENDBRANCH  29  31
ENDBRANCH  28  29
ENDBRANCH  26  28
ENDBRANCH  10  24
TORSDOF 5
ENDMDL
MODEL 5
REMARK VINA RESULT:      -8.3      4.089     10.921
REMARK  Name = 
REMARK  7 active torsions:
REMARK  status: ('A' for Active; 'I' for Inactive)
REMARK    1  A    between atoms: C_1  and  C_2
REMARK    2  A    between atoms: C_7  and  N_8
REMARK    3  A    between atoms: C_17  and  C_18
REMARK    4  A    between atoms: N_20  and  C_21
REMARK    5  A    between atoms: C_21  and  C_22
REMARK    6  A    between atoms: C_22  and  C_23
REMARK    7  A    between atoms: C_22  and  C_24
REMARK                            x       y       z     vdW  Elec       q    Type
REMARK                         _______ _______ _______ _____ _____    ______ ____
ROOT
ATOM      1  N   UNL     1       2.299   6.941  18.238  0.00  0.00    +0.000 N 
ATOM      2  C   UNL     1       1.838   7.966  19.004  0.00  0.00    +0.000 A 
ATOM      3  N   UNL     1       1.847   8.122  20.289  0.00  0.00    +0.000 NA
ATOM      4  N   UNL     1       1.233   9.295  20.612  0.00  0.00    +0.000 N 
ATOM      5  C   UNL     1       1.037   9.685  21.918  0.00  0.00    +0.000 A 
ATOM      6  O   UNL     1       1.581   9.255  22.927  0.00  0.00    +0.000 OA
ATOM      7  C   UNL     1       0.034  10.758  22.009  0.00  0.00    +0.000 A 
ATOM      8  C   UNL     1      -1.004  10.702  22.931  0.00  0.00    +0.000 A 
ATOM      9  C   UNL     1      -2.031  11.647  22.834  0.00  0.00    +0.000 A 
ATOM     10  C   UNL     1      -1.930  12.724  21.935  0.00  0.00    +0.000 A 
ATOM     11  C   UNL     1      -0.863  12.762  21.034  0.00  0.00    +0.000 A 
ATOM     12  C   UNL     1      -0.011  11.671  20.953  0.00  0.00    +0.000 A 
ATOM     13  N   UNL     1       0.430  11.312  19.664  0.00  0.00    +0.000 NA
ATOM     14  C   UNL     1       0.886  10.109  19.566  0.00  0.00    +0.000 A 
ATOM     15  S   UNL     1       1.097   9.266  18.077  0.00  0.00    +0.000 S 
ATOM     16  H   UNL     1       1.973   6.940  17.282  0.00  0.00    +0.000 HD
ENDROOT
BRANCH   1  23
ATOM     17  C   UNL     1       4.995   6.863  17.087  0.00  0.00    +0.000 C 
ATOM     18  C   UNL     1       4.458   5.817  18.031  0.00  0.00    +0.000 A 
ATOM     19  C   UNL     1       5.280   4.710  18.312  0.00  0.00    +0.000 A 
ATOM     20  C   UNL     1       4.865   3.710  19.187  0.00  0.00    +0.000 A 
ATOM     21  C   UNL     1       3.621   3.805  19.786  0.00  0.00    +0.000 A 
ATOM     22  C   UNL     1       2.781   4.888  19.491  0.00  0.00    +0.000 A 
ATOM     23  C   UNL     1       3.167   5.899  18.600  0.00  0.00    +0.000 A 
ENDBRANCH   1  23
BRANCH  10  24
ATOM     24  C   UNL     1      -3.013  13.743  21.889  0.00  0.00    +0.000 C 
ATOM     25  O   UNL     1      -2.759  14.896  21.520  0.00  0.00    +0.000 OA
ATOM     26  N   UNL     1      -4.263  13.347  22.288  0.00  0.00    +0.000 N 
ATOM     27  H   UNL     1      -4.410  12.435  22.691  0.00  0.00    +0.000 HD
BRANCH  26  28
ATOM     28  C   UNL     1      -5.422  14.229  22.253  0.00  0.00    +0.000 C 
BRANCH  28  29
ATOM     29  C   UNL     1      -6.153  14.198  20.886  0.00  0.00    +0.000 C 
ATOM     30  C   UNL     1      -7.496  14.948  21.018  0.00  0.00    +0.000 C 
BRANCH  29  31
ATOM     31  C   UNL     1      -6.339  12.817  20.250  0.00  0.00    +0.000 A 
ATOM     32  C   UNL     1      -5.737  12.448  19.036  0.00  0.00    +0.000 A 
ATOM     33  C   UNL     1      -5.931  11.177  18.488  0.00  0.00    +0.000 A 
ATOM     34  C   UNL     1      -6.747  10.253  19.133  0.00  0.00    +0.000 A 
ATOM     35  C   UNL     1      -7.380  10.604  20.320  0.00  0.00    +0.000 A 
ATOM     36  C   UNL     1      -7.182  11.875  20.868  0.00  0.00    +0.000 A 
ENDBRANCH  29  31
ENDBRANCH  28  29
ENDBRANCH  26  28
ENDBRANCH  10  24
TORSDOF 5
ENDMDL
MODEL 6
REMARK VINA RESULT:      -8.3      4.260     10.983
REMARK  Name = 
REMARK  7 active torsions:
REMARK  status: ('A' for Active; 'I' for Inactive)
REMARK    1  A    between atoms: C_1  and  C_2
REMARK    2  A    between atoms: C_7  and  N_8
REMARK    3  A    between atoms: C_17  and  C_18
REMARK    4  A    between atoms: N_20  and  C_21
REMARK    5  A    between atoms: C_21  and  C_22
REMARK    6  A    between atoms: C_22  and  C_23
REMARK    7  A    between atoms: C_22  and  C_24
REMARK                            x       y       z     vdW  Elec       q    Type
REMARK                         _______ _______ _______ _____ _____    ______ ____
ROOT
ATOM      1  N   UNL     1       2.326   7.114  18.092  0.00  0.00    +0.000 N 
ATOM      2  C   UNL     1       1.842   8.090  18.908  0.00  0.00    +0.000 A 
ATOM      3  N   UNL     1       1.900   8.210  20.196  0.00  0.00    +0.000 NA
ATOM      4  N   UNL     1       1.236   9.336  20.580  0.00  0.00    +0.000 N 
ATOM      5  C   UNL     1       1.076   9.678  21.904  0.00  0.00    +0.000 A 
ATOM      6  O   UNL     1       1.686   9.251  22.876  0.00  0.00    +0.000 OA
ATOM      7  C   UNL     1       0.019  10.688  22.071  0.00  0.00    +0.000 A 
ATOM      8  C   UNL     1      -0.973  10.547  23.033  0.00  0.00    +0.000 A 
ATOM      9  C   UNL     1      -2.055  11.435  23.009  0.00  0.00    +0.000 A 
ATOM     10  C   UNL     1      -2.054  12.540  22.139  0.00  0.00    +0.000 A 
ATOM     11  C   UNL     1      -1.031  12.665  21.196  0.00  0.00    +0.000 A 
ATOM     12  C   UNL     1      -0.123  11.627  21.046  0.00  0.00    +0.000 A 
ATOM     13  N   UNL     1       0.280  11.330  19.728  0.00  0.00    +0.000 NA
ATOM     14  C   UNL     1       0.798  10.158  19.575  0.00  0.00    +0.000 A 
ATOM     15  S   UNL     1       0.990   9.371  18.053  0.00  0.00    +0.000 S 
ATOM     16  H   UNL     1       1.960   7.122  17.152  0.00  0.00    +0.000 HD
ENDROOT
BRANCH   1  23
ATOM     17  C   UNL     1       1.399   4.560  19.195  0.00  0.00    +0.000 C 
ATOM     18  C   UNL     1       2.851   4.889  18.953  0.00  0.00    +0.000 A 
ATOM     19  C   UNL     1       3.809   3.937  19.349  0.00  0.00    +0.000 A 
ATOM     20  C   UNL     1       5.168   4.158  19.143  0.00  0.00    +0.000 A 
ATOM     21  C   UNL     1       5.583   5.335  18.544  0.00  0.00    +0.000 A 
ATOM     22  C   UNL     1       4.640   6.304  18.174  0.00  0.00    +0.000 A 
ATOM     23  C   UNL     1       3.267   6.114  18.386  0.00  0.00    +0.000 A 
ENDBRANCH   1  23
BRANCH  10  24
ATOM     24  C   UNL     1      -3.192  13.497  22.170  0.00  0.00    +0.000 C 
ATOM     25  O   UNL     1      -3.265  14.341  23.071  0.00  0.00    +0.000 OA
ATOM     26  N   UNL     1      -4.138  13.376  21.185  0.00  0.00    +0.000 N 
ATOM     27  H   UNL     1      -4.111  12.606  20.536  0.00  0.00    +0.000 HD
BRANCH  26  28
ATOM     28  C   UNL     1      -5.281  14.273  21.071  0.00  0.00    +0.000 C 
BRANCH  28  29
ATOM     29  C   UNL     1      -6.281  13.827  19.973  0.00  0.00    +0.000 C 
ATOM     30  C   UNL     1      -7.477  14.804  19.957  0.00  0.00    +0.000 C 
BRANCH  29  31
ATOM     31  C   UNL     1      -6.746  12.369  20.033  0.00  0.00    +0.000 A 
ATOM     32  C   UNL     1      -7.512  11.854  21.093  0.00  0.00    +0.000 A 
ATOM     33  C   UNL     1      -7.916  10.516  21.109  0.00  0.00    +0.000 A 
ATOM     34  C   UNL     1      -7.548   9.659  20.078  0.00  0.00    +0.000 A 
ATOM     35  C   UNL     1      -6.764  10.136  19.034  0.00  0.00    +0.000 A 
ATOM     36  C   UNL     1      -6.363  11.475  19.016  0.00  0.00    +0.000 A 
ENDBRANCH  29  31
ENDBRANCH  28  29
ENDBRANCH  26  28
ENDBRANCH  10  24
TORSDOF 5
ENDMDL
MODEL 7
REMARK VINA RESULT:      -8.0      3.906     11.571
REMARK  Name = 
REMARK  7 active torsions:
REMARK  status: ('A' for Active; 'I' for Inactive)
REMARK    1  A    between atoms: C_1  and  C_2
REMARK    2  A    between atoms: C_7  and  N_8
REMARK    3  A    between atoms: C_17  and  C_18
REMARK    4  A    between atoms: N_20  and  C_21
REMARK    5  A    between atoms: C_21  and  C_22
REMARK    6  A    between atoms: C_22  and  C_23
REMARK    7  A    between atoms: C_22  and  C_24
REMARK                            x       y       z     vdW  Elec       q    Type
REMARK                         _______ _______ _______ _____ _____    ______ ____
ROOT
ATOM      1  N   UNL     1       2.391   6.955  18.045  0.00  0.00    +0.000 N 
ATOM      2  C   UNL     1       1.952   7.982  18.822  0.00  0.00    +0.000 A 
ATOM      3  N   UNL     1       1.918   8.102  20.110  0.00  0.00    +0.000 NA
ATOM      4  N   UNL     1       1.351   9.296  20.443  0.00  0.00    +0.000 N 
ATOM      5  C   UNL     1       1.123   9.661  21.752  0.00  0.00    +0.000 A 
ATOM      6  O   UNL     1       1.604   9.176  22.768  0.00  0.00    +0.000 OA
ATOM      7  C   UNL     1       0.172  10.780  21.835  0.00  0.00    +0.000 A 
ATOM      8  C   UNL     1      -0.903  10.753  22.714  0.00  0.00    +0.000 A 
ATOM      9  C   UNL     1      -1.877  11.752  22.606  0.00  0.00    +0.000 A 
ATOM     10  C   UNL     1      -1.687  12.846  21.742  0.00  0.00    +0.000 A 
ATOM     11  C   UNL     1      -0.585  12.853  20.884  0.00  0.00    +0.000 A 
ATOM     12  C   UNL     1       0.215  11.723  20.805  0.00  0.00    +0.000 A 
ATOM     13  N   UNL     1       0.687  11.376  19.523  0.00  0.00    +0.000 NA
ATOM     14  C   UNL     1       1.087  10.155  19.409  0.00  0.00    +0.000 A 
ATOM     15  S   UNL     1       1.314   9.342  17.905  0.00  0.00    +0.000 S 
ATOM     16  H   UNL     1       2.104   6.996  17.078  0.00  0.00    +0.000 HD
ENDROOT
BRANCH   1  23
ATOM     17  C   UNL     1       1.309   4.242  17.783  0.00  0.00    +0.000 C 
ATOM     18  C   UNL     1       2.681   4.546  18.330  0.00  0.00    +0.000 A 
ATOM     19  C   UNL     1       3.448   3.465  18.803  0.00  0.00    +0.000 A 
ATOM     20  C   UNL     1       4.731   3.660  19.306  0.00  0.00    +0.000 A 
ATOM     21  C   UNL     1       5.258   4.940  19.345  0.00  0.00    +0.000 A 
ATOM     22  C   UNL     1       4.493   6.027  18.904  0.00  0.00    +0.000 A 
ATOM     23  C   UNL     1       3.192   5.861  18.410  0.00  0.00    +0.000 A 
ENDBRANCH   1  23
BRANCH  10  24
ATOM     24  C   UNL     1      -2.714  13.919  21.684  0.00  0.00    +0.000 C 
ATOM     25  O   UNL     1      -3.656  13.830  20.887  0.00  0.00    +0.000 OA
ATOM     26  N   UNL     1      -2.549  14.990  22.523  0.00  0.00    +0.000 N 
ATOM     27  H   UNL     1      -1.711  15.087  23.076  0.00  0.00    +0.000 HD
BRANCH  26  28
ATOM     28  C   UNL     1      -3.502  16.090  22.601  0.00  0.00    +0.000 C 
BRANCH  28  29
ATOM     29  C   UNL     1      -4.382  16.027  23.876  0.00  0.00    +0.000 C 
ATOM     30  C   UNL     1      -3.470  15.834  25.107  0.00  0.00    +0.000 C 
BRANCH  29  31
ATOM     31  C   UNL     1      -5.527  15.010  23.858  0.00  0.00    +0.000 A 
ATOM     32  C   UNL     1      -5.327  13.631  24.036  0.00  0.00    +0.000 A 
ATOM     33  C   UNL     1      -6.399  12.735  24.013  0.00  0.00    +0.000 A 
ATOM     34  C   UNL     1      -7.693  13.196  23.793  0.00  0.00    +0.000 A 
ATOM     35  C   UNL     1      -7.914  14.552  23.583  0.00  0.00    +0.000 A 
ATOM     36  C   UNL     1      -6.841  15.447  23.610  0.00  0.00    +0.000 A 
ENDBRANCH  29  31
ENDBRANCH  28  29
ENDBRANCH  26  28
ENDBRANCH  10  24
TORSDOF 5
ENDMDL
MODEL 8
REMARK VINA RESULT:      -8.0      1.122      1.966
REMARK  Name = 
REMARK  7 active torsions:
REMARK  status: ('A' for Active; 'I' for Inactive)
REMARK    1  A    between atoms: C_1  and  C_2
REMARK    2  A    between atoms: C_7  and  N_8
REMARK    3  A    between atoms: C_17  and  C_18
REMARK    4  A    between atoms: N_20  and  C_21
REMARK    5  A    between atoms: C_21  and  C_22
REMARK    6  A    between atoms: C_22  and  C_23
REMARK    7  A    between atoms: C_22  and  C_24
REMARK                            x       y       z     vdW  Elec       q    Type
REMARK                         _______ _______ _______ _____ _____    ______ ____
ROOT
ATOM      1  N   UNL     1       2.121  15.057  19.048  0.00  0.00    +0.000 N 
ATOM      2  C   UNL     1       1.862  13.721  19.014  0.00  0.00    +0.000 A 
ATOM      3  N   UNL     1       0.992  13.020  19.667  0.00  0.00    +0.000 NA
ATOM      4  N   UNL     1       1.125  11.704  19.337  0.00  0.00    +0.000 N 
ATOM      5  C   UNL     1       0.372  10.718  19.935  0.00  0.00    +0.000 A 
ATOM      6  O   UNL     1      -0.659  10.841  20.585  0.00  0.00    +0.000 OA
ATOM      7  C   UNL     1       0.958   9.388  19.707  0.00  0.00    +0.000 A 
ATOM      8  C   UNL     1       1.128   8.484  20.748  0.00  0.00    +0.000 A 
ATOM      9  C   UNL     1       1.868   7.321  20.505  0.00  0.00    +0.000 A 
ATOM     10  C   UNL     1       2.285   6.998  19.201  0.00  0.00    +0.000 A 
ATOM     11  C   UNL     1       2.081   7.920  18.172  0.00  0.00    +0.000 A 
ATOM     12  C   UNL     1       1.602   9.183  18.484  0.00  0.00    +0.000 A 
ATOM     13  N   UNL     1       2.159  10.261  17.768  0.00  0.00    +0.000 NA
ATOM     14  C   UNL     1       1.997  11.416  18.320  0.00  0.00    +0.000 A 
ATOM     15  S   UNL     1       2.903  12.825  17.913  0.00  0.00    +0.000 S 
ATOM     16  H   UNL     1       2.995  15.334  18.625  0.00  0.00    +0.000 HD
ENDROOT
BRANCH   1  23
ATOM     17  C   UNL     1       2.543  15.880  21.830  0.00  0.00    +0.000 C 
ATOM     18  C   UNL     1       1.490  16.478  20.932  0.00  0.00    +0.000 A 
ATOM     19  C   UNL     1       0.621  17.433  21.492  0.00  0.00    +0.000 A 
ATOM     20  C   UNL     1      -0.366  18.045  20.724  0.00  0.00    +0.000 A 
ATOM     21  C   UNL     1      -0.496  17.704  19.388  0.00  0.00    +0.000 A 
ATOM     22  C   UNL     1       0.344  16.732  18.827  0.00  0.00    +0.000 A 
ATOM     23  C   UNL     1       1.333  16.088  19.583  0.00  0.00    +0.000 A 
ENDBRANCH   1  23
BRANCH  10  24
ATOM     24  C   UNL     1       3.025   5.730  18.963  0.00  0.00    +0.000 C 
ATOM     25  O   UNL     1       2.571   4.888  18.179  0.00  0.00    +0.000 OA
ATOM     26  N   UNL     1       4.191   5.546  19.659  0.00  0.00    +0.000 N 
ATOM     27  H   UNL     1       4.473   6.197  20.375  0.00  0.00    +0.000 HD
BRANCH  26  28
ATOM     28  C   UNL     1       5.037   4.371  19.490  0.00  0.00    +0.000 C 
BRANCH  28  29
ATOM     29  C   UNL     1       6.283   4.655  18.612  0.00  0.00    +0.000 C 
ATOM     30  C   UNL     1       7.092   5.807  19.246  0.00  0.00    +0.000 C 
BRANCH  29  31
ATOM     31  C   UNL     1       6.018   4.905  17.124  0.00  0.00    +0.000 A 
ATOM     32  C   UNL     1       5.567   6.138  16.625  0.00  0.00    +0.000 A 
ATOM     33  C   UNL     1       5.338   6.325  15.259  0.00  0.00    +0.000 A 
ATOM     34  C   UNL     1       5.537   5.279  14.364  0.00  0.00    +0.000 A 
ATOM     35  C   UNL     1       5.953   4.040  14.837  0.00  0.00    +0.000 A 
ATOM     36  C   UNL     1       6.185   3.855  16.202  0.00  0.00    +0.000 A 
ENDBRANCH  29  31
ENDBRANCH  28  29
ENDBRANCH  26  28
ENDBRANCH  10  24
TORSDOF 5
ENDMDL
MODEL 9
REMARK VINA RESULT:      -7.9      4.741      7.397
REMARK  Name = 
REMARK  7 active torsions:
REMARK  status: ('A' for Active; 'I' for Inactive)
REMARK    1  A    between atoms: C_1  and  C_2
REMARK    2  A    between atoms: C_7  and  N_8
REMARK    3  A    between atoms: C_17  and  C_18
REMARK    4  A    between atoms: N_20  and  C_21
REMARK    5  A    between atoms: C_21  and  C_22
REMARK    6  A    between atoms: C_22  and  C_23
REMARK    7  A    between atoms: C_22  and  C_24
REMARK                            x       y       z     vdW  Elec       q    Type
REMARK                         _______ _______ _______ _____ _____    ______ ____
ROOT
ATOM      1  N   UNL     1      -0.963  10.815  18.924  0.00  0.00    +0.000 N 
ATOM      2  C   UNL     1      -0.036  11.749  19.268  0.00  0.00    +0.000 A 
ATOM      3  N   UNL     1       0.244  12.890  18.727  0.00  0.00    +0.000 NA
ATOM      4  N   UNL     1       1.284  13.469  19.391  0.00  0.00    +0.000 N 
ATOM      5  C   UNL     1       1.840  14.662  18.987  0.00  0.00    +0.000 A 
ATOM      6  O   UNL     1       1.371  15.497  18.224  0.00  0.00    +0.000 OA
ATOM      7  C   UNL     1       3.159  14.872  19.604  0.00  0.00    +0.000 A 
ATOM      8  C   UNL     1       4.257  15.266  18.850  0.00  0.00    +0.000 A 
ATOM      9  C   UNL     1       5.518  15.256  19.455  0.00  0.00    +0.000 A 
ATOM     10  C   UNL     1       5.648  15.013  20.835  0.00  0.00    +0.000 A 
ATOM     11  C   UNL     1       4.521  14.638  21.570  0.00  0.00    +0.000 A 
ATOM     12  C   UNL     1       3.336  14.378  20.899  0.00  0.00    +0.000 A 
ATOM     13  N   UNL     1       2.570  13.294  21.373  0.00  0.00    +0.000 NA
ATOM     14  C   UNL     1       1.704  12.838  20.533  0.00  0.00    +0.000 A 
ATOM     15  S   UNL     1       0.940  11.298  20.662  0.00  0.00    +0.000 S 
ATOM     16  H   UNL     1      -0.839   9.909  19.352  0.00  0.00    +0.000 HD
ENDROOT
BRANCH   1  23
ATOM     17  C   UNL     1      -3.280  12.378  19.812  0.00  0.00    +0.000 C 
ATOM     18  C   UNL     1      -3.211  11.666  18.484  0.00  0.00    +0.000 A 
ATOM     19  C   UNL     1      -4.354  11.703  17.665  0.00  0.00    +0.000 A 
ATOM     20  C   UNL     1      -4.364  11.087  16.417  0.00  0.00    +0.000 A 
ATOM     21  C   UNL     1      -3.231  10.423  15.978  0.00  0.00    +0.000 A 
ATOM     22  C   UNL     1      -2.097  10.354  16.798  0.00  0.00    +0.000 A 
ATOM     23  C   UNL     1      -2.066  10.951  18.066  0.00  0.00    +0.000 A 
ENDBRANCH   1  23
BRANCH  10  24
ATOM     24  C   UNL     1       6.996  15.059  21.462  0.00  0.00    +0.000 C 
ATOM     25  O   UNL     1       7.519  16.149  21.723  0.00  0.00    +0.000 OA
ATOM     26  N   UNL     1       7.615  13.860  21.705  0.00  0.00    +0.000 N 
ATOM     27  H   UNL     1       7.213  12.997  21.375  0.00  0.00    +0.000 HD
BRANCH  26  28
ATOM     28  C   UNL     1       8.916  13.757  22.353  0.00  0.00    +0.000 C 
BRANCH  28  29
ATOM     29  C   UNL     1      10.059  13.453  21.350  0.00  0.00    +0.000 C 
ATOM     30  C   UNL     1      10.638  14.787  20.830  0.00  0.00    +0.000 C 
BRANCH  29  31
ATOM     31  C   UNL     1       9.715  12.501  20.201  0.00  0.00    +0.000 A 
ATOM     32  C   UNL     1       9.479  12.942  18.888  0.00  0.00    +0.000 A 
ATOM     33  C   UNL     1       9.168  12.040  17.867  0.00  0.00    +0.000 A 
ATOM     34  C   UNL     1       9.069  10.680  18.138  0.00  0.00    +0.000 A 
ATOM     35  C   UNL     1       9.267  10.221  19.436  0.00  0.00    +0.000 A 
ATOM     36  C   UNL     1       9.581  11.124  20.456  0.00  0.00    +0.000 A 
ENDBRANCH  29  31
ENDBRANCH  28  29
ENDBRANCH  26  28
ENDBRANCH  10  24
TORSDOF 5
ENDMDL
