MODEL 1
REMARK VINA RESULT:      -8.9      0.000      0.000
REMARK  Name = 
REMARK  5 active torsions:
REMARK  status: ('A' for Active; 'I' for Inactive)
REMARK    1  A    between atoms: C_10  and  C_11
REMARK    2  A    between atoms: C_11  and  N_12
REMARK    3  A    between atoms: N_18  and  O_19
REMARK    4  A    between atoms: O_19  and  C_20
REMARK    5  A    between atoms: C_20  and  C_21
REMARK                            x       y       z     vdW  Elec       q    Type
REMARK                         _______ _______ _______ _____ _____    ______ ____
ROOT
ATOM      1  F   UNL     1       1.665   1.148  19.293  0.00  0.00    +0.000 F 
ATOM      2  C   UNL     1       1.694   2.482  19.419  0.00  0.00    +0.000 A 
ATOM      3  C   UNL     1       0.769   3.089  20.258  0.00  0.00    +0.000 A 
ATOM      4  C   UNL     1       0.819   4.464  20.442  0.00  0.00    +0.000 A 
ATOM      5  C   UNL     1       1.782   5.219  19.766  0.00  0.00    +0.000 A 
ATOM      6  C   UNL     1       2.677   4.620  18.865  0.00  0.00    +0.000 A 
ATOM      7  C   UNL     1       2.656   3.222  18.716  0.00  0.00    +0.000 A 
ATOM      8  C   UNL     1       3.674   2.476  17.900  0.00  0.00    +0.000 C 
ATOM      9  C   UNL     1       4.420   3.369  16.920  0.00  0.00    +0.000 C 
ATOM     10  C   UNL     1       4.924   4.638  17.618  0.00  0.00    +0.000 C 
ATOM     11  C   UNL     1       3.685   5.421  18.084  0.00  0.00    +0.000 C 
ATOM     12  N   UNL     1       3.616   6.680  17.752  0.00  0.00    +0.000 NA
ENDROOT
BRANCH  10  13
ATOM     13  C   UNL     1       5.823   5.412  16.642  0.00  0.00    +0.000 C 
BRANCH  13  14
ATOM     14  N   UNL     1       6.757   6.320  17.271  0.00  0.00    +0.000 N 
ATOM     15  C   UNL     1       7.525   6.090  18.370  0.00  0.00    +0.000 A 
ATOM     16  N   UNL     1       8.240   7.155  18.639  0.00  0.00    +0.000 NA
ATOM     17  C   UNL     1       7.856   8.030  17.661  0.00  0.00    +0.000 A 
ATOM     18  N   UNL     1       6.927   7.575  16.814  0.00  0.00    +0.000 NA
ENDBRANCH  13  14
ENDBRANCH  10  13
BRANCH  12  19
ATOM     19  O   UNL     1       2.394   7.272  18.057  0.00  0.00    +0.000 OA
BRANCH  19  20
ATOM     20  C   UNL     1       2.489   8.696  17.950  0.00  0.00    +0.000 C 
BRANCH  20  21
ATOM     21  C   UNL     1       1.341   9.260  18.751  0.00  0.00    +0.000 A 
ATOM     22  C   UNL     1       0.333   9.989  18.099  0.00  0.00    +0.000 A 
ATOM     23  C   UNL     1      -0.782  10.450  18.800  0.00  0.00    +0.000 A 
ATOM     24  C   UNL     1      -0.902  10.192  20.164  0.00  0.00    +0.000 A 
ATOM     25  C   UNL     1       0.102   9.483  20.822  0.00  0.00    +0.000 A 
ATOM     26 CL   UNL     1      -0.053   9.163  22.507  0.00  0.00    +0.000 Cl
ATOM     27  C   UNL     1       1.221   9.019  20.127  0.00  0.00    +0.000 A 
ENDBRANCH  20  21
ENDBRANCH  19  20
ENDBRANCH  12  19
TORSDOF 5
ENDMDL
MODEL 2
REMARK VINA RESULT:      -8.8      1.089      1.431
REMARK  Name = 
REMARK  5 active torsions:
REMARK  status: ('A' for Active; 'I' for Inactive)
REMARK    1  A    between atoms: C_10  and  C_11
REMARK    2  A    between atoms: C_11  and  N_12
REMARK    3  A    between atoms: N_18  and  O_19
REMARK    4  A    between atoms: O_19  and  C_20
REMARK    5  A    between atoms: C_20  and  C_21
REMARK                            x       y       z     vdW  Elec       q    Type
REMARK                         _______ _______ _______ _____ _____    ______ ____
ROOT
ATOM      1  F   UNL     1       1.677   1.187  18.961  0.00  0.00    +0.000 F 
ATOM      2  C   UNL     1       1.720   2.504  19.205  0.00  0.00    +0.000 A 
ATOM      3  C   UNL     1       0.829   3.039  20.125  0.00  0.00    +0.000 A 
ATOM      4  C   UNL     1       0.896   4.391  20.429  0.00  0.00    +0.000 A 
ATOM      5  C   UNL     1       1.842   5.199  19.790  0.00  0.00    +0.000 A 
ATOM      6  C   UNL     1       2.701   4.678  18.809  0.00  0.00    +0.000 A 
ATOM      7  C   UNL     1       2.663   3.299  18.537  0.00  0.00    +0.000 A 
ATOM      8  C   UNL     1       3.648   2.624  17.623  0.00  0.00    +0.000 C 
ATOM      9  C   UNL     1       4.367   3.597  16.701  0.00  0.00    +0.000 C 
ATOM     10  C   UNL     1       4.905   4.797  17.491  0.00  0.00    +0.000 C 
ATOM     11  C   UNL     1       3.688   5.541  18.068  0.00  0.00    +0.000 C 
ATOM     12  N   UNL     1       3.618   6.824  17.851  0.00  0.00    +0.000 NA
ENDROOT
BRANCH  10  13
ATOM     13  C   UNL     1       5.776   5.650  16.557  0.00  0.00    +0.000 C 
BRANCH  13  14
ATOM     14  N   UNL     1       6.749   6.481  17.231  0.00  0.00    +0.000 N 
ATOM     15  C   UNL     1       7.500   6.161  18.319  0.00  0.00    +0.000 A 
ATOM     16  N   UNL     1       8.265   7.177  18.641  0.00  0.00    +0.000 NA
ATOM     17  C   UNL     1       7.928   8.115  17.705  0.00  0.00    +0.000 A 
ATOM     18  N   UNL     1       6.983   7.746  16.835  0.00  0.00    +0.000 NA
ENDBRANCH  13  14
ENDBRANCH  10  13
BRANCH  12  19
ATOM     19  O   UNL     1       2.412   7.393  18.251  0.00  0.00    +0.000 OA
BRANCH  19  20
ATOM     20  C   UNL     1       2.349   8.765  17.847  0.00  0.00    +0.000 C 
BRANCH  20  21
ATOM     21  C   UNL     1       1.224   9.388  18.636  0.00  0.00    +0.000 A 
ATOM     22  C   UNL     1       1.158   9.191  20.024  0.00  0.00    +0.000 A 
ATOM     23  C   UNL     1       0.178   9.823  20.790  0.00  0.00    +0.000 A 
ATOM     24  C   UNL     1      -0.754  10.656  20.176  0.00  0.00    +0.000 A 
ATOM     25  C   UNL     1      -0.707  10.844  18.796  0.00  0.00    +0.000 A 
ATOM     26 CL   UNL     1      -1.859  11.879  18.042  0.00  0.00    +0.000 Cl
ATOM     27  C   UNL     1       0.271  10.215  18.023  0.00  0.00    +0.000 A 
ENDBRANCH  20  21
ENDBRANCH  19  20
ENDBRANCH  12  19
TORSDOF 5
ENDMDL
MODEL 3
REMARK VINA RESULT:      -8.4      1.212      1.406
REMARK  Name = 
REMARK  5 active torsions:
REMARK  status: ('A' for Active; 'I' for Inactive)
REMARK    1  A    between atoms: C_10  and  C_11
REMARK    2  A    between atoms: C_11  and  N_12
REMARK    3  A    between atoms: N_18  and  O_19
REMARK    4  A    between atoms: O_19  and  C_20
REMARK    5  A    between atoms: C_20  and  C_21
REMARK                            x       y       z     vdW  Elec       q    Type
REMARK                         _______ _______ _______ _____ _____    ______ ____
ROOT
ATOM      1  F   UNL     1       1.894   1.401  19.088  0.00  0.00    +0.000 F 
ATOM      2  C   UNL     1       1.924   2.710  19.378  0.00  0.00    +0.000 A 
ATOM      3  C   UNL     1       1.069   3.191  20.360  0.00  0.00    +0.000 A 
ATOM      4  C   UNL     1       1.125   4.533  20.710  0.00  0.00    +0.000 A 
ATOM      5  C   UNL     1       2.022   5.383  20.057  0.00  0.00    +0.000 A 
ATOM      6  C   UNL     1       2.842   4.917  19.017  0.00  0.00    +0.000 A 
ATOM      7  C   UNL     1       2.818   3.548  18.696  0.00  0.00    +0.000 A 
ATOM      8  C   UNL     1       3.769   2.928  17.711  0.00  0.00    +0.000 C 
ATOM      9  C   UNL     1       4.424   3.949  16.793  0.00  0.00    +0.000 C 
ATOM     10  C   UNL     1       4.976   5.130  17.600  0.00  0.00    +0.000 C 
ATOM     11  C   UNL     1       3.775   5.827  18.262  0.00  0.00    +0.000 C 
ATOM     12  N   UNL     1       3.669   7.115  18.097  0.00  0.00    +0.000 NA
ENDROOT
BRANCH  10  13
ATOM     13  C   UNL     1       5.784   6.035  16.657  0.00  0.00    +0.000 C 
BRANCH  13  14
ATOM     14  N   UNL     1       6.793   6.839  17.311  0.00  0.00    +0.000 N 
ATOM     15  C   UNL     1       7.624   6.467  18.321  0.00  0.00    +0.000 A 
ATOM     16  N   UNL     1       8.397   7.474  18.649  0.00  0.00    +0.000 NA
ATOM     17  C   UNL     1       7.982   8.461  17.799  0.00  0.00    +0.000 A 
ATOM     18  N   UNL     1       6.981   8.130  16.978  0.00  0.00    +0.000 NA
ENDBRANCH  13  14
ENDBRANCH  10  13
BRANCH  12  19
ATOM     19  O   UNL     1       2.474   7.644  18.575  0.00  0.00    +0.000 OA
BRANCH  19  20
ATOM     20  C   UNL     1       1.817   8.398  17.552  0.00  0.00    +0.000 C 
BRANCH  20  21
ATOM     21  C   UNL     1       1.514   9.751  18.150  0.00  0.00    +0.000 A 
ATOM     22  C   UNL     1       2.418  10.809  17.965  0.00  0.00    +0.000 A 
ATOM     23  C   UNL     1       2.125  12.090  18.434  0.00  0.00    +0.000 A 
ATOM     24  C   UNL     1       0.925  12.328  19.101  0.00  0.00    +0.000 A 
ATOM     25  C   UNL     1       0.029  11.279  19.305  0.00  0.00    +0.000 A 
ATOM     26 CL   UNL     1      -1.454  11.580  20.125  0.00  0.00    +0.000 Cl
ATOM     27  C   UNL     1       0.316   9.995  18.838  0.00  0.00    +0.000 A 
ENDBRANCH  20  21
ENDBRANCH  19  20
ENDBRANCH  12  19
TORSDOF 5
ENDMDL
MODEL 4
REMARK VINA RESULT:      -8.3      2.704      5.998
REMARK  Name = 
REMARK  5 active torsions:
REMARK  status: ('A' for Active; 'I' for Inactive)
REMARK    1  A    between atoms: C_10  and  C_11
REMARK    2  A    between atoms: C_11  and  N_12
REMARK    3  A    between atoms: N_18  and  O_19
REMARK    4  A    between atoms: O_19  and  C_20
REMARK    5  A    between atoms: C_20  and  C_21
REMARK                            x       y       z     vdW  Elec       q    Type
REMARK                         _______ _______ _______ _____ _____    ______ ____
ROOT
ATOM      1  F   UNL     1       1.550   2.392  21.348  0.00  0.00    +0.000 F 
ATOM      2  C   UNL     1       2.025   2.687  20.130  0.00  0.00    +0.000 A 
ATOM      3  C   UNL     1       2.363   1.644  19.279  0.00  0.00    +0.000 A 
ATOM      4  C   UNL     1       2.806   1.931  17.995  0.00  0.00    +0.000 A 
ATOM      5  C   UNL     1       2.926   3.262  17.585  0.00  0.00    +0.000 A 
ATOM      6  C   UNL     1       2.651   4.322  18.463  0.00  0.00    +0.000 A 
ATOM      7  C   UNL     1       2.157   4.030  19.747  0.00  0.00    +0.000 A 
ATOM      8  C   UNL     1       1.684   5.094  20.698  0.00  0.00    +0.000 C 
ATOM      9  C   UNL     1       2.196   6.481  20.340  0.00  0.00    +0.000 C 
ATOM     10  C   UNL     1       1.977   6.773  18.851  0.00  0.00    +0.000 C 
ATOM     11  C   UNL     1       2.827   5.763  18.061  0.00  0.00    +0.000 C 
ATOM     12  N   UNL     1       3.621   6.242  17.145  0.00  0.00    +0.000 NA
ENDROOT
BRANCH  10  13
ATOM     13  C   UNL     1       2.335   8.241  18.579  0.00  0.00    +0.000 C 
BRANCH  13  14
ATOM     14  N   UNL     1       1.271   9.183  18.849  0.00  0.00    +0.000 N 
ATOM     15  C   UNL     1       0.886   9.675  20.058  0.00  0.00    +0.000 A 
ATOM     16  N   UNL     1      -0.119  10.501  19.897  0.00  0.00    +0.000 NA
ATOM     17  C   UNL     1      -0.321  10.470  18.545  0.00  0.00    +0.000 A 
ATOM     18  N   UNL     1       0.487   9.655  17.862  0.00  0.00    +0.000 NA
ENDBRANCH  13  14
ENDBRANCH  10  13
BRANCH  12  19
ATOM     19  O   UNL     1       4.479   5.292  16.598  0.00  0.00    +0.000 OA
BRANCH  19  20
ATOM     20  C   UNL     1       5.593   5.931  15.966  0.00  0.00    +0.000 C 
BRANCH  20  21
ATOM     21  C   UNL     1       6.537   6.332  17.074  0.00  0.00    +0.000 A 
ATOM     22  C   UNL     1       6.958   5.372  18.007  0.00  0.00    +0.000 A 
ATOM     23  C   UNL     1       7.893   5.693  18.991  0.00  0.00    +0.000 A 
ATOM     24  C   UNL     1       8.417   6.983  19.058  0.00  0.00    +0.000 A 
ATOM     25  C   UNL     1       7.991   7.947  18.146  0.00  0.00    +0.000 A 
ATOM     26 CL   UNL     1       8.644   9.538  18.230  0.00  0.00    +0.000 Cl
ATOM     27  C   UNL     1       7.055   7.633  17.159  0.00  0.00    +0.000 A 
ENDBRANCH  20  21
ENDBRANCH  19  20
ENDBRANCH  12  19
TORSDOF 5
ENDMDL
MODEL 5
REMARK VINA RESULT:      -8.2      1.400      1.648
REMARK  Name = 
REMARK  5 active torsions:
REMARK  status: ('A' for Active; 'I' for Inactive)
REMARK    1  A    between atoms: C_10  and  C_11
REMARK    2  A    between atoms: C_11  and  N_12
REMARK    3  A    between atoms: N_18  and  O_19
REMARK    4  A    between atoms: O_19  and  C_20
REMARK    5  A    between atoms: C_20  and  C_21
REMARK                            x       y       z     vdW  Elec       q    Type
REMARK                         _______ _______ _______ _____ _____    ______ ____
ROOT
ATOM      1  F   UNL     1       2.024   1.398  17.965  0.00  0.00    +0.000 F 
ATOM      2  C   UNL     1       1.963   2.634  18.480  0.00  0.00    +0.000 A 
ATOM      3  C   UNL     1       1.042   2.889  19.487  0.00  0.00    +0.000 A 
ATOM      4  C   UNL     1       1.003   4.149  20.068  0.00  0.00    +0.000 A 
ATOM      5  C   UNL     1       1.872   5.147  19.618  0.00  0.00    +0.000 A 
ATOM      6  C   UNL     1       2.759   4.916  18.554  0.00  0.00    +0.000 A 
ATOM      7  C   UNL     1       2.831   3.626  17.999  0.00  0.00    +0.000 A 
ATOM      8  C   UNL     1       3.856   3.239  16.970  0.00  0.00    +0.000 C 
ATOM      9  C   UNL     1       4.483   4.440  16.277  0.00  0.00    +0.000 C 
ATOM     10  C   UNL     1       4.931   5.487  17.303  0.00  0.00    +0.000 C 
ATOM     11  C   UNL     1       3.665   5.992  18.016  0.00  0.00    +0.000 C 
ATOM     12  N   UNL     1       3.488   7.282  18.073  0.00  0.00    +0.000 NA
ENDROOT
BRANCH  10  13
ATOM     13  C   UNL     1       5.719   6.586  16.574  0.00  0.00    +0.000 C 
BRANCH  13  14
ATOM     14  N   UNL     1       6.819   7.143  17.330  0.00  0.00    +0.000 N 
ATOM     15  C   UNL     1       7.588   6.515  18.260  0.00  0.00    +0.000 A 
ATOM     16  N   UNL     1       8.482   7.351  18.729  0.00  0.00    +0.000 NA
ATOM     17  C   UNL     1       8.205   8.503  18.047  0.00  0.00    +0.000 A 
ATOM     18  N   UNL     1       7.175   8.434  17.198  0.00  0.00    +0.000 NA
ENDBRANCH  13  14
ENDBRANCH  10  13
BRANCH  12  19
ATOM     19  O   UNL     1       2.244   7.654  18.575  0.00  0.00    +0.000 OA
BRANCH  19  20
ATOM     20  C   UNL     1       1.769   8.829  17.911  0.00  0.00    +0.000 C 
BRANCH  20  21
ATOM     21  C   UNL     1       1.193   9.720  18.985  0.00  0.00    +0.000 A 
ATOM     22  C   UNL     1       0.888   9.179  20.244  0.00  0.00    +0.000 A 
ATOM     23  C   UNL     1       0.433   9.994  21.282  0.00  0.00    +0.000 A 
ATOM     24  C   UNL     1       0.272  11.362  21.071  0.00  0.00    +0.000 A 
ATOM     25  C   UNL     1       0.557  11.905  19.819  0.00  0.00    +0.000 A 
ATOM     26 CL   UNL     1       0.361  13.597  19.565  0.00  0.00    +0.000 Cl
ATOM     27  C   UNL     1       1.012  11.095  18.776  0.00  0.00    +0.000 A 
ENDBRANCH  20  21
ENDBRANCH  19  20
ENDBRANCH  12  19
TORSDOF 5
ENDMDL
MODEL 6
REMARK VINA RESULT:      -8.0      1.878      2.479
REMARK  Name = 
REMARK  5 active torsions:
REMARK  status: ('A' for Active; 'I' for Inactive)
REMARK    1  A    between atoms: C_10  and  C_11
REMARK    2  A    between atoms: C_11  and  N_12
REMARK    3  A    between atoms: N_18  and  O_19
REMARK    4  A    between atoms: O_19  and  C_20
REMARK    5  A    between atoms: C_20  and  C_21
REMARK                            x       y       z     vdW  Elec       q    Type
REMARK                         _______ _______ _______ _____ _____    ______ ____
ROOT
ATOM      1  F   UNL     1       1.835   1.538  19.315  0.00  0.00    +0.000 F 
ATOM      2  C   UNL     1       1.905   2.857  19.547  0.00  0.00    +0.000 A 
ATOM      3  C   UNL     1       1.234   3.374  20.647  0.00  0.00    +0.000 A 
ATOM      4  C   UNL     1       1.340   4.728  20.932  0.00  0.00    +0.000 A 
ATOM      5  C   UNL     1       2.099   5.554  20.098  0.00  0.00    +0.000 A 
ATOM      6  C   UNL     1       2.724   5.051  18.946  0.00  0.00    +0.000 A 
ATOM      7  C   UNL     1       2.655   3.671  18.685  0.00  0.00    +0.000 A 
ATOM      8  C   UNL     1       3.420   3.015  17.570  0.00  0.00    +0.000 C 
ATOM      9  C   UNL     1       3.891   4.002  16.512  0.00  0.00    +0.000 C 
ATOM     10  C   UNL     1       4.568   5.214  17.163  0.00  0.00    +0.000 C 
ATOM     11  C   UNL     1       3.499   5.933  18.003  0.00  0.00    +0.000 C 
ATOM     12  N   UNL     1       3.354   7.214  17.812  0.00  0.00    +0.000 NA
ENDROOT
BRANCH  10  13
ATOM     13  C   UNL     1       5.187   6.084  16.058  0.00  0.00    +0.000 C 
BRANCH  13  14
ATOM     14  N   UNL     1       5.936   5.352  15.061  0.00  0.00    +0.000 N 
ATOM     15  C   UNL     1       5.456   4.455  14.157  0.00  0.00    +0.000 A 
ATOM     16  N   UNL     1       6.443   3.999  13.424  0.00  0.00    +0.000 NA
ATOM     17  C   UNL     1       7.528   4.654  13.937  0.00  0.00    +0.000 A 
ATOM     18  N   UNL     1       7.273   5.473  14.962  0.00  0.00    +0.000 NA
ENDBRANCH  13  14
ENDBRANCH  10  13
BRANCH  12  19
ATOM     19  O   UNL     1       2.258   7.758  18.476  0.00  0.00    +0.000 OA
BRANCH  19  20
ATOM     20  C   UNL     1       1.928   9.038  17.929  0.00  0.00    +0.000 C 
BRANCH  20  21
ATOM     21  C   UNL     1       1.095   9.743  18.972  0.00  0.00    +0.000 A 
ATOM     22  C   UNL     1       0.952   9.173  20.246  0.00  0.00    +0.000 A 
ATOM     23  C   UNL     1       0.258   9.842  21.255  0.00  0.00    +0.000 A 
ATOM     24  C   UNL     1      -0.307  11.089  21.000  0.00  0.00    +0.000 A 
ATOM     25  C   UNL     1      -0.185  11.655  19.732  0.00  0.00    +0.000 A 
ATOM     26 CL   UNL     1      -0.882  13.199  19.423  0.00  0.00    +0.000 Cl
ATOM     27  C   UNL     1       0.508  10.991  18.718  0.00  0.00    +0.000 A 
ENDBRANCH  20  21
ENDBRANCH  19  20
ENDBRANCH  12  19
TORSDOF 5
ENDMDL
MODEL 7
REMARK VINA RESULT:      -8.0      1.656      2.137
REMARK  Name = 
REMARK  5 active torsions:
REMARK  status: ('A' for Active; 'I' for Inactive)
REMARK    1  A    between atoms: C_10  and  C_11
REMARK    2  A    between atoms: C_11  and  N_12
REMARK    3  A    between atoms: N_18  and  O_19
REMARK    4  A    between atoms: O_19  and  C_20
REMARK    5  A    between atoms: C_20  and  C_21
REMARK                            x       y       z     vdW  Elec       q    Type
REMARK                         _______ _______ _______ _____ _____    ______ ____
ROOT
ATOM      1  F   UNL     1       1.710   1.424  19.298  0.00  0.00    +0.000 F 
ATOM      2  C   UNL     1       1.904   2.711  19.621  0.00  0.00    +0.000 A 
ATOM      3  C   UNL     1       1.375   3.183  20.814  0.00  0.00    +0.000 A 
ATOM      4  C   UNL     1       1.612   4.498  21.189  0.00  0.00    +0.000 A 
ATOM      5  C   UNL     1       2.359   5.333  20.354  0.00  0.00    +0.000 A 
ATOM      6  C   UNL     1       2.841   4.881  19.114  0.00  0.00    +0.000 A 
ATOM      7  C   UNL     1       2.640   3.536  18.757  0.00  0.00    +0.000 A 
ATOM      8  C   UNL     1       3.252   2.920  17.530  0.00  0.00    +0.000 C 
ATOM      9  C   UNL     1       3.707   3.954  16.511  0.00  0.00    +0.000 C 
ATOM     10  C   UNL     1       4.532   5.056  17.186  0.00  0.00    +0.000 C 
ATOM     11  C   UNL     1       3.600   5.779  18.173  0.00  0.00    +0.000 C 
ATOM     12  N   UNL     1       3.541   7.079  18.093  0.00  0.00    +0.000 NA
ENDROOT
BRANCH  10  13
ATOM     13  C   UNL     1       5.121   5.967  16.098  0.00  0.00    +0.000 C 
BRANCH  13  14
ATOM     14  N   UNL     1       5.888   5.278  15.084  0.00  0.00    +0.000 N 
ATOM     15  C   UNL     1       5.445   4.344  14.201  0.00  0.00    +0.000 A 
ATOM     16  N   UNL     1       6.438   3.948  13.442  0.00  0.00    +0.000 NA
ATOM     17  C   UNL     1       7.491   4.679  13.919  0.00  0.00    +0.000 A 
ATOM     18  N   UNL     1       7.211   5.488  14.945  0.00  0.00    +0.000 NA
ENDBRANCH  13  14
ENDBRANCH  10  13
BRANCH  12  19
ATOM     19  O   UNL     1       2.554   7.644  18.894  0.00  0.00    +0.000 OA
BRANCH  19  20
ATOM     20  C   UNL     1       1.752   8.553  18.133  0.00  0.00    +0.000 C 
BRANCH  20  21
ATOM     21  C   UNL     1       1.199   9.557  19.115  0.00  0.00    +0.000 A 
ATOM     22  C   UNL     1       1.033  10.894  18.720  0.00  0.00    +0.000 A 
ATOM     23  C   UNL     1       0.447  11.825  19.578  0.00  0.00    +0.000 A 
ATOM     24  C   UNL     1       0.024  11.432  20.846  0.00  0.00    +0.000 A 
ATOM     25  C   UNL     1       0.201  10.110  21.253  0.00  0.00    +0.000 A 
ATOM     26 CL   UNL     1      -0.328   9.629  22.819  0.00  0.00    +0.000 Cl
ATOM     27  C   UNL     1       0.787   9.173  20.399  0.00  0.00    +0.000 A 
ENDBRANCH  20  21
ENDBRANCH  19  20
ENDBRANCH  12  19
TORSDOF 5
ENDMDL
MODEL 8
REMARK VINA RESULT:      -7.9      1.209      1.799
REMARK  Name = 
REMARK  5 active torsions:
REMARK  status: ('A' for Active; 'I' for Inactive)
REMARK    1  A    between atoms: C_10  and  C_11
REMARK    2  A    between atoms: C_11  and  N_12
REMARK    3  A    between atoms: N_18  and  O_19
REMARK    4  A    between atoms: O_19  and  C_20
REMARK    5  A    between atoms: C_20  and  C_21
REMARK                            x       y       z     vdW  Elec       q    Type
REMARK                         _______ _______ _______ _____ _____    ______ ____
ROOT
ATOM      1  F   UNL     1       2.602   1.623  20.437  0.00  0.00    +0.000 F 
ATOM      2  C   UNL     1       2.340   2.925  20.256  0.00  0.00    +0.000 A 
ATOM      3  C   UNL     1       1.135   3.432  20.723  0.00  0.00    +0.000 A 
ATOM      4  C   UNL     1       0.872   4.788  20.591  0.00  0.00    +0.000 A 
ATOM      5  C   UNL     1       1.811   5.619  19.972  0.00  0.00    +0.000 A 
ATOM      6  C   UNL     1       3.002   5.102  19.438  0.00  0.00    +0.000 A 
ATOM      7  C   UNL     1       3.288   3.736  19.614  0.00  0.00    +0.000 A 
ATOM      8  C   UNL     1       4.603   3.124  19.220  0.00  0.00    +0.000 C 
ATOM      9  C   UNL     1       5.385   3.980  18.235  0.00  0.00    +0.000 C 
ATOM     10  C   UNL     1       5.444   5.437  18.710  0.00  0.00    +0.000 C 
ATOM     11  C   UNL     1       4.001   5.969  18.718  0.00  0.00    +0.000 C 
ATOM     12  N   UNL     1       3.777   7.093  18.097  0.00  0.00    +0.000 NA
ENDROOT
BRANCH  10  13
ATOM     13  C   UNL     1       6.394   6.216  17.788  0.00  0.00    +0.000 C 
BRANCH  13  14
ATOM     14  N   UNL     1       6.461   5.720  16.431  0.00  0.00    +0.000 N 
ATOM     15  C   UNL     1       5.544   5.888  15.441  0.00  0.00    +0.000 A 
ATOM     16  N   UNL     1       5.958   5.287  14.351  0.00  0.00    +0.000 NA
ATOM     17  C   UNL     1       7.152   4.748  14.740  0.00  0.00    +0.000 A 
ATOM     18  N   UNL     1       7.492   4.961  16.014  0.00  0.00    +0.000 NA
ENDBRANCH  13  14
ENDBRANCH  10  13
BRANCH  12  19
ATOM     19  O   UNL     1       2.428   7.419  18.000  0.00  0.00    +0.000 OA
BRANCH  19  20
ATOM     20  C   UNL     1       2.270   8.809  17.699  0.00  0.00    +0.000 C 
BRANCH  20  21
ATOM     21  C   UNL     1       1.245   9.340  18.671  0.00  0.00    +0.000 A 
ATOM     22  C   UNL     1       0.129  10.041  18.187  0.00  0.00    +0.000 A 
ATOM     23  C   UNL     1      -0.877  10.470  19.054  0.00  0.00    +0.000 A 
ATOM     24  C   UNL     1      -0.776  10.209  20.419  0.00  0.00    +0.000 A 
ATOM     25  C   UNL     1       0.337   9.529  20.910  0.00  0.00    +0.000 A 
ATOM     26 CL   UNL     1       0.455   9.205  22.597  0.00  0.00    +0.000 Cl
ATOM     27  C   UNL     1       1.347   9.096  20.048  0.00  0.00    +0.000 A 
ENDBRANCH  20  21
ENDBRANCH  19  20
ENDBRANCH  12  19
TORSDOF 5
ENDMDL
MODEL 9
REMARK VINA RESULT:      -7.9      2.070      2.635
REMARK  Name = 
REMARK  5 active torsions:
REMARK  status: ('A' for Active; 'I' for Inactive)
REMARK    1  A    between atoms: C_10  and  C_11
REMARK    2  A    between atoms: C_11  and  N_12
REMARK    3  A    between atoms: N_18  and  O_19
REMARK    4  A    between atoms: O_19  and  C_20
REMARK    5  A    between atoms: C_20  and  C_21
REMARK                            x       y       z     vdW  Elec       q    Type
REMARK                         _______ _______ _______ _____ _____    ______ ____
ROOT
ATOM      1  F   UNL     1       2.161   1.680  19.553  0.00  0.00    +0.000 F 
ATOM      2  C   UNL     1       2.157   3.016  19.673  0.00  0.00    +0.000 A 
ATOM      3  C   UNL     1       1.457   3.586  20.727  0.00  0.00    +0.000 A 
ATOM      4  C   UNL     1       1.486   4.963  20.896  0.00  0.00    +0.000 A 
ATOM      5  C   UNL     1       2.200   5.757  19.994  0.00  0.00    +0.000 A 
ATOM      6  C   UNL     1       2.854   5.193  18.887  0.00  0.00    +0.000 A 
ATOM      7  C   UNL     1       2.863   3.794  18.743  0.00  0.00    +0.000 A 
ATOM      8  C   UNL     1       3.666   3.090  17.686  0.00  0.00    +0.000 C 
ATOM      9  C   UNL     1       4.084   4.009  16.547  0.00  0.00    +0.000 C 
ATOM     10  C   UNL     1       4.691   5.307  17.091  0.00  0.00    +0.000 C 
ATOM     11  C   UNL     1       3.582   6.034  17.870  0.00  0.00    +0.000 C 
ATOM     12  N   UNL     1       3.366   7.284  17.572  0.00  0.00    +0.000 NA
ENDROOT
BRANCH  10  13
ATOM     13  C   UNL     1       5.263   6.113  15.916  0.00  0.00    +0.000 C 
BRANCH  13  14
ATOM     14  N   UNL     1       5.984   5.328  14.939  0.00  0.00    +0.000 N 
ATOM     15  C   UNL     1       5.476   4.405  14.079  0.00  0.00    +0.000 A 
ATOM     16  N   UNL     1       6.443   3.901  13.351  0.00  0.00    +0.000 NA
ATOM     17  C   UNL     1       7.547   4.557  13.822  0.00  0.00    +0.000 A 
ATOM     18  N   UNL     1       7.321   5.421  14.816  0.00  0.00    +0.000 NA
ENDBRANCH  13  14
ENDBRANCH  10  13
BRANCH  12  19
ATOM     19  O   UNL     1       2.241   7.820  18.191  0.00  0.00    +0.000 OA
BRANCH  19  20
ATOM     20  C   UNL     1       2.269   9.250  18.126  0.00  0.00    +0.000 C 
BRANCH  20  21
ATOM     21  C   UNL     1       0.871   9.717  18.453  0.00  0.00    +0.000 A 
ATOM     22  C   UNL     1       0.633  10.400  19.656  0.00  0.00    +0.000 A 
ATOM     23  C   UNL     1      -0.630  10.917  19.947  0.00  0.00    +0.000 A 
ATOM     24  C   UNL     1      -1.674  10.751  19.040  0.00  0.00    +0.000 A 
ATOM     25  C   UNL     1      -1.451  10.058  17.851  0.00  0.00    +0.000 A 
ATOM     26 CL   UNL     1      -2.744   9.860  16.731  0.00  0.00    +0.000 Cl
ATOM     27  C   UNL     1      -0.189   9.539  17.553  0.00  0.00    +0.000 A 
ENDBRANCH  20  21
ENDBRANCH  19  20
ENDBRANCH  12  19
TORSDOF 5
ENDMDL
