MODEL 1
REMARK VINA RESULT:      -6.4      0.000      0.000
REMARK  Name = 
REMARK  5 active torsions:
REMARK  status: ('A' for Active; 'I' for Inactive)
REMARK    1  A    between atoms: S_2  and  N_4
REMARK    2  A    between atoms: S_2  and  N_12
REMARK    3  A    between atoms: N_4  and  C_5
REMARK    4  A    between atoms: C_5  and  C_6
REMARK    5  A    between atoms: C_6  and  C_7
REMARK                            x       y       z     vdW  Elec       q    Type
REMARK                         _______ _______ _______ _____ _____    ______ ____
ROOT
ATOM      1  N   UNL     1       5.345   3.520  18.706  0.00  0.00    +0.000 NA
ATOM      2  H   UNL     1       4.914   3.781  17.808  0.00  0.00    +0.000 HD
ENDROOT
BRANCH   1   4
ATOM      3  O   UNL     1       3.648   1.647  18.518  0.00  0.00    +0.000 OA
ATOM      4  S   UNL     1       4.274   2.493  19.498  0.00  0.00    +0.000 S 
ATOM      5  O   UNL     1       5.003   1.957  20.621  0.00  0.00    +0.000 OA
BRANCH   4   6
ATOM      6  N   UNL     1       3.162   3.600  20.089  0.00  0.00    +0.000 NA
ATOM      7  C   UNL     1       2.610   3.398  21.440  0.00  0.00    +0.000 C 
ATOM      8  C   UNL     1       1.256   2.776  21.182  0.00  0.00    +0.000 C 
ATOM      9  C   UNL     1       0.770   3.496  19.931  0.00  0.00    +0.000 C 
ATOM     10  C   UNL     1       2.030   3.995  19.217  0.00  0.00    +0.000 C 
ENDBRANCH   4   6
ENDBRANCH   1   4
BRANCH   1  11
ATOM     11  C   UNL     1       5.619   4.800  19.420  0.00  0.00    +0.000 C 
BRANCH  11  12
ATOM     12  C   UNL     1       6.553   5.683  18.581  0.00  0.00    +0.000 C 
BRANCH  12  13
ATOM     13  C   UNL     1       6.477   5.359  17.113  0.00  0.00    +0.000 A 
ATOM     14  N   UNL     1       7.338   4.584  16.478  0.00  0.00    +0.000 NA
ATOM     15  C   UNL     1       6.987   4.491  15.146  0.00  0.00    +0.000 A 
ATOM     16  C   UNL     1       5.875   5.214  14.771  0.00  0.00    +0.000 A 
ATOM     17  S   UNL     1       5.236   6.036  16.132  0.00  0.00    +0.000 S 
ENDBRANCH  12  13
ENDBRANCH  11  12
ENDBRANCH   1  11
TORSDOF 5
ENDMDL
MODEL 2
REMARK VINA RESULT:      -6.2      1.587      2.421
REMARK  Name = 
REMARK  5 active torsions:
REMARK  status: ('A' for Active; 'I' for Inactive)
REMARK    1  A    between atoms: S_2  and  N_4
REMARK    2  A    between atoms: S_2  and  N_12
REMARK    3  A    between atoms: N_4  and  C_5
REMARK    4  A    between atoms: C_5  and  C_6
REMARK    5  A    between atoms: C_6  and  C_7
REMARK                            x       y       z     vdW  Elec       q    Type
REMARK                         _______ _______ _______ _____ _____    ______ ____
ROOT
ATOM      1  N   UNL     1       4.785   3.371  17.855  0.00  0.00    +0.000 NA
ATOM      2  H   UNL     1       5.551   2.692  17.961  0.00  0.00    +0.000 HD
ENDROOT
BRANCH   1   4
ATOM      3  O   UNL     1       2.338   3.052  17.277  0.00  0.00    +0.000 OA
ATOM      4  S   UNL     1       3.347   2.560  18.177  0.00  0.00    +0.000 S 
ATOM      5  O   UNL     1       3.693   1.163  18.253  0.00  0.00    +0.000 OA
BRANCH   4   6
ATOM      6  N   UNL     1       3.030   3.097  19.734  0.00  0.00    +0.000 NA
ATOM      7  C   UNL     1       1.812   2.621  20.414  0.00  0.00    +0.000 C 
ATOM      8  C   UNL     1       0.841   3.768  20.247  0.00  0.00    +0.000 C 
ATOM      9  C   UNL     1       1.724   5.001  20.387  0.00  0.00    +0.000 C 
ATOM     10  C   UNL     1       3.140   4.548  20.015  0.00  0.00    +0.000 C 
ENDBRANCH   4   6
ENDBRANCH   1   4
BRANCH   1  11
ATOM     11  C   UNL     1       4.896   3.907  16.469  0.00  0.00    +0.000 C 
BRANCH  11  12
ATOM     12  C   UNL     1       6.361   4.235  16.146  0.00  0.00    +0.000 C 
BRANCH  12  13
ATOM     13  C   UNL     1       7.014   5.049  17.230  0.00  0.00    +0.000 A 
ATOM     14  N   UNL     1       7.503   4.542  18.348  0.00  0.00    +0.000 NA
ATOM     15  C   UNL     1       8.029   5.552  19.128  0.00  0.00    +0.000 A 
ATOM     16  C   UNL     1       7.918   6.824  18.610  0.00  0.00    +0.000 A 
ATOM     17  S   UNL     1       7.133   6.760  17.087  0.00  0.00    +0.000 S 
ENDBRANCH  12  13
ENDBRANCH  11  12
ENDBRANCH   1  11
TORSDOF 5
ENDMDL
MODEL 3
REMARK VINA RESULT:      -6.2      1.752      2.447
REMARK  Name = 
REMARK  5 active torsions:
REMARK  status: ('A' for Active; 'I' for Inactive)
REMARK    1  A    between atoms: S_2  and  N_4
REMARK    2  A    between atoms: S_2  and  N_12
REMARK    3  A    between atoms: N_4  and  C_5
REMARK    4  A    between atoms: C_5  and  C_6
REMARK    5  A    between atoms: C_6  and  C_7
REMARK                            x       y       z     vdW  Elec       q    Type
REMARK                         _______ _______ _______ _____ _____    ______ ____
ROOT
ATOM      1  N   UNL     1       4.684   3.161  17.472  0.00  0.00    +0.000 NA
ATOM      2  H   UNL     1       5.188   2.391  17.011  0.00  0.00    +0.000 HD
ENDROOT
BRANCH   1   4
ATOM      3  O   UNL     1       2.191   2.851  17.140  0.00  0.00    +0.000 OA
ATOM      4  S   UNL     1       3.242   2.534  18.069  0.00  0.00    +0.000 S 
ATOM      5  O   UNL     1       3.537   1.179  18.462  0.00  0.00    +0.000 OA
BRANCH   4   6
ATOM      6  N   UNL     1       3.061   3.446  19.465  0.00  0.00    +0.000 NA
ATOM      7  C   UNL     1       2.924   2.747  20.755  0.00  0.00    +0.000 C 
ATOM      8  C   UNL     1       1.436   2.776  21.019  0.00  0.00    +0.000 C 
ATOM      9  C   UNL     1       1.012   4.145  20.500  0.00  0.00    +0.000 C 
ATOM     10  C   UNL     1       2.068   4.546  19.464  0.00  0.00    +0.000 C 
ENDBRANCH   4   6
ENDBRANCH   1   4
BRANCH   1  11
ATOM     11  C   UNL     1       4.517   4.223  16.439  0.00  0.00    +0.000 C 
BRANCH  11  12
ATOM     12  C   UNL     1       4.576   5.611  17.093  0.00  0.00    +0.000 C 
BRANCH  12  13
ATOM     13  C   UNL     1       5.833   5.807  17.897  0.00  0.00    +0.000 A 
ATOM     14  N   UNL     1       6.028   5.310  19.105  0.00  0.00    +0.000 NA
ATOM     15  C   UNL     1       7.278   5.673  19.564  0.00  0.00    +0.000 A 
ATOM     16  C   UNL     1       8.017   6.465  18.712  0.00  0.00    +0.000 A 
ATOM     17  S   UNL     1       7.125   6.762  17.280  0.00  0.00    +0.000 S 
ENDBRANCH  12  13
ENDBRANCH  11  12
ENDBRANCH   1  11
TORSDOF 5
ENDMDL
MODEL 4
REMARK VINA RESULT:      -6.1      1.700      2.371
REMARK  Name = 
REMARK  5 active torsions:
REMARK  status: ('A' for Active; 'I' for Inactive)
REMARK    1  A    between atoms: S_2  and  N_4
REMARK    2  A    between atoms: S_2  and  N_12
REMARK    3  A    between atoms: N_4  and  C_5
REMARK    4  A    between atoms: C_5  and  C_6
REMARK    5  A    between atoms: C_6  and  C_7
REMARK                            x       y       z     vdW  Elec       q    Type
REMARK                         _______ _______ _______ _____ _____    ______ ____
ROOT
ATOM      1  N   UNL     1       4.737   3.236  17.618  0.00  0.00    +0.000 NA
ATOM      2  H   UNL     1       5.317   2.452  17.288  0.00  0.00    +0.000 HD
ENDROOT
BRANCH   1   4
ATOM      3  O   UNL     1       2.252   2.951  17.209  0.00  0.00    +0.000 OA
ATOM      4  S   UNL     1       3.278   2.593  18.151  0.00  0.00    +0.000 S 
ATOM      5  O   UNL     1       3.557   1.221  18.497  0.00  0.00    +0.000 OA
BRANCH   4   6
ATOM      6  N   UNL     1       3.064   3.449  19.577  0.00  0.00    +0.000 NA
ATOM      7  C   UNL     1       2.805   2.702  20.821  0.00  0.00    +0.000 C 
ATOM      8  C   UNL     1       1.307   2.813  20.996  0.00  0.00    +0.000 C 
ATOM      9  C   UNL     1       0.999   4.227  20.521  0.00  0.00    +0.000 C 
ATOM     10  C   UNL     1       2.140   4.608  19.571  0.00  0.00    +0.000 C 
ENDBRANCH   4   6
ENDBRANCH   1   4
BRANCH   1  11
ATOM     11  C   UNL     1       4.616   4.173  16.465  0.00  0.00    +0.000 C 
BRANCH  11  12
ATOM     12  C   UNL     1       6.009   4.536  15.931  0.00  0.00    +0.000 C 
BRANCH  12  13
ATOM     13  C   UNL     1       6.679   5.597  16.763  0.00  0.00    +0.000 A 
ATOM     14  N   UNL     1       6.663   6.886  16.477  0.00  0.00    +0.000 NA
ATOM     15  C   UNL     1       7.368   7.586  17.435  0.00  0.00    +0.000 A 
ATOM     16  C   UNL     1       7.936   6.822  18.432  0.00  0.00    +0.000 A 
ATOM     17  S   UNL     1       7.571   5.168  18.170  0.00  0.00    +0.000 S 
ENDBRANCH  12  13
ENDBRANCH  11  12
ENDBRANCH   1  11
TORSDOF 5
ENDMDL
MODEL 5
REMARK VINA RESULT:      -6.0      2.073      2.590
REMARK  Name = 
REMARK  5 active torsions:
REMARK  status: ('A' for Active; 'I' for Inactive)
REMARK    1  A    between atoms: S_2  and  N_4
REMARK    2  A    between atoms: S_2  and  N_12
REMARK    3  A    between atoms: N_4  and  C_5
REMARK    4  A    between atoms: C_5  and  C_6
REMARK    5  A    between atoms: C_6  and  C_7
REMARK                            x       y       z     vdW  Elec       q    Type
REMARK                         _______ _______ _______ _____ _____    ______ ____
ROOT
ATOM      1  N   UNL     1       3.754   4.901  17.303  0.00  0.00    +0.000 NA
ATOM      2  H   UNL     1       4.262   5.787  17.171  0.00  0.00    +0.000 HD
ENDROOT
BRANCH   1   4
ATOM      3  O   UNL     1       4.280   3.258  19.160  0.00  0.00    +0.000 OA
ATOM      4  S   UNL     1       3.736   4.573  18.953  0.00  0.00    +0.000 S 
ATOM      5  O   UNL     1       4.289   5.742  19.591  0.00  0.00    +0.000 OA
BRANCH   4   6
ATOM      6  N   UNL     1       2.086   4.559  19.248  0.00  0.00    +0.000 NA
ATOM      7  C   UNL     1       1.615   4.635  20.643  0.00  0.00    +0.000 C 
ATOM      8  C   UNL     1       1.286   3.200  20.986  0.00  0.00    +0.000 C 
ATOM      9  C   UNL     1       0.695   2.654  19.692  0.00  0.00    +0.000 C 
ATOM     10  C   UNL     1       1.257   3.534  18.571  0.00  0.00    +0.000 C 
ENDBRANCH   4   6
ENDBRANCH   1   4
BRANCH   1  11
ATOM     11  C   UNL     1       4.470   3.887  16.478  0.00  0.00    +0.000 C 
BRANCH  11  12
ATOM     12  C   UNL     1       5.662   4.536  15.760  0.00  0.00    +0.000 C 
BRANCH  12  13
ATOM     13  C   UNL     1       6.390   5.517  16.639  0.00  0.00    +0.000 A 
ATOM     14  N   UNL     1       6.285   6.829  16.534  0.00  0.00    +0.000 NA
ATOM     15  C   UNL     1       7.080   7.439  17.485  0.00  0.00    +0.000 A 
ATOM     16  C   UNL     1       7.802   6.587  18.292  0.00  0.00    +0.000 A 
ATOM     17  S   UNL     1       7.473   4.962  17.856  0.00  0.00    +0.000 S 
ENDBRANCH  12  13
ENDBRANCH  11  12
ENDBRANCH   1  11
TORSDOF 5
ENDMDL
MODEL 6
REMARK VINA RESULT:      -6.0      1.483      2.360
REMARK  Name = 
REMARK  5 active torsions:
REMARK  status: ('A' for Active; 'I' for Inactive)
REMARK    1  A    between atoms: S_2  and  N_4
REMARK    2  A    between atoms: S_2  and  N_12
REMARK    3  A    between atoms: N_4  and  C_5
REMARK    4  A    between atoms: C_5  and  C_6
REMARK    5  A    between atoms: C_6  and  C_7
REMARK                            x       y       z     vdW  Elec       q    Type
REMARK                         _______ _______ _______ _____ _____    ______ ____
ROOT
ATOM      1  N   UNL     1       4.314   4.368  17.804  0.00  0.00    +0.000 NA
ATOM      2  H   UNL     1       5.134   4.757  18.290  0.00  0.00    +0.000 HD
ENDROOT
BRANCH   1   4
ATOM      3  O   UNL     1       3.818   1.890  17.606  0.00  0.00    +0.000 OA
ATOM      4  S   UNL     1       3.897   2.939  18.587  0.00  0.00    +0.000 S 
ATOM      5  O   UNL     1       4.765   2.853  19.735  0.00  0.00    +0.000 OA
BRANCH   4   6
ATOM      6  N   UNL     1       2.358   3.323  19.134  0.00  0.00    +0.000 NA
ATOM      7  C   UNL     1       2.104   4.685  19.636  0.00  0.00    +0.000 C 
ATOM      8  C   UNL     1       2.166   4.526  21.139  0.00  0.00    +0.000 C 
ATOM      9  C   UNL     1       1.521   3.167  21.377  0.00  0.00    +0.000 C 
ATOM     10  C   UNL     1       1.688   2.388  20.068  0.00  0.00    +0.000 C 
ENDBRANCH   4   6
ENDBRANCH   1   4
BRANCH   1  11
ATOM     11  C   UNL     1       4.719   4.197  16.380  0.00  0.00    +0.000 C 
BRANCH  11  12
ATOM     12  C   UNL     1       6.249   4.118  16.272  0.00  0.00    +0.000 C 
BRANCH  12  13
ATOM     13  C   UNL     1       6.936   4.995  17.283  0.00  0.00    +0.000 A 
ATOM     14  N   UNL     1       7.438   4.560  18.425  0.00  0.00    +0.000 NA
ATOM     15  C   UNL     1       7.997   5.613  19.122  0.00  0.00    +0.000 A 
ATOM     16  C   UNL     1       7.896   6.846  18.515  0.00  0.00    +0.000 A 
ATOM     17  S   UNL     1       7.081   6.689  17.016  0.00  0.00    +0.000 S 
ENDBRANCH  12  13
ENDBRANCH  11  12
ENDBRANCH   1  11
TORSDOF 5
ENDMDL
MODEL 7
REMARK VINA RESULT:      -5.9      2.375      5.796
REMARK  Name = 
REMARK  5 active torsions:
REMARK  status: ('A' for Active; 'I' for Inactive)
REMARK    1  A    between atoms: S_2  and  N_4
REMARK    2  A    between atoms: S_2  and  N_12
REMARK    3  A    between atoms: N_4  and  C_5
REMARK    4  A    between atoms: C_5  and  C_6
REMARK    5  A    between atoms: C_6  and  C_7
REMARK                            x       y       z     vdW  Elec       q    Type
REMARK                         _______ _______ _______ _____ _____    ______ ____
ROOT
ATOM      1  N   UNL     1       6.156   3.861  18.087  0.00  0.00    +0.000 NA
ATOM      2  H   UNL     1       6.446   2.898  18.308  0.00  0.00    +0.000 HD
ENDROOT
BRANCH   1   4
ATOM      3  O   UNL     1       7.472   5.556  19.437  0.00  0.00    +0.000 OA
ATOM      4  S   UNL     1       7.524   4.835  18.193  0.00  0.00    +0.000 S 
ATOM      5  O   UNL     1       8.636   3.987  17.842  0.00  0.00    +0.000 OA
BRANCH   4   6
ATOM      6  N   UNL     1       7.256   5.887  16.915  0.00  0.00    +0.000 NA
ATOM      7  C   UNL     1       6.664   7.207  17.196  0.00  0.00    +0.000 C 
ATOM      8  C   UNL     1       5.207   7.027  16.834  0.00  0.00    +0.000 C 
ATOM      9  C   UNL     1       5.256   6.123  15.610  0.00  0.00    +0.000 C 
ATOM     10  C   UNL     1       6.585   5.364  15.701  0.00  0.00    +0.000 C 
ENDBRANCH   4   6
ENDBRANCH   1   4
BRANCH   1  11
ATOM     11  C   UNL     1       5.077   4.202  19.057  0.00  0.00    +0.000 C 
BRANCH  11  12
ATOM     12  C   UNL     1       4.576   2.930  19.757  0.00  0.00    +0.000 C 
BRANCH  12  13
ATOM     13  C   UNL     1       3.144   3.053  20.202  0.00  0.00    +0.000 A 
ATOM     14  N   UNL     1       2.663   2.524  21.313  0.00  0.00    +0.000 NA
ATOM     15  C   UNL     1       1.319   2.818  21.427  0.00  0.00    +0.000 A 
ATOM     16  C   UNL     1       0.780   3.549  20.391  0.00  0.00    +0.000 A 
ATOM     17  S   UNL     1       1.996   3.891  19.232  0.00  0.00    +0.000 S 
ENDBRANCH  12  13
ENDBRANCH  11  12
ENDBRANCH   1  11
TORSDOF 5
ENDMDL
MODEL 8
REMARK VINA RESULT:      -5.9      1.820      2.578
REMARK  Name = 
REMARK  5 active torsions:
REMARK  status: ('A' for Active; 'I' for Inactive)
REMARK    1  A    between atoms: S_2  and  N_4
REMARK    2  A    between atoms: S_2  and  N_12
REMARK    3  A    between atoms: N_4  and  C_5
REMARK    4  A    between atoms: C_5  and  C_6
REMARK    5  A    between atoms: C_6  and  C_7
REMARK                            x       y       z     vdW  Elec       q    Type
REMARK                         _______ _______ _______ _____ _____    ______ ____
ROOT
ATOM      1  N   UNL     1       4.422   2.901  17.742  0.00  0.00    +0.000 NA
ATOM      2  H   UNL     1       3.525   2.521  17.407  0.00  0.00    +0.000 HD
ENDROOT
BRANCH   1   4
ATOM      3  O   UNL     1       5.308   2.383  20.059  0.00  0.00    +0.000 OA
ATOM      4  S   UNL     1       4.278   3.141  19.401  0.00  0.00    +0.000 S 
ATOM      5  O   UNL     1       4.138   4.564  19.581  0.00  0.00    +0.000 OA
BRANCH   4   6
ATOM      6  N   UNL     1       2.783   2.437  19.687  0.00  0.00    +0.000 NA
ATOM      7  C   UNL     1       1.890   2.180  18.543  0.00  0.00    +0.000 C 
ATOM      8  C   UNL     1       0.912   3.333  18.591  0.00  0.00    +0.000 C 
ATOM      9  C   UNL     1       0.694   3.549  20.082  0.00  0.00    +0.000 C 
ATOM     10  C   UNL     1       1.941   2.988  20.775  0.00  0.00    +0.000 C 
ENDBRANCH   4   6
ENDBRANCH   1   4
BRANCH   1  11
ATOM     11  C   UNL     1       4.664   4.144  16.955  0.00  0.00    +0.000 C 
BRANCH  11  12
ATOM     12  C   UNL     1       6.145   4.239  16.561  0.00  0.00    +0.000 C 
BRANCH  12  13
ATOM     13  C   UNL     1       6.808   5.464  17.133  0.00  0.00    +0.000 A 
ATOM     14  N   UNL     1       6.880   6.627  16.513  0.00  0.00    +0.000 NA
ATOM     15  C   UNL     1       7.551   7.538  17.305  0.00  0.00    +0.000 A 
ATOM     16  C   UNL     1       8.004   7.054  18.513  0.00  0.00    +0.000 A 
ATOM     17  S   UNL     1       7.573   5.404  18.673  0.00  0.00    +0.000 S 
ENDBRANCH  12  13
ENDBRANCH  11  12
ENDBRANCH   1  11
TORSDOF 5
ENDMDL
MODEL 9
REMARK VINA RESULT:      -5.9      2.721      6.010
REMARK  Name = 
REMARK  5 active torsions:
REMARK  status: ('A' for Active; 'I' for Inactive)
REMARK    1  A    between atoms: S_2  and  N_4
REMARK    2  A    between atoms: S_2  and  N_12
REMARK    3  A    between atoms: N_4  and  C_5
REMARK    4  A    between atoms: C_5  and  C_6
REMARK    5  A    between atoms: C_6  and  C_7
REMARK                            x       y       z     vdW  Elec       q    Type
REMARK                         _______ _______ _______ _____ _____    ______ ____
ROOT
ATOM      1  N   UNL     1       5.450   3.510  16.768  0.00  0.00    +0.000 NA
ATOM      2  H   UNL     1       5.859   3.158  17.644  0.00  0.00    +0.000 HD
ENDROOT
BRANCH   1   4
ATOM      3  O   UNL     1       7.774   4.282  16.116  0.00  0.00    +0.000 OA
ATOM      4  S   UNL     1       6.426   4.770  16.228  0.00  0.00    +0.000 S 
ATOM      5  O   UNL     1       5.726   5.358  15.113  0.00  0.00    +0.000 OA
BRANCH   4   6
ATOM      6  N   UNL     1       6.310   5.828  17.524  0.00  0.00    +0.000 NA
ATOM      7  C   UNL     1       6.256   7.276  17.254  0.00  0.00    +0.000 C 
ATOM      8  C   UNL     1       7.671   7.739  17.515  0.00  0.00    +0.000 C 
ATOM      9  C   UNL     1       8.105   6.895  18.707  0.00  0.00    +0.000 C 
ATOM     10  C   UNL     1       7.227   5.639  18.673  0.00  0.00    +0.000 C 
ENDBRANCH   4   6
ENDBRANCH   1   4
BRANCH   1  11
ATOM     11  C   UNL     1       4.051   3.907  17.094  0.00  0.00    +0.000 C 
BRANCH  11  12
ATOM     12  C   UNL     1       3.299   2.724  17.722  0.00  0.00    +0.000 C 
BRANCH  12  13
ATOM     13  C   UNL     1       2.756   3.055  19.086  0.00  0.00    +0.000 A 
ATOM     14  N   UNL     1       2.038   2.225  19.821  0.00  0.00    +0.000 NA
ATOM     15  C   UNL     1       1.695   2.833  21.013  0.00  0.00    +0.000 A 
ATOM     16  C   UNL     1       2.135   4.129  21.166  0.00  0.00    +0.000 A 
ATOM     17  S   UNL     1       3.016   4.609  19.777  0.00  0.00    +0.000 S 
ENDBRANCH  12  13
ENDBRANCH  11  12
ENDBRANCH   1  11
TORSDOF 5
ENDMDL
