MODEL 1
REMARK VINA RESULT:      -8.2      0.000      0.000
REMARK  Name = 
REMARK  3 active torsions:
REMARK  status: ('A' for Active; 'I' for Inactive)
REMARK    1  A    between atoms: C_2  and  C_12
REMARK    2  A    between atoms: N_3  and  N_4
REMARK    3  A    between atoms: C_5  and  C_6
REMARK                            x       y       z     vdW  Elec       q    Type
REMARK                         _______ _______ _______ _____ _____    ______ ____
ROOT
ATOM      1  O   UNL     1       8.037   5.526  19.450  0.00  0.00    +0.000 OA
ATOM      2  C   UNL     1       7.373   5.964  18.514  0.00  0.00    +0.000 C 
ATOM      3  N   UNL     1       7.569   7.209  17.932  0.00  0.00    +0.000 N 
ATOM      4  H   UNL     1       7.082   7.461  17.083  0.00  0.00    +0.000 HD
ENDROOT
BRANCH   2   5
ATOM      5  C   UNL     1       6.331   5.177  17.905  0.00  0.00    +0.000 A 
ATOM      6  N   UNL     1       6.611   4.296  16.890  0.00  0.00    +0.000 N 
ATOM      7  N   UNL     1       5.537   3.635  16.420  0.00  0.00    +0.000 NA
ATOM      8  C   UNL     1       4.546   4.064  17.201  0.00  0.00    +0.000 A 
ATOM      9  C   UNL     1       4.977   5.025  18.146  0.00  0.00    +0.000 A 
ATOM     10  C   UNL     1       4.066   5.629  19.155  0.00  0.00    +0.000 C 
ATOM     11  C   UNL     1       2.761   4.825  19.287  0.00  0.00    +0.000 C 
ATOM     12  C   UNL     1       2.187   4.427  17.915  0.00  0.00    +0.000 C 
ATOM     13  C   UNL     1       3.158   3.530  17.125  0.00  0.00    +0.000 C 
ATOM     14  H   UNL     1       7.521   4.115  16.477  0.00  0.00    +0.000 HD
ENDBRANCH   2   5
BRANCH   3  15
ATOM     15  N   UNL     1       8.462   8.076  18.476  0.00  0.00    +0.000 NA
ATOM     16  C   UNL     1       8.360   9.317  18.128  0.00  0.00    +0.000 C 
BRANCH  16  17
ATOM     17  C   UNL     1       9.263  10.334  18.704  0.00  0.00    +0.000 A 
ATOM     18  C   UNL     1      10.121  11.056  17.867  0.00  0.00    +0.000 A 
ATOM     19  C   UNL     1      10.992  12.000  18.410  0.00  0.00    +0.000 A 
ATOM     20  C   UNL     1      11.004  12.222  19.786  0.00  0.00    +0.000 A 
ATOM     21  C   UNL     1      10.146  11.503  20.622  0.00  0.00    +0.000 A 
ATOM     22  C   UNL     1       9.272  10.556  20.083  0.00  0.00    +0.000 A 
ENDBRANCH  16  17
ENDBRANCH   3  15
TORSDOF 3
ENDMDL
MODEL 2
REMARK VINA RESULT:      -8.2      0.105      1.088
REMARK  Name = 
REMARK  3 active torsions:
REMARK  status: ('A' for Active; 'I' for Inactive)
REMARK    1  A    between atoms: C_2  and  C_12
REMARK    2  A    between atoms: N_3  and  N_4
REMARK    3  A    between atoms: C_5  and  C_6
REMARK                            x       y       z     vdW  Elec       q    Type
REMARK                         _______ _______ _______ _____ _____    ______ ____
ROOT
ATOM      1  O   UNL     1       7.975   5.511  19.486  0.00  0.00    +0.000 OA
ATOM      2  C   UNL     1       7.339   5.944  18.529  0.00  0.00    +0.000 C 
ATOM      3  N   UNL     1       7.575   7.170  17.924  0.00  0.00    +0.000 N 
ATOM      4  H   UNL     1       7.109   7.415  17.061  0.00  0.00    +0.000 HD
ENDROOT
BRANCH   2   5
ATOM      5  C   UNL     1       6.290   5.167  17.918  0.00  0.00    +0.000 A 
ATOM      6  N   UNL     1       6.546   4.358  16.838  0.00  0.00    +0.000 N 
ATOM      7  N   UNL     1       5.469   3.698  16.375  0.00  0.00    +0.000 NA
ATOM      8  C   UNL     1       4.503   4.051  17.222  0.00  0.00    +0.000 A 
ATOM      9  C   UNL     1       4.952   4.964  18.206  0.00  0.00    +0.000 A 
ATOM     10  C   UNL     1       4.072   5.480  19.289  0.00  0.00    +0.000 C 
ATOM     11  C   UNL     1       2.795   4.635  19.426  0.00  0.00    +0.000 C 
ATOM     12  C   UNL     1       2.171   4.305  18.059  0.00  0.00    +0.000 C 
ATOM     13  C   UNL     1       3.127   3.486  17.174  0.00  0.00    +0.000 C 
ATOM     14  H   UNL     1       7.441   4.228  16.376  0.00  0.00    +0.000 HD
ENDBRANCH   2   5
BRANCH   3  15
ATOM     15  N   UNL     1       8.477   8.028  18.466  0.00  0.00    +0.000 NA
ATOM     16  C   UNL     1       8.352   9.279  18.163  0.00  0.00    +0.000 C 
BRANCH  16  17
ATOM     17  C   UNL     1       9.265  10.286  18.741  0.00  0.00    +0.000 A 
ATOM     18  C   UNL     1       9.223  10.557  20.113  0.00  0.00    +0.000 A 
ATOM     19  C   UNL     1      10.067  11.523  20.657  0.00  0.00    +0.000 A 
ATOM     20  C   UNL     1      10.952  12.217  19.833  0.00  0.00    +0.000 A 
ATOM     21  C   UNL     1      10.995  11.945  18.463  0.00  0.00    +0.000 A 
ATOM     22  C   UNL     1      10.151  10.978  17.912  0.00  0.00    +0.000 A 
ENDBRANCH  16  17
ENDBRANCH   3  15
TORSDOF 3
ENDMDL
MODEL 3
REMARK VINA RESULT:      -7.8      1.034      1.059
REMARK  Name = 
REMARK  3 active torsions:
REMARK  status: ('A' for Active; 'I' for Inactive)
REMARK    1  A    between atoms: C_2  and  C_12
REMARK    2  A    between atoms: N_3  and  N_4
REMARK    3  A    between atoms: C_5  and  C_6
REMARK                            x       y       z     vdW  Elec       q    Type
REMARK                         _______ _______ _______ _____ _____    ______ ____
ROOT
ATOM      1  O   UNL     1       8.201   6.070  19.038  0.00  0.00    +0.000 OA
ATOM      2  C   UNL     1       7.505   6.651  18.209  0.00  0.00    +0.000 C 
ATOM      3  N   UNL     1       7.693   7.969  17.817  0.00  0.00    +0.000 N 
ATOM      4  H   UNL     1       7.174   8.351  17.039  0.00  0.00    +0.000 HD
ENDROOT
BRANCH   2   5
ATOM      5  C   UNL     1       6.429   5.973  17.531  0.00  0.00    +0.000 A 
ATOM      6  N   UNL     1       6.292   6.050  16.167  0.00  0.00    +0.000 N 
ATOM      7  N   UNL     1       5.240   5.368  15.677  0.00  0.00    +0.000 NA
ATOM      8  C   UNL     1       4.721   4.787  16.758  0.00  0.00    +0.000 A 
ATOM      9  C   UNL     1       5.418   5.124  17.943  0.00  0.00    +0.000 A 
ATOM     10  C   UNL     1       5.054   4.573  19.276  0.00  0.00    +0.000 C 
ATOM     11  C   UNL     1       4.128   3.352  19.147  0.00  0.00    +0.000 C 
ATOM     12  C   UNL     1       3.012   3.581  18.112  0.00  0.00    +0.000 C 
ATOM     13  C   UNL     1       3.579   3.833  16.703  0.00  0.00    +0.000 C 
ATOM     14  H   UNL     1       6.890   6.564  15.525  0.00  0.00    +0.000 HD
ENDBRANCH   2   5
BRANCH   3  15
ATOM     15  N   UNL     1       8.617   8.736  18.450  0.00  0.00    +0.000 NA
ATOM     16  C   UNL     1       8.699   9.975  18.086  0.00  0.00    +0.000 C 
BRANCH  16  17
ATOM     17  C   UNL     1       9.648  10.891  18.750  0.00  0.00    +0.000 A 
ATOM     18  C   UNL     1      10.629  11.543  17.996  0.00  0.00    +0.000 A 
ATOM     19  C   UNL     1      11.542  12.390  18.623  0.00  0.00    +0.000 A 
ATOM     20  C   UNL     1      11.473  12.586  20.002  0.00  0.00    +0.000 A 
ATOM     21  C   UNL     1      10.491  11.937  20.755  0.00  0.00    +0.000 A 
ATOM     22  C   UNL     1       9.575  11.086  20.132  0.00  0.00    +0.000 A 
ENDBRANCH  16  17
ENDBRANCH   3  15
TORSDOF 3
ENDMDL
MODEL 4
REMARK VINA RESULT:      -7.7      1.006      1.485
REMARK  Name = 
REMARK  3 active torsions:
REMARK  status: ('A' for Active; 'I' for Inactive)
REMARK    1  A    between atoms: C_2  and  C_12
REMARK    2  A    between atoms: N_3  and  N_4
REMARK    3  A    between atoms: C_5  and  C_6
REMARK                            x       y       z     vdW  Elec       q    Type
REMARK                         _______ _______ _______ _____ _____    ______ ____
ROOT
ATOM      1  O   UNL     1       8.265   6.143  19.150  0.00  0.00    +0.000 OA
ATOM      2  C   UNL     1       7.601   6.690  18.274  0.00  0.00    +0.000 C 
ATOM      3  N   UNL     1       7.798   7.994  17.842  0.00  0.00    +0.000 N 
ATOM      4  H   UNL     1       7.310   8.345  17.029  0.00  0.00    +0.000 HD
ENDROOT
BRANCH   2   5
ATOM      5  C   UNL     1       6.557   5.980  17.577  0.00  0.00    +0.000 A 
ATOM      6  N   UNL     1       6.534   5.922  16.206  0.00  0.00    +0.000 N 
ATOM      7  N   UNL     1       5.499   5.228  15.699  0.00  0.00    +0.000 NA
ATOM      8  C   UNL     1       4.871   4.778  16.784  0.00  0.00    +0.000 A 
ATOM      9  C   UNL     1       5.481   5.212  17.984  0.00  0.00    +0.000 A 
ATOM     10  C   UNL     1       4.989   4.813  19.330  0.00  0.00    +0.000 C 
ATOM     11  C   UNL     1       4.027   3.616  19.244  0.00  0.00    +0.000 C 
ATOM     12  C   UNL     1       3.009   3.773  18.101  0.00  0.00    +0.000 C 
ATOM     13  C   UNL     1       3.699   3.860  16.727  0.00  0.00    +0.000 C 
ATOM     14  H   UNL     1       7.202   6.348  15.569  0.00  0.00    +0.000 HD
ENDBRANCH   2   5
BRANCH   3  15
ATOM     15  N   UNL     1       8.692   8.790  18.483  0.00  0.00    +0.000 NA
ATOM     16  C   UNL     1       8.753  10.025  18.106  0.00  0.00    +0.000 C 
BRANCH  16  17
ATOM     17  C   UNL     1       9.668  10.970  18.777  0.00  0.00    +0.000 A 
ATOM     18  C   UNL     1       9.678  11.055  20.174  0.00  0.00    +0.000 A 
ATOM     19  C   UNL     1      10.524  11.963  20.810  0.00  0.00    +0.000 A 
ATOM     20  C   UNL     1      11.359  12.783  20.051  0.00  0.00    +0.000 A 
ATOM     21  C   UNL     1      11.351  12.696  18.657  0.00  0.00    +0.000 A 
ATOM     22  C   UNL     1      10.505  11.789  18.014  0.00  0.00    +0.000 A 
ENDBRANCH  16  17
ENDBRANCH   3  15
TORSDOF 3
ENDMDL
MODEL 5
REMARK VINA RESULT:      -7.6      1.470      1.745
REMARK  Name = 
REMARK  3 active torsions:
REMARK  status: ('A' for Active; 'I' for Inactive)
REMARK    1  A    between atoms: C_2  and  C_12
REMARK    2  A    between atoms: N_3  and  N_4
REMARK    3  A    between atoms: C_5  and  C_6
REMARK                            x       y       z     vdW  Elec       q    Type
REMARK                         _______ _______ _______ _____ _____    ______ ____
ROOT
ATOM      1  O   UNL     1       7.972   7.057  16.489  0.00  0.00    +0.000 OA
ATOM      2  C   UNL     1       7.532   7.076  17.636  0.00  0.00    +0.000 C 
ATOM      3  N   UNL     1       7.884   8.018  18.593  0.00  0.00    +0.000 N 
ATOM      4  H   UNL     1       7.392   8.062  19.474  0.00  0.00    +0.000 HD
ENDROOT
BRANCH   2   5
ATOM      5  C   UNL     1       6.554   6.113  18.076  0.00  0.00    +0.000 A 
ATOM      6  N   UNL     1       6.930   4.993  18.775  0.00  0.00    +0.000 N 
ATOM      7  N   UNL     1       5.909   4.185  19.117  0.00  0.00    +0.000 NA
ATOM      8  C   UNL     1       4.838   4.840  18.672  0.00  0.00    +0.000 A 
ATOM      9  C   UNL     1       5.174   6.048  18.016  0.00  0.00    +0.000 A 
ATOM     10  C   UNL     1       4.152   6.977  17.463  0.00  0.00    +0.000 C 
ATOM     11  C   UNL     1       2.751   6.666  18.016  0.00  0.00    +0.000 C 
ATOM     12  C   UNL     1       2.454   5.156  18.020  0.00  0.00    +0.000 C 
ATOM     13  C   UNL     1       3.442   4.378  18.909  0.00  0.00    +0.000 C 
ATOM     14  H   UNL     1       7.876   4.730  19.039  0.00  0.00    +0.000 HD
ENDBRANCH   2   5
BRANCH   3  15
ATOM     15  N   UNL     1       8.862   8.921  18.324  0.00  0.00    +0.000 NA
ATOM     16  C   UNL     1       8.924   9.963  19.087  0.00  0.00    +0.000 C 
BRANCH  16  17
ATOM     17  C   UNL     1       9.981  10.975  18.891  0.00  0.00    +0.000 A 
ATOM     18  C   UNL     1      10.110  11.616  17.655  0.00  0.00    +0.000 A 
ATOM     19  C   UNL     1      11.122  12.555  17.459  0.00  0.00    +0.000 A 
ATOM     20  C   UNL     1      12.004  12.852  18.498  0.00  0.00    +0.000 A 
ATOM     21  C   UNL     1      11.873  12.214  19.734  0.00  0.00    +0.000 A 
ATOM     22  C   UNL     1      10.861  11.272  19.935  0.00  0.00    +0.000 A 
ENDBRANCH  16  17
ENDBRANCH   3  15
TORSDOF 3
ENDMDL
MODEL 6
REMARK VINA RESULT:      -7.3      5.666      7.462
REMARK  Name = 
REMARK  3 active torsions:
REMARK  status: ('A' for Active; 'I' for Inactive)
REMARK    1  A    between atoms: C_2  and  C_12
REMARK    2  A    between atoms: N_3  and  N_4
REMARK    3  A    between atoms: C_5  and  C_6
REMARK                            x       y       z     vdW  Elec       q    Type
REMARK                         _______ _______ _______ _____ _____    ______ ____
ROOT
ATOM      1  O   UNL     1       2.424   7.736  18.202  0.00  0.00    +0.000 OA
ATOM      2  C   UNL     1       2.526   7.019  19.194  0.00  0.00    +0.000 C 
ATOM      3  N   UNL     1       2.007   7.332  20.442  0.00  0.00    +0.000 N 
ATOM      4  H   UNL     1       2.006   6.647  21.185  0.00  0.00    +0.000 HD
ENDROOT
BRANCH   2   5
ATOM      5  C   UNL     1       3.181   5.737  19.124  0.00  0.00    +0.000 A 
ATOM      6  N   UNL     1       4.504   5.599  19.465  0.00  0.00    +0.000 N 
ATOM      7  N   UNL     1       4.977   4.344  19.346  0.00  0.00    +0.000 NA
ATOM      8  C   UNL     1       3.906   3.646  18.973  0.00  0.00    +0.000 A 
ATOM      9  C   UNL     1       2.756   4.456  18.818  0.00  0.00    +0.000 A 
ATOM     10  C   UNL     1       1.426   3.906  18.443  0.00  0.00    +0.000 C 
ATOM     11  C   UNL     1       1.378   2.379  18.624  0.00  0.00    +0.000 C 
ATOM     12  C   UNL     1       2.643   1.693  18.079  0.00  0.00    +0.000 C 
ATOM     13  C   UNL     1       3.913   2.166  18.810  0.00  0.00    +0.000 C 
ATOM     14  H   UNL     1       5.130   6.335  19.779  0.00  0.00    +0.000 HD
ENDBRANCH   2   5
BRANCH   3  15
ATOM     15  N   UNL     1       1.447   8.551  20.654  0.00  0.00    +0.000 NA
ATOM     16  C   UNL     1       0.358   8.583  21.352  0.00  0.00    +0.000 C 
BRANCH  16  17
ATOM     17  C   UNL     1      -0.295   9.870  21.665  0.00  0.00    +0.000 A 
ATOM     18  C   UNL     1      -0.780  10.108  22.955  0.00  0.00    +0.000 A 
ATOM     19  C   UNL     1      -1.417  11.313  23.248  0.00  0.00    +0.000 A 
ATOM     20  C   UNL     1      -1.569  12.278  22.253  0.00  0.00    +0.000 A 
ATOM     21  C   UNL     1      -1.082  12.041  20.966  0.00  0.00    +0.000 A 
ATOM     22  C   UNL     1      -0.443  10.835  20.666  0.00  0.00    +0.000 A 
ENDBRANCH  16  17
ENDBRANCH   3  15
TORSDOF 3
ENDMDL
MODEL 7
REMARK VINA RESULT:      -7.3      5.159      7.142
REMARK  Name = 
REMARK  3 active torsions:
REMARK  status: ('A' for Active; 'I' for Inactive)
REMARK    1  A    between atoms: C_2  and  C_12
REMARK    2  A    between atoms: N_3  and  N_4
REMARK    3  A    between atoms: C_5  and  C_6
REMARK                            x       y       z     vdW  Elec       q    Type
REMARK                         _______ _______ _______ _____ _____    ______ ____
ROOT
ATOM      1  O   UNL     1       1.347   4.769  20.460  0.00  0.00    +0.000 OA
ATOM      2  C   UNL     1       2.186   5.398  19.821  0.00  0.00    +0.000 C 
ATOM      3  N   UNL     1       2.430   6.756  19.976  0.00  0.00    +0.000 N 
ATOM      4  H   UNL     1       3.220   7.190  19.519  0.00  0.00    +0.000 HD
ENDROOT
BRANCH   2   5
ATOM      5  C   UNL     1       3.035   4.745  18.857  0.00  0.00    +0.000 A 
ATOM      6  N   UNL     1       3.020   3.379  18.712  0.00  0.00    +0.000 N 
ATOM      7  N   UNL     1       3.867   2.913  17.776  0.00  0.00    +0.000 NA
ATOM      8  C   UNL     1       4.398   4.022  17.263  0.00  0.00    +0.000 A 
ATOM      9  C   UNL     1       3.919   5.195  17.893  0.00  0.00    +0.000 A 
ATOM     10  C   UNL     1       4.334   6.562  17.477  0.00  0.00    +0.000 C 
ATOM     11  C   UNL     1       5.005   6.548  16.093  0.00  0.00    +0.000 C 
ATOM     12  C   UNL     1       6.012   5.394  15.951  0.00  0.00    +0.000 C 
ATOM     13  C   UNL     1       5.336   4.019  16.106  0.00  0.00    +0.000 C 
ATOM     14  H   UNL     1       2.453   2.719  19.237  0.00  0.00    +0.000 HD
ENDBRANCH   2   5
BRANCH   3  15
ATOM     15  N   UNL     1       1.634   7.496  20.790  0.00  0.00    +0.000 NA
ATOM     16  C   UNL     1       1.334   8.689  20.389  0.00  0.00    +0.000 C 
BRANCH  16  17
ATOM     17  C   UNL     1       0.440   9.547  21.192  0.00  0.00    +0.000 A 
ATOM     18  C   UNL     1      -0.146  10.677  20.612  0.00  0.00    +0.000 A 
ATOM     19  C   UNL     1      -0.972  11.502  21.374  0.00  0.00    +0.000 A 
ATOM     20  C   UNL     1      -1.212  11.198  22.713  0.00  0.00    +0.000 A 
ATOM     21  C   UNL     1      -0.629  10.069  23.292  0.00  0.00    +0.000 A 
ATOM     22  C   UNL     1       0.200   9.238  22.534  0.00  0.00    +0.000 A 
ENDBRANCH  16  17
ENDBRANCH   3  15
TORSDOF 3
ENDMDL
MODEL 8
REMARK VINA RESULT:      -7.2      6.604      9.537
REMARK  Name = 
REMARK  3 active torsions:
REMARK  status: ('A' for Active; 'I' for Inactive)
REMARK    1  A    between atoms: C_2  and  C_12
REMARK    2  A    between atoms: N_3  and  N_4
REMARK    3  A    between atoms: C_5  and  C_6
REMARK                            x       y       z     vdW  Elec       q    Type
REMARK                         _______ _______ _______ _____ _____    ______ ____
ROOT
ATOM      1  O   UNL     1       1.509   8.835  19.397  0.00  0.00    +0.000 OA
ATOM      2  C   UNL     1       1.241   8.471  20.538  0.00  0.00    +0.000 C 
ATOM      3  N   UNL     1       1.611   7.245  21.075  0.00  0.00    +0.000 N 
ATOM      4  H   UNL     1       1.477   7.055  22.058  0.00  0.00    +0.000 HD
ENDROOT
BRANCH   2   5
ATOM      5  C   UNL     1       0.530   9.332  21.449  0.00  0.00    +0.000 A 
ATOM      6  N   UNL     1       0.702   9.223  22.807  0.00  0.00    +0.000 N 
ATOM      7  N   UNL     1      -0.030  10.091  23.529  0.00  0.00    +0.000 NA
ATOM      8  C   UNL     1      -0.646  10.820  22.600  0.00  0.00    +0.000 A 
ATOM      9  C   UNL     1      -0.338  10.397  21.285  0.00  0.00    +0.000 A 
ATOM     10  C   UNL     1      -0.873  11.074  20.073  0.00  0.00    +0.000 C 
ATOM     11  C   UNL     1      -1.451  12.459  20.412  0.00  0.00    +0.000 C 
ATOM     12  C   UNL     1      -2.316  12.427  21.685  0.00  0.00    +0.000 C 
ATOM     13  C   UNL     1      -1.505  11.994  22.920  0.00  0.00    +0.000 C 
ATOM     14  H   UNL     1       1.305   8.563  23.291  0.00  0.00    +0.000 HD
ENDBRANCH   2   5
BRANCH   3  15
ATOM     15  N   UNL     1       2.206   6.315  20.286  0.00  0.00    +0.000 NA
ATOM     16  C   UNL     1       1.762   5.103  20.371  0.00  0.00    +0.000 C 
BRANCH  16  17
ATOM     17  C   UNL     1       2.324   4.036  19.519  0.00  0.00    +0.000 A 
ATOM     18  C   UNL     1       1.925   3.931  18.182  0.00  0.00    +0.000 A 
ATOM     19  C   UNL     1       2.436   2.911  17.381  0.00  0.00    +0.000 A 
ATOM     20  C   UNL     1       3.344   1.997  17.915  0.00  0.00    +0.000 A 
ATOM     21  C   UNL     1       3.744   2.103  19.249  0.00  0.00    +0.000 A 
ATOM     22  C   UNL     1       3.234   3.123  20.057  0.00  0.00    +0.000 A 
ENDBRANCH  16  17
ENDBRANCH   3  15
TORSDOF 3
ENDMDL
MODEL 9
REMARK VINA RESULT:      -7.2      5.143      7.207
REMARK  Name = 
REMARK  3 active torsions:
REMARK  status: ('A' for Active; 'I' for Inactive)
REMARK    1  A    between atoms: C_2  and  C_12
REMARK    2  A    between atoms: N_3  and  N_4
REMARK    3  A    between atoms: C_5  and  C_6
REMARK                            x       y       z     vdW  Elec       q    Type
REMARK                         _______ _______ _______ _____ _____    ______ ____
ROOT
ATOM      1  O   UNL     1       1.321   5.044  20.441  0.00  0.00    +0.000 OA
ATOM      2  C   UNL     1       2.191   5.623  19.795  0.00  0.00    +0.000 C 
ATOM      3  N   UNL     1       2.518   6.963  19.951  0.00  0.00    +0.000 N 
ATOM      4  H   UNL     1       3.328   7.351  19.488  0.00  0.00    +0.000 HD
ENDROOT
BRANCH   2   5
ATOM      5  C   UNL     1       2.989   4.923  18.821  0.00  0.00    +0.000 A 
ATOM      6  N   UNL     1       2.906   3.559  18.687  0.00  0.00    +0.000 N 
ATOM      7  N   UNL     1       3.712   3.046  17.739  0.00  0.00    +0.000 NA
ATOM      8  C   UNL     1       4.287   4.124  17.209  0.00  0.00    +0.000 A 
ATOM      9  C   UNL     1       3.877   5.324  17.839  0.00  0.00    +0.000 A 
ATOM     10  C   UNL     1       4.349   6.665  17.404  0.00  0.00    +0.000 C 
ATOM     11  C   UNL     1       4.993   6.610  16.008  0.00  0.00    +0.000 C 
ATOM     12  C   UNL     1       5.941   5.407  15.857  0.00  0.00    +0.000 C 
ATOM     13  C   UNL     1       5.202   4.068  16.035  0.00  0.00    +0.000 C 
ATOM     14  H   UNL     1       2.317   2.931  19.227  0.00  0.00    +0.000 HD
ENDBRANCH   2   5
BRANCH   3  15
ATOM     15  N   UNL     1       1.776   7.748  20.775  0.00  0.00    +0.000 NA
ATOM     16  C   UNL     1       1.242   8.805  20.254  0.00  0.00    +0.000 C 
BRANCH  16  17
ATOM     17  C   UNL     1       0.386   9.692  21.067  0.00  0.00    +0.000 A 
ATOM     18  C   UNL     1       0.074   9.341  22.385  0.00  0.00    +0.000 A 
ATOM     19  C   UNL     1      -0.753  10.164  23.148  0.00  0.00    +0.000 A 
ATOM     20  C   UNL     1      -1.266  11.337  22.595  0.00  0.00    +0.000 A 
ATOM     21  C   UNL     1      -0.952  11.688  21.280  0.00  0.00    +0.000 A 
ATOM     22  C   UNL     1      -0.125  10.867  20.510  0.00  0.00    +0.000 A 
ENDBRANCH  16  17
ENDBRANCH   3  15
TORSDOF 3
ENDMDL
