MODEL 1
REMARK VINA RESULT:      -8.6      0.000      0.000
REMARK  Name = 
REMARK  6 active torsions:
REMARK  status: ('A' for Active; 'I' for Inactive)
REMARK    1  A    between atoms: C_1  and  N_2
REMARK    2  A    between atoms: N_2  and  C_3
REMARK    3  A    between atoms: C_6  and  C_7
REMARK    4  A    between atoms: C_7  and  O_9
REMARK    5  A    between atoms: O_9  and  C_10
REMARK    6  A    between atoms: C_12  and  O_13
REMARK                            x       y       z     vdW  Elec       q    Type
REMARK                         _______ _______ _______ _____ _____    ______ ____
ROOT
ATOM      1  C   UNL     1       2.236   5.663  19.081  0.00  0.00    +0.000 A 
ATOM      2  C   UNL     1       2.541   6.528  18.032  0.00  0.00    +0.000 A 
ATOM      3  C   UNL     1       2.299   7.895  18.189  0.00  0.00    +0.000 A 
ATOM      4  C   UNL     1       1.740   8.379  19.378  0.00  0.00    +0.000 A 
ATOM      5  C   UNL     1       1.184   9.743  19.532  0.00  0.00    +0.000 A 
ATOM      6  O   UNL     1       1.305  10.633  18.703  0.00  0.00    +0.000 OA
ATOM      7  C   UNL     1       0.405   9.987  20.759  0.00  0.00    +0.000 A 
ATOM      8  C   UNL     1      -0.483  11.060  20.858  0.00  0.00    +0.000 A 
ATOM      9  C   UNL     1      -1.139  11.300  22.066  0.00  0.00    +0.000 A 
ATOM     10  C   UNL     1      -0.867  10.503  23.180  0.00  0.00    +0.000 A 
ATOM     11  C   UNL     1      -0.011   9.408  23.063  0.00  0.00    +0.000 A 
ATOM     12  C   UNL     1       0.574   9.118  21.831  0.00  0.00    +0.000 A 
ATOM     13  O   UNL     1       1.257   7.935  21.733  0.00  0.00    +0.000 OA
ATOM     14  C   UNL     1       1.597   7.516  20.468  0.00  0.00    +0.000 A 
ATOM     15  C   UNL     1       1.834   6.154  20.321  0.00  0.00    +0.000 A 
ENDROOT
BRANCH   3  16
ATOM     16  O   UNL     1       2.619   8.742  17.168  0.00  0.00    +0.000 OA
ATOM     17  H   UNL     1       1.939   9.430  17.085  0.00  0.00    +0.000 HD
ENDBRANCH   3  16
BRANCH   1  18
ATOM     18  O   UNL     1       2.453   4.293  18.902  0.00  0.00    +0.000 OA
BRANCH  18  19
ATOM     19  C   UNL     1       3.683   3.824  19.333  0.00  0.00    +0.000 C 
ATOM     20  O   UNL     1       3.948   3.333  20.424  0.00  0.00    +0.000 OA
BRANCH  19  24
ATOM     21  C   UNL     1       6.629   4.771  16.316  0.00  0.00    +0.000 A 
ATOM     22  C   UNL     1       6.779   5.177  17.647  0.00  0.00    +0.000 A 
ATOM     23  C   UNL     1       5.839   4.824  18.625  0.00  0.00    +0.000 A 
ATOM     24  C   UNL     1       4.702   4.085  18.280  0.00  0.00    +0.000 A 
ATOM     25  C   UNL     1       4.529   3.688  16.952  0.00  0.00    +0.000 A 
ATOM     26  C   UNL     1       5.479   4.038  15.986  0.00  0.00    +0.000 A 
BRANCH  21  28
ATOM     27  C   UNL     1       7.156   4.850  13.903  0.00  0.00    +0.000 C 
ATOM     28  N   UNL     1       7.471   5.173  15.282  0.00  0.00    +0.000 N 
ATOM     29  H   UNL     1       7.836   6.114  15.412  0.00  0.00    +0.000 HD
ENDBRANCH  21  28
ENDBRANCH  19  24
ENDBRANCH  18  19
ENDBRANCH   1  18
TORSDOF 5
ENDMDL
MODEL 2
REMARK VINA RESULT:      -8.4      1.337      1.640
REMARK  Name = 
REMARK  6 active torsions:
REMARK  status: ('A' for Active; 'I' for Inactive)
REMARK    1  A    between atoms: C_1  and  N_2
REMARK    2  A    between atoms: N_2  and  C_3
REMARK    3  A    between atoms: C_6  and  C_7
REMARK    4  A    between atoms: C_7  and  O_9
REMARK    5  A    between atoms: O_9  and  C_10
REMARK    6  A    between atoms: C_12  and  O_13
REMARK                            x       y       z     vdW  Elec       q    Type
REMARK                         _______ _______ _______ _____ _____    ______ ____
ROOT
ATOM      1  C   UNL     1       2.274   7.013  18.806  0.00  0.00    +0.000 A 
ATOM      2  C   UNL     1       2.440   8.002  17.838  0.00  0.00    +0.000 A 
ATOM      3  C   UNL     1       2.001   9.300  18.113  0.00  0.00    +0.000 A 
ATOM      4  C   UNL     1       1.388   9.591  19.338  0.00  0.00    +0.000 A 
ATOM      5  C   UNL     1       0.640  10.839  19.608  0.00  0.00    +0.000 A 
ATOM      6  O   UNL     1       0.621  11.807  18.861  0.00  0.00    +0.000 OA
ATOM      7  C   UNL     1      -0.156  10.859  20.850  0.00  0.00    +0.000 A 
ATOM      8  C   UNL     1      -1.190  11.776  21.038  0.00  0.00    +0.000 A 
ATOM      9  C   UNL     1      -1.863  11.812  22.261  0.00  0.00    +0.000 A 
ATOM     10  C   UNL     1      -1.466  10.970  23.302  0.00  0.00    +0.000 A 
ATOM     11  C   UNL     1      -0.461  10.026  23.092  0.00  0.00    +0.000 A 
ATOM     12  C   UNL     1       0.149   9.934  21.842  0.00  0.00    +0.000 A 
ATOM     13  O   UNL     1       0.997   8.877  21.643  0.00  0.00    +0.000 OA
ATOM     14  C   UNL     1       1.383   8.625  20.348  0.00  0.00    +0.000 A 
ATOM     15  C   UNL     1       1.816   7.330  20.083  0.00  0.00    +0.000 A 
ENDROOT
BRANCH   3  16
ATOM     16  O   UNL     1       2.184  10.271  17.171  0.00  0.00    +0.000 OA
ATOM     17  H   UNL     1       1.619  10.093  16.401  0.00  0.00    +0.000 HD
ENDBRANCH   3  16
BRANCH   1  18
ATOM     18  O   UNL     1       2.688   5.711  18.508  0.00  0.00    +0.000 OA
BRANCH  18  19
ATOM     19  C   UNL     1       4.048   5.477  18.627  0.00  0.00    +0.000 C 
ATOM     20  O   UNL     1       4.727   5.558  19.644  0.00  0.00    +0.000 OA
BRANCH  19  24
ATOM     21  C   UNL     1       5.832   4.527  14.807  0.00  0.00    +0.000 A 
ATOM     22  C   UNL     1       5.453   3.530  15.713  0.00  0.00    +0.000 A 
ATOM     23  C   UNL     1       4.834   3.850  16.929  0.00  0.00    +0.000 A 
ATOM     24  C   UNL     1       4.615   5.185  17.282  0.00  0.00    +0.000 A 
ATOM     25  C   UNL     1       5.003   6.194  16.396  0.00  0.00    +0.000 A 
ATOM     26  C   UNL     1       5.612   5.862  15.180  0.00  0.00    +0.000 A 
BRANCH  21  28
ATOM     27  C   UNL     1       5.986   3.428  12.599  0.00  0.00    +0.000 C 
ATOM     28  N   UNL     1       6.540   4.282  13.632  0.00  0.00    +0.000 N 
ATOM     29  H   UNL     1       7.011   5.110  13.275  0.00  0.00    +0.000 HD
ENDBRANCH  21  28
ENDBRANCH  19  24
ENDBRANCH  18  19
ENDBRANCH   1  18
TORSDOF 5
ENDMDL
MODEL 3
REMARK VINA RESULT:      -8.3      1.216      1.678
REMARK  Name = 
REMARK  6 active torsions:
REMARK  status: ('A' for Active; 'I' for Inactive)
REMARK    1  A    between atoms: C_1  and  N_2
REMARK    2  A    between atoms: N_2  and  C_3
REMARK    3  A    between atoms: C_6  and  C_7
REMARK    4  A    between atoms: C_7  and  O_9
REMARK    5  A    between atoms: O_9  and  C_10
REMARK    6  A    between atoms: C_12  and  O_13
REMARK                            x       y       z     vdW  Elec       q    Type
REMARK                         _______ _______ _______ _____ _____    ______ ____
ROOT
ATOM      1  C   UNL     1       2.109   7.253  19.932  0.00  0.00    +0.000 A 
ATOM      2  C   UNL     1       2.229   7.913  18.711  0.00  0.00    +0.000 A 
ATOM      3  C   UNL     1       1.656   9.179  18.566  0.00  0.00    +0.000 A 
ATOM      4  C   UNL     1       0.957   9.762  19.629  0.00  0.00    +0.000 A 
ATOM      5  C   UNL     1       0.080  10.947  19.489  0.00  0.00    +0.000 A 
ATOM      6  O   UNL     1       0.009  11.635  18.481  0.00  0.00    +0.000 OA
ATOM      7  C   UNL     1      -0.776  11.258  20.648  0.00  0.00    +0.000 A 
ATOM      8  C   UNL     1      -1.901  12.074  20.526  0.00  0.00    +0.000 A 
ATOM      9  C   UNL     1      -2.636  12.408  21.664  0.00  0.00    +0.000 A 
ATOM     10  C   UNL     1      -2.215  11.968  22.921  0.00  0.00    +0.000 A 
ATOM     11  C   UNL     1      -1.115  11.117  23.032  0.00  0.00    +0.000 A 
ATOM     12  C   UNL     1      -0.436  10.715  21.882  0.00  0.00    +0.000 A 
ATOM     13  O   UNL     1       0.517   9.744  22.034  0.00  0.00    +0.000 OA
ATOM     14  C   UNL     1       0.992   9.153  20.887  0.00  0.00    +0.000 A 
ATOM     15  C   UNL     1       1.558   7.892  21.041  0.00  0.00    +0.000 A 
ENDROOT
BRANCH   3  16
ATOM     16  O   UNL     1       1.795   9.832  17.375  0.00  0.00    +0.000 OA
ATOM     17  H   UNL     1       2.676  10.236  17.321  0.00  0.00    +0.000 HD
ENDBRANCH   3  16
BRANCH   1  18
ATOM     18  O   UNL     1       2.659   5.973  20.057  0.00  0.00    +0.000 OA
BRANCH  18  19
ATOM     19  C   UNL     1       2.418   5.115  18.996  0.00  0.00    +0.000 C 
ATOM     20  O   UNL     1       1.360   4.562  18.718  0.00  0.00    +0.000 OA
BRANCH  19  24
ATOM     21  C   UNL     1       6.147   4.615  16.871  0.00  0.00    +0.000 A 
ATOM     22  C   UNL     1       6.093   5.211  18.136  0.00  0.00    +0.000 A 
ATOM     23  C   UNL     1       4.882   5.327  18.834  0.00  0.00    +0.000 A 
ATOM     24  C   UNL     1       3.689   4.878  18.260  0.00  0.00    +0.000 A 
ATOM     25  C   UNL     1       3.723   4.296  16.990  0.00  0.00    +0.000 A 
ATOM     26  C   UNL     1       4.939   4.177  16.306  0.00  0.00    +0.000 A 
BRANCH  21  28
ATOM     27  C   UNL     1       7.230   4.823  14.660  0.00  0.00    +0.000 C 
ATOM     28  N   UNL     1       7.296   4.562  16.085  0.00  0.00    +0.000 N 
ATOM     29  H   UNL     1       8.107   4.972  16.544  0.00  0.00    +0.000 HD
ENDBRANCH  21  28
ENDBRANCH  19  24
ENDBRANCH  18  19
ENDBRANCH   1  18
TORSDOF 5
ENDMDL
MODEL 4
REMARK VINA RESULT:      -8.3      4.536      6.976
REMARK  Name = 
REMARK  6 active torsions:
REMARK  status: ('A' for Active; 'I' for Inactive)
REMARK    1  A    between atoms: C_1  and  N_2
REMARK    2  A    between atoms: N_2  and  C_3
REMARK    3  A    between atoms: C_6  and  C_7
REMARK    4  A    between atoms: C_7  and  O_9
REMARK    5  A    between atoms: O_9  and  C_10
REMARK    6  A    between atoms: C_12  and  O_13
REMARK                            x       y       z     vdW  Elec       q    Type
REMARK                         _______ _______ _______ _____ _____    ______ ____
ROOT
ATOM      1  C   UNL     1       6.451   6.808  17.137  0.00  0.00    +0.000 A 
ATOM      2  C   UNL     1       6.756   5.668  16.396  0.00  0.00    +0.000 A 
ATOM      3  C   UNL     1       5.903   4.563  16.470  0.00  0.00    +0.000 A 
ATOM      4  C   UNL     1       4.771   4.602  17.294  0.00  0.00    +0.000 A 
ATOM      5  C   UNL     1       3.979   3.407  17.663  0.00  0.00    +0.000 A 
ATOM      6  O   UNL     1       4.124   2.302  17.160  0.00  0.00    +0.000 OA
ATOM      7  C   UNL     1       2.991   3.595  18.741  0.00  0.00    +0.000 A 
ATOM      8  C   UNL     1       2.467   2.511  19.447  0.00  0.00    +0.000 A 
ATOM      9  C   UNL     1       1.474   2.728  20.403  0.00  0.00    +0.000 A 
ATOM     10  C   UNL     1       0.975   4.016  20.613  0.00  0.00    +0.000 A 
ATOM     11  C   UNL     1       1.533   5.100  19.935  0.00  0.00    +0.000 A 
ATOM     12  C   UNL     1       2.585   4.889  19.044  0.00  0.00    +0.000 A 
ATOM     13  O   UNL     1       3.208   6.003  18.547  0.00  0.00    +0.000 OA
ATOM     14  C   UNL     1       4.403   5.809  17.895  0.00  0.00    +0.000 A 
ATOM     15  C   UNL     1       5.246   6.913  17.828  0.00  0.00    +0.000 A 
ENDROOT
BRANCH   3  16
ATOM     16  O   UNL     1       6.192   3.456  15.727  0.00  0.00    +0.000 OA
ATOM     17  H   UNL     1       6.483   2.735  16.308  0.00  0.00    +0.000 HD
ENDBRANCH   3  16
BRANCH   1  18
ATOM     18  O   UNL     1       7.328   7.896  17.080  0.00  0.00    +0.000 OA
BRANCH  18  19
ATOM     19  C   UNL     1       8.172   8.039  18.170  0.00  0.00    +0.000 C 
ATOM     20  O   UNL     1       8.552   7.158  18.932  0.00  0.00    +0.000 OA
BRANCH  19  24
ATOM     21  C   UNL     1       9.174  12.229  18.507  0.00  0.00    +0.000 A 
ATOM     22  C   UNL     1       8.269  11.762  17.547  0.00  0.00    +0.000 A 
ATOM     23  C   UNL     1       7.918  10.406  17.478  0.00  0.00    +0.000 A 
ATOM     24  C   UNL     1       8.499   9.480  18.350  0.00  0.00    +0.000 A 
ATOM     25  C   UNL     1       9.417   9.927  19.303  0.00  0.00    +0.000 A 
ATOM     26  C   UNL     1       9.753  11.285  19.369  0.00  0.00    +0.000 A 
BRANCH  21  28
ATOM     27  C   UNL     1      10.698  13.988  17.676  0.00  0.00    +0.000 C 
ATOM     28  N   UNL     1       9.640  13.541  18.562  0.00  0.00    +0.000 N 
ATOM     29  H   UNL     1       8.893  14.220  18.690  0.00  0.00    +0.000 HD
ENDBRANCH  21  28
ENDBRANCH  19  24
ENDBRANCH  18  19
ENDBRANCH   1  18
TORSDOF 5
ENDMDL
MODEL 5
REMARK VINA RESULT:      -8.0      1.386      2.168
REMARK  Name = 
REMARK  6 active torsions:
REMARK  status: ('A' for Active; 'I' for Inactive)
REMARK    1  A    between atoms: C_1  and  N_2
REMARK    2  A    between atoms: N_2  and  C_3
REMARK    3  A    between atoms: C_6  and  C_7
REMARK    4  A    between atoms: C_7  and  O_9
REMARK    5  A    between atoms: O_9  and  C_10
REMARK    6  A    between atoms: C_12  and  O_13
REMARK                            x       y       z     vdW  Elec       q    Type
REMARK                         _______ _______ _______ _____ _____    ______ ____
ROOT
ATOM      1  C   UNL     1       1.876   7.366  20.284  0.00  0.00    +0.000 A 
ATOM      2  C   UNL     1       2.059   7.926  19.022  0.00  0.00    +0.000 A 
ATOM      3  C   UNL     1       1.509   9.182  18.751  0.00  0.00    +0.000 A 
ATOM      4  C   UNL     1       0.771   9.854  19.733  0.00  0.00    +0.000 A 
ATOM      5  C   UNL     1      -0.083  11.032  19.461  0.00  0.00    +0.000 A 
ATOM      6  O   UNL     1      -0.101  11.638  18.399  0.00  0.00    +0.000 OA
ATOM      7  C   UNL     1      -0.985  11.442  20.553  0.00  0.00    +0.000 A 
ATOM      8  C   UNL     1      -2.093  12.257  20.316  0.00  0.00    +0.000 A 
ATOM      9  C   UNL     1      -2.873  12.686  21.391  0.00  0.00    +0.000 A 
ATOM     10  C   UNL     1      -2.513  12.344  22.696  0.00  0.00    +0.000 A 
ATOM     11  C   UNL     1      -1.430  11.494  22.922  0.00  0.00    +0.000 A 
ATOM     12  C   UNL     1      -0.706  10.996  21.839  0.00  0.00    +0.000 A 
ATOM     13  O   UNL     1       0.227  10.031  22.110  0.00  0.00    +0.000 OA
ATOM     14  C   UNL     1       0.743   9.346  21.035  0.00  0.00    +0.000 A 
ATOM     15  C   UNL     1       1.286   8.097  21.313  0.00  0.00    +0.000 A 
ENDROOT
BRANCH   3  16
ATOM     16  O   UNL     1       1.708   9.737  17.520  0.00  0.00    +0.000 OA
ATOM     17  H   UNL     1       2.194  10.573  17.610  0.00  0.00    +0.000 HD
ENDBRANCH   3  16
BRANCH   1  18
ATOM     18  O   UNL     1       2.404   6.095  20.534  0.00  0.00    +0.000 OA
BRANCH  18  19
ATOM     19  C   UNL     1       2.195   5.157  19.537  0.00  0.00    +0.000 C 
ATOM     20  O   UNL     1       1.186   4.486  19.351  0.00  0.00    +0.000 OA
BRANCH  19  24
ATOM     21  C   UNL     1       5.758   4.535  17.173  0.00  0.00    +0.000 A 
ATOM     22  C   UNL     1       4.477   4.373  16.633  0.00  0.00    +0.000 A 
ATOM     23  C   UNL     1       3.329   4.622  17.398  0.00  0.00    +0.000 A 
ATOM     24  C   UNL     1       3.442   5.004  18.739  0.00  0.00    +0.000 A 
ATOM     25  C   UNL     1       4.713   5.153  19.298  0.00  0.00    +0.000 A 
ATOM     26  C   UNL     1       5.853   4.911  18.522  0.00  0.00    +0.000 A 
BRANCH  21  28
ATOM     27  C   UNL     1       7.044   4.405  15.066  0.00  0.00    +0.000 C 
ATOM     28  N   UNL     1       6.933   4.207  16.499  0.00  0.00    +0.000 N 
ATOM     29  H   UNL     1       7.770   4.463  17.017  0.00  0.00    +0.000 HD
ENDBRANCH  21  28
ENDBRANCH  19  24
ENDBRANCH  18  19
ENDBRANCH   1  18
TORSDOF 5
ENDMDL
MODEL 6
REMARK VINA RESULT:      -8.0      3.588      8.511
REMARK  Name = 
REMARK  6 active torsions:
REMARK  status: ('A' for Active; 'I' for Inactive)
REMARK    1  A    between atoms: C_1  and  N_2
REMARK    2  A    between atoms: N_2  and  C_3
REMARK    3  A    between atoms: C_6  and  C_7
REMARK    4  A    between atoms: C_7  and  O_9
REMARK    5  A    between atoms: O_9  and  C_10
REMARK    6  A    between atoms: C_12  and  O_13
REMARK                            x       y       z     vdW  Elec       q    Type
REMARK                         _______ _______ _______ _____ _____    ______ ____
ROOT
ATOM      1  C   UNL     1       1.278   8.320  19.727  0.00  0.00    +0.000 A 
ATOM      2  C   UNL     1       1.334   7.283  20.656  0.00  0.00    +0.000 A 
ATOM      3  C   UNL     1       2.217   6.223  20.436  0.00  0.00    +0.000 A 
ATOM      4  C   UNL     1       3.018   6.201  19.287  0.00  0.00    +0.000 A 
ATOM      5  C   UNL     1       3.758   5.006  18.821  0.00  0.00    +0.000 A 
ATOM      6  O   UNL     1       3.885   3.978  19.471  0.00  0.00    +0.000 OA
ATOM      7  C   UNL     1       4.328   5.089  17.464  0.00  0.00    +0.000 A 
ATOM      8  C   UNL     1       4.698   3.943  16.758  0.00  0.00    +0.000 A 
ATOM      9  C   UNL     1       5.308   4.072  15.509  0.00  0.00    +0.000 A 
ATOM     10  C   UNL     1       5.592   5.341  14.998  0.00  0.00    +0.000 A 
ATOM     11  C   UNL     1       5.181   6.480  15.689  0.00  0.00    +0.000 A 
ATOM     12  C   UNL     1       4.493   6.346  16.895  0.00  0.00    +0.000 A 
ATOM     13  O   UNL     1       3.961   7.486  17.434  0.00  0.00    +0.000 OA
ATOM     14  C   UNL     1       3.061   7.327  18.461  0.00  0.00    +0.000 A 
ATOM     15  C   UNL     1       2.184   8.386  18.671  0.00  0.00    +0.000 A 
ENDROOT
BRANCH   3  16
ATOM     16  O   UNL     1       2.285   5.219  21.358  0.00  0.00    +0.000 OA
ATOM     17  H   UNL     1       1.754   5.450  22.137  0.00  0.00    +0.000 HD
ENDBRANCH   3  16
BRANCH   1  18
ATOM     18  O   UNL     1       0.368   9.360  19.942  0.00  0.00    +0.000 OA
BRANCH  18  19
ATOM     19  C   UNL     1       0.386  10.371  18.994  0.00  0.00    +0.000 C 
ATOM     20  O   UNL     1       1.336  11.080  18.686  0.00  0.00    +0.000 OA
BRANCH  19  24
ATOM     21  C   UNL     1      -3.513  10.909  17.208  0.00  0.00    +0.000 A 
ATOM     22  C   UNL     1      -2.597   9.973  16.714  0.00  0.00    +0.000 A 
ATOM     23  C   UNL     1      -1.354   9.777  17.330  0.00  0.00    +0.000 A 
ATOM     24  C   UNL     1      -0.984  10.545  18.439  0.00  0.00    +0.000 A 
ATOM     25  C   UNL     1      -1.880  11.497  18.934  0.00  0.00    +0.000 A 
ATOM     26  C   UNL     1      -3.123  11.678  18.316  0.00  0.00    +0.000 A 
BRANCH  21  28
ATOM     27  C   UNL     1      -5.695  12.067  17.243  0.00  0.00    +0.000 C 
ATOM     28  N   UNL     1      -4.718  11.223  16.583  0.00  0.00    +0.000 N 
ATOM     29  H   UNL     1      -4.609  11.415  15.590  0.00  0.00    +0.000 HD
ENDBRANCH  21  28
ENDBRANCH  19  24
ENDBRANCH  18  19
ENDBRANCH   1  18
TORSDOF 5
ENDMDL
MODEL 7
REMARK VINA RESULT:      -7.8      2.179      4.162
REMARK  Name = 
REMARK  6 active torsions:
REMARK  status: ('A' for Active; 'I' for Inactive)
REMARK    1  A    between atoms: C_1  and  N_2
REMARK    2  A    between atoms: N_2  and  C_3
REMARK    3  A    between atoms: C_6  and  C_7
REMARK    4  A    between atoms: C_7  and  O_9
REMARK    5  A    between atoms: O_9  and  C_10
REMARK    6  A    between atoms: C_12  and  O_13
REMARK                            x       y       z     vdW  Elec       q    Type
REMARK                         _______ _______ _______ _____ _____    ______ ____
ROOT
ATOM      1  C   UNL     1       5.534   5.223  18.043  0.00  0.00    +0.000 A 
ATOM      2  C   UNL     1       4.943   4.382  18.984  0.00  0.00    +0.000 A 
ATOM      3  C   UNL     1       3.738   4.769  19.576  0.00  0.00    +0.000 A 
ATOM      4  C   UNL     1       3.147   5.992  19.237  0.00  0.00    +0.000 A 
ATOM      5  C   UNL     1       2.046   6.617  20.004  0.00  0.00    +0.000 A 
ATOM      6  O   UNL     1       1.430   6.060  20.902  0.00  0.00    +0.000 OA
ATOM      7  C   UNL     1       1.733   8.016  19.661  0.00  0.00    +0.000 A 
ATOM      8  C   UNL     1       1.016   8.837  20.533  0.00  0.00    +0.000 A 
ATOM      9  C   UNL     1       0.672  10.129  20.133  0.00  0.00    +0.000 A 
ATOM     10  C   UNL     1       0.999  10.575  18.850  0.00  0.00    +0.000 A 
ATOM     11  C   UNL     1       1.752   9.764  18.000  0.00  0.00    +0.000 A 
ATOM     12  C   UNL     1       2.169   8.507  18.436  0.00  0.00    +0.000 A 
ATOM     13  O   UNL     1       3.051   7.835  17.633  0.00  0.00    +0.000 OA
ATOM     14  C   UNL     1       3.673   6.735  18.176  0.00  0.00    +0.000 A 
ATOM     15  C   UNL     1       4.872   6.359  17.582  0.00  0.00    +0.000 A 
ENDROOT
BRANCH   3  16
ATOM     16  O   UNL     1       3.151   3.933  20.482  0.00  0.00    +0.000 OA
ATOM     17  H   UNL     1       3.388   4.206  21.383  0.00  0.00    +0.000 HD
ENDBRANCH   3  16
BRANCH   1  18
ATOM     18  O   UNL     1       6.756   4.842  17.480  0.00  0.00    +0.000 OA
BRANCH  18  19
ATOM     19  C   UNL     1       7.149   5.563  16.364  0.00  0.00    +0.000 C 
ATOM     20  O   UNL     1       7.673   6.670  16.346  0.00  0.00    +0.000 OA
BRANCH  19  24
ATOM     21  C   UNL     1       5.984   3.575  12.708  0.00  0.00    +0.000 A 
ATOM     22  C   UNL     1       7.067   4.459  12.754  0.00  0.00    +0.000 A 
ATOM     23  C   UNL     1       7.463   5.063  13.956  0.00  0.00    +0.000 A 
ATOM     24  C   UNL     1       6.753   4.820  15.137  0.00  0.00    +0.000 A 
ATOM     25  C   UNL     1       5.658   3.953  15.104  0.00  0.00    +0.000 A 
ATOM     26  C   UNL     1       5.278   3.349  13.900  0.00  0.00    +0.000 A 
BRANCH  21  28
ATOM     27  C   UNL     1       4.071   3.141  11.205  0.00  0.00    +0.000 C 
ATOM     28  N   UNL     1       5.479   3.024  11.532  0.00  0.00    +0.000 N 
ATOM     29  H   UNL     1       6.101   3.155  10.737  0.00  0.00    +0.000 HD
ENDBRANCH  21  28
ENDBRANCH  19  24
ENDBRANCH  18  19
ENDBRANCH   1  18
TORSDOF 5
ENDMDL
MODEL 8
REMARK VINA RESULT:      -7.8      3.749      8.815
REMARK  Name = 
REMARK  6 active torsions:
REMARK  status: ('A' for Active; 'I' for Inactive)
REMARK    1  A    between atoms: C_1  and  N_2
REMARK    2  A    between atoms: N_2  and  C_3
REMARK    3  A    between atoms: C_6  and  C_7
REMARK    4  A    between atoms: C_7  and  O_9
REMARK    5  A    between atoms: O_9  and  C_10
REMARK    6  A    between atoms: C_12  and  O_13
REMARK                            x       y       z     vdW  Elec       q    Type
REMARK                         _______ _______ _______ _____ _____    ______ ____
ROOT
ATOM      1  C   UNL     1       1.265   9.477  18.599  0.00  0.00    +0.000 A 
ATOM      2  C   UNL     1       1.107   8.842  19.829  0.00  0.00    +0.000 A 
ATOM      3  C   UNL     1       1.843   7.684  20.093  0.00  0.00    +0.000 A 
ATOM      4  C   UNL     1       2.711   7.165  19.124  0.00  0.00    +0.000 A 
ATOM      5  C   UNL     1       3.304   5.810  19.190  0.00  0.00    +0.000 A 
ATOM      6  O   UNL     1       3.237   5.076  20.165  0.00  0.00    +0.000 OA
ATOM      7  C   UNL     1       3.974   5.339  17.964  0.00  0.00    +0.000 A 
ATOM      8  C   UNL     1       4.226   3.984  17.746  0.00  0.00    +0.000 A 
ATOM      9  C   UNL     1       4.934   3.590  16.610  0.00  0.00    +0.000 A 
ATOM     10  C   UNL     1       5.432   4.553  15.728  0.00  0.00    +0.000 A 
ATOM     11  C   UNL     1       5.140   5.902  15.929  0.00  0.00    +0.000 A 
ATOM     12  C   UNL     1       4.357   6.283  17.018  0.00  0.00    +0.000 A 
ATOM     13  O   UNL     1       3.956   7.592  17.064  0.00  0.00    +0.000 OA
ATOM     14  C   UNL     1       2.972   7.909  17.970  0.00  0.00    +0.000 A 
ATOM     15  C   UNL     1       2.243   9.062  17.699  0.00  0.00    +0.000 A 
ENDROOT
BRANCH   3  16
ATOM     16  O   UNL     1       1.702   7.076  21.307  0.00  0.00    +0.000 OA
ATOM     17  H   UNL     1       0.782   6.788  21.426  0.00  0.00    +0.000 HD
ENDBRANCH   3  16
BRANCH   1  18
ATOM     18  O   UNL     1       0.500  10.618  18.333  0.00  0.00    +0.000 OA
BRANCH  18  19
ATOM     19  C   UNL     1      -0.301  11.054  19.376  0.00  0.00    +0.000 C 
ATOM     20  O   UNL     1       0.056  11.338  20.514  0.00  0.00    +0.000 OA
BRANCH  19  24
ATOM     21  C   UNL     1      -4.369  11.048  17.919  0.00  0.00    +0.000 A 
ATOM     22  C   UNL     1      -3.432  10.100  17.493  0.00  0.00    +0.000 A 
ATOM     23  C   UNL     1      -2.128  10.085  18.008  0.00  0.00    +0.000 A 
ATOM     24  C   UNL     1      -1.723  11.049  18.937  0.00  0.00    +0.000 A 
ATOM     25  C   UNL     1      -2.642  12.014  19.359  0.00  0.00    +0.000 A 
ATOM     26  C   UNL     1      -3.944  12.013  18.845  0.00  0.00    +0.000 A 
BRANCH  21  28
ATOM     27  C   UNL     1      -6.815  11.220  18.229  0.00  0.00    +0.000 C 
ATOM     28  N   UNL     1      -5.645  11.179  17.373  0.00  0.00    +0.000 N 
ATOM     29  H   UNL     1      -5.676  11.837  16.598  0.00  0.00    +0.000 HD
ENDBRANCH  21  28
ENDBRANCH  19  24
ENDBRANCH  18  19
ENDBRANCH   1  18
TORSDOF 5
ENDMDL
MODEL 9
REMARK VINA RESULT:      -7.7      3.350      9.013
REMARK  Name = 
REMARK  6 active torsions:
REMARK  status: ('A' for Active; 'I' for Inactive)
REMARK    1  A    between atoms: C_1  and  N_2
REMARK    2  A    between atoms: N_2  and  C_3
REMARK    3  A    between atoms: C_6  and  C_7
REMARK    4  A    between atoms: C_7  and  O_9
REMARK    5  A    between atoms: O_9  and  C_10
REMARK    6  A    between atoms: C_12  and  O_13
REMARK                            x       y       z     vdW  Elec       q    Type
REMARK                         _______ _______ _______ _____ _____    ______ ____
ROOT
ATOM      1  C   UNL     1       1.188   9.406  18.792  0.00  0.00    +0.000 A 
ATOM      2  C   UNL     1       1.098   8.689  19.983  0.00  0.00    +0.000 A 
ATOM      3  C   UNL     1       1.896   7.555  20.154  0.00  0.00    +0.000 A 
ATOM      4  C   UNL     1       2.759   7.141  19.131  0.00  0.00    +0.000 A 
ATOM      5  C   UNL     1       3.419   5.817  19.094  0.00  0.00    +0.000 A 
ATOM      6  O   UNL     1       3.416   5.020  20.022  0.00  0.00    +0.000 OA
ATOM      7  C   UNL     1       4.073   5.456  17.823  0.00  0.00    +0.000 A 
ATOM      8  C   UNL     1       4.383   4.131  17.513  0.00  0.00    +0.000 A 
ATOM      9  C   UNL     1       5.075   3.845  16.335  0.00  0.00    +0.000 A 
ATOM     10  C   UNL     1       5.498   4.884  15.503  0.00  0.00    +0.000 A 
ATOM     11  C   UNL     1       5.149   6.201  15.798  0.00  0.00    +0.000 A 
ATOM     12  C   UNL     1       4.381   6.475  16.929  0.00  0.00    +0.000 A 
ATOM     13  O   UNL     1       3.920   7.757  17.069  0.00  0.00    +0.000 OA
ATOM     14  C   UNL     1       2.949   7.968  18.020  0.00  0.00    +0.000 A 
ATOM     15  C   UNL     1       2.157   9.097  17.841  0.00  0.00    +0.000 A 
ENDROOT
BRANCH   3  16
ATOM     16  O   UNL     1       1.821   6.867  21.330  0.00  0.00    +0.000 OA
ATOM     17  H   UNL     1       0.934   6.961  21.711  0.00  0.00    +0.000 HD
ENDBRANCH   3  16
BRANCH   1  18
ATOM     18  O   UNL     1       0.361  10.522  18.620  0.00  0.00    +0.000 OA
BRANCH  18  19
ATOM     19  C   UNL     1       0.663  11.615  19.416  0.00  0.00    +0.000 C 
ATOM     20  O   UNL     1       1.726  12.222  19.467  0.00  0.00    +0.000 OA
BRANCH  19  24
ATOM     21  C   UNL     1      -2.706  12.293  22.036  0.00  0.00    +0.000 A 
ATOM     22  C   UNL     1      -1.507  11.743  22.503  0.00  0.00    +0.000 A 
ATOM     23  C   UNL     1      -0.407  11.570  21.652  0.00  0.00    +0.000 A 
ATOM     24  C   UNL     1      -0.497  11.912  20.299  0.00  0.00    +0.000 A 
ATOM     25  C   UNL     1      -1.693  12.447  19.813  0.00  0.00    +0.000 A 
ATOM     26  C   UNL     1      -2.783  12.624  20.674  0.00  0.00    +0.000 A 
BRANCH  21  28
ATOM     27  C   UNL     1      -3.805  12.866  24.174  0.00  0.00    +0.000 C 
ATOM     28  N   UNL     1      -3.865  12.396  22.803  0.00  0.00    +0.000 N 
ATOM     29  H   UNL     1      -4.656  12.759  22.276  0.00  0.00    +0.000 HD
ENDBRANCH  21  28
ENDBRANCH  19  24
ENDBRANCH  18  19
ENDBRANCH   1  18
TORSDOF 5
ENDMDL
