MODEL 1
REMARK VINA RESULT:      -7.2      0.000      0.000
REMARK  Name = 
REMARK  16 active torsions:
REMARK  status: ('A' for Active; 'I' for Inactive)
REMARK    1  A    between atoms: C_1  and  C_2
REMARK    2  A    between atoms: C_2  and  C_3
REMARK    3  A    between atoms: C_2  and  C_4
REMARK    4  A    between atoms: C_4  and  C_5
REMARK    5  A    between atoms: C_5  and  C_6
REMARK    6  A    between atoms: C_6  and  N_7
REMARK    7  A    between atoms: N_7  and  C_8
REMARK    8  A    between atoms: N_7  and  C_14
REMARK    9  A    between atoms: C_8  and  C_9
REMARK   10  A    between atoms: C_9  and  C_10
REMARK   11  A    between atoms: C_10  and  C_11
REMARK   12  A    between atoms: C_11  and  C_12
REMARK   13  A    between atoms: C_11  and  C_13
REMARK   14  A    between atoms: C_14  and  C_15
REMARK   15  A    between atoms: C_15  and  O_16
REMARK   16  A    between atoms: C_15  and  C_17
REMARK                            x       y       z     vdW  Elec       q    Type
REMARK                         _______ _______ _______ _____ _____    ______ ____
ROOT
ATOM      1  C   UNL     1       3.602   3.362  16.971  0.00  0.00    +0.000 C 
ENDROOT
BRANCH   1   2
ATOM      2  C   UNL     1       3.096   4.350  18.018  0.00  0.00    +0.000 A 
ATOM      3  C   UNL     1       2.896   5.686  17.626  0.00  0.00    +0.000 A 
ATOM      4  C   UNL     1       2.387   6.656  18.494  0.00  0.00    +0.000 A 
ATOM      5  C   UNL     1       2.059   6.294  19.802  0.00  0.00    +0.000 A 
ATOM      6  C   UNL     1       2.230   4.936  20.235  0.00  0.00    +0.000 A 
ATOM      7  C   UNL     1       1.886   4.515  21.544  0.00  0.00    +0.000 A 
ATOM      8  C   UNL     1       2.034   3.195  21.976  0.00  0.00    +0.000 A 
ATOM      9  C   UNL     1       2.540   2.248  21.109  0.00  0.00    +0.000 A 
ATOM     10  C   UNL     1       2.895   2.628  19.814  0.00  0.00    +0.000 A 
ATOM     11  C   UNL     1       2.751   3.959  19.342  0.00  0.00    +0.000 A 
ATOM     12  C   UNL     1       1.555   7.333  20.770  0.00  0.00    +0.000 C 
ATOM     13  C   UNL     1       1.293   8.750  20.274  0.00  0.00    +0.000 C 
ATOM     14  C   UNL     1       1.782   9.141  18.894  0.00  0.00    +0.000 C 
ATOM     15  C   UNL     1       2.190   8.034  17.936  0.00  0.00    +0.000 C 
ENDBRANCH   1   2
BRANCH   1  16
ATOM     16  O   UNL     1       4.625   2.532  17.540  0.00  0.00    +0.000 OA
ATOM     17  H   UNL     1       4.218   2.074  18.297  0.00  0.00    +0.000 HD
ENDBRANCH   1  16
BRANCH   1  18
ATOM     18  C   UNL     1       4.156   4.138  15.739  0.00  0.00    +0.000 C 
BRANCH  18  19
ATOM     19  N   UNL     1       5.611   4.508  15.773  0.00  0.00    +0.000 NA
BRANCH  19  20
ATOM     20  C   UNL     1       6.318   3.765  14.699  0.00  0.00    +0.000 C 
BRANCH  20  21
ATOM     21  C   UNL     1       7.017   4.541  13.565  0.00  0.00    +0.000 C 
BRANCH  21  22
ATOM     22  C   UNL     1       6.654   4.107  12.140  0.00  0.00    +0.000 C 
BRANCH  22  24
ATOM     23  C   UNL     1       4.333   3.320  11.481  0.00  0.00    +0.000 C 
ATOM     24  C   UNL     1       5.665   2.914  12.119  0.00  0.00    +0.000 C 
ATOM     25  C   UNL     1       6.223   1.692  11.383  0.00  0.00    +0.000 C 
ENDBRANCH  22  24
ENDBRANCH  21  22
ENDBRANCH  20  21
ENDBRANCH  19  20
BRANCH  19  26
ATOM     26  C   UNL     1       5.739   5.971  15.563  0.00  0.00    +0.000 C 
BRANCH  26  27
ATOM     27  C   UNL     1       6.209   6.787  16.786  0.00  0.00    +0.000 C 
BRANCH  27  28
ATOM     28  C   UNL     1       7.409   6.192  17.534  0.00  0.00    +0.000 C 
BRANCH  28  29
ATOM     29  C   UNL     1       7.214   6.049  19.055  0.00  0.00    +0.000 C 
ATOM     30  C   UNL     1       6.004   5.178  19.399  0.00  0.00    +0.000 C 
ATOM     31  C   UNL     1       8.474   5.471  19.700  0.00  0.00    +0.000 C 
ENDBRANCH  28  29
ENDBRANCH  27  28
ENDBRANCH  26  27
ENDBRANCH  19  26
ENDBRANCH  18  19
ENDBRANCH   1  18
TORSDOF 12
ENDMDL
MODEL 2
REMARK VINA RESULT:      -7.1      1.013      1.562
REMARK  Name = 
REMARK  16 active torsions:
REMARK  status: ('A' for Active; 'I' for Inactive)
REMARK    1  A    between atoms: C_1  and  C_2
REMARK    2  A    between atoms: C_2  and  C_3
REMARK    3  A    between atoms: C_2  and  C_4
REMARK    4  A    between atoms: C_4  and  C_5
REMARK    5  A    between atoms: C_5  and  C_6
REMARK    6  A    between atoms: C_6  and  N_7
REMARK    7  A    between atoms: N_7  and  C_8
REMARK    8  A    between atoms: N_7  and  C_14
REMARK    9  A    between atoms: C_8  and  C_9
REMARK   10  A    between atoms: C_9  and  C_10
REMARK   11  A    between atoms: C_10  and  C_11
REMARK   12  A    between atoms: C_11  and  C_12
REMARK   13  A    between atoms: C_11  and  C_13
REMARK   14  A    between atoms: C_14  and  C_15
REMARK   15  A    between atoms: C_15  and  O_16
REMARK   16  A    between atoms: C_15  and  C_17
REMARK                            x       y       z     vdW  Elec       q    Type
REMARK                         _______ _______ _______ _____ _____    ______ ____
ROOT
ATOM      1  C   UNL     1       3.745   4.188  16.789  0.00  0.00    +0.000 C 
ENDROOT
BRANCH   1   2
ATOM      2  C   UNL     1       3.173   5.035  17.922  0.00  0.00    +0.000 A 
ATOM      3  C   UNL     1       2.863   6.380  17.651  0.00  0.00    +0.000 A 
ATOM      4  C   UNL     1       2.287   7.225  18.605  0.00  0.00    +0.000 A 
ATOM      5  C   UNL     1       2.003   6.723  19.876  0.00  0.00    +0.000 A 
ATOM      6  C   UNL     1       2.287   5.350  20.186  0.00  0.00    +0.000 A 
ATOM      7  C   UNL     1       1.992   4.788  21.452  0.00  0.00    +0.000 A 
ATOM      8  C   UNL     1       2.249   3.451  21.764  0.00  0.00    +0.000 A 
ATOM      9  C   UNL     1       2.820   2.629  20.814  0.00  0.00    +0.000 A 
ATOM     10  C   UNL     1       3.129   3.150  19.557  0.00  0.00    +0.000 A 
ATOM     11  C   UNL     1       2.875   4.501  19.207  0.00  0.00    +0.000 A 
ATOM     12  C   UNL     1       1.428   7.628  20.935  0.00  0.00    +0.000 C 
ATOM     13  C   UNL     1       1.049   9.057  20.569  0.00  0.00    +0.000 C 
ATOM     14  C   UNL     1       1.490   9.607  19.227  0.00  0.00    +0.000 C 
ATOM     15  C   UNL     1       1.975   8.627  18.173  0.00  0.00    +0.000 C 
ENDBRANCH   1   2
BRANCH   1  16
ATOM     16  O   UNL     1       2.903   3.048  16.560  0.00  0.00    +0.000 OA
ATOM     17  H   UNL     1       3.221   2.632  15.738  0.00  0.00    +0.000 HD
ENDBRANCH   1  16
BRANCH   1  18
ATOM     18  C   UNL     1       5.190   3.731  17.150  0.00  0.00    +0.000 C 
BRANCH  18  19
ATOM     19  N   UNL     1       6.248   3.949  16.107  0.00  0.00    +0.000 NA
BRANCH  19  20
ATOM     20  C   UNL     1       5.728   4.899  15.091  0.00  0.00    +0.000 C 
BRANCH  20  21
ATOM     21  C   UNL     1       5.943   4.609  13.592  0.00  0.00    +0.000 C 
BRANCH  21  22
ATOM     22  C   UNL     1       5.863   3.133  13.182  0.00  0.00    +0.000 C 
BRANCH  22  24
ATOM     23  C   UNL     1       5.908   1.533  11.214  0.00  0.00    +0.000 C 
ATOM     24  C   UNL     1       5.573   2.955  11.671  0.00  0.00    +0.000 C 
ATOM     25  C   UNL     1       4.120   3.272  11.302  0.00  0.00    +0.000 C 
ENDBRANCH  22  24
ENDBRANCH  21  22
ENDBRANCH  20  21
ENDBRANCH  19  20
BRANCH  19  26
ATOM     26  C   UNL     1       7.461   4.498  16.760  0.00  0.00    +0.000 C 
BRANCH  26  27
ATOM     27  C   UNL     1       7.375   4.682  18.290  0.00  0.00    +0.000 C 
BRANCH  27  28
ATOM     28  C   UNL     1       7.183   6.131  18.755  0.00  0.00    +0.000 C 
BRANCH  28  29
ATOM     29  C   UNL     1       7.373   7.192  17.654  0.00  0.00    +0.000 C 
ATOM     30  C   UNL     1       6.044   7.816  17.224  0.00  0.00    +0.000 C 
ATOM     31  C   UNL     1       8.333   8.282  18.130  0.00  0.00    +0.000 C 
ENDBRANCH  28  29
ENDBRANCH  27  28
ENDBRANCH  26  27
ENDBRANCH  19  26
ENDBRANCH  18  19
ENDBRANCH   1  18
TORSDOF 12
ENDMDL
MODEL 3
REMARK VINA RESULT:      -7.0      3.723      8.277
REMARK  Name = 
REMARK  16 active torsions:
REMARK  status: ('A' for Active; 'I' for Inactive)
REMARK    1  A    between atoms: C_1  and  C_2
REMARK    2  A    between atoms: C_2  and  C_3
REMARK    3  A    between atoms: C_2  and  C_4
REMARK    4  A    between atoms: C_4  and  C_5
REMARK    5  A    between atoms: C_5  and  C_6
REMARK    6  A    between atoms: C_6  and  N_7
REMARK    7  A    between atoms: N_7  and  C_8
REMARK    8  A    between atoms: N_7  and  C_14
REMARK    9  A    between atoms: C_8  and  C_9
REMARK   10  A    between atoms: C_9  and  C_10
REMARK   11  A    between atoms: C_10  and  C_11
REMARK   12  A    between atoms: C_11  and  C_12
REMARK   13  A    between atoms: C_11  and  C_13
REMARK   14  A    between atoms: C_14  and  C_15
REMARK   15  A    between atoms: C_15  and  O_16
REMARK   16  A    between atoms: C_15  and  C_17
REMARK                            x       y       z     vdW  Elec       q    Type
REMARK                         _______ _______ _______ _____ _____    ______ ____
ROOT
ATOM      1  C   UNL     1       2.164   7.883  19.968  0.00  0.00    +0.000 C 
ENDROOT
BRANCH   1   2
ATOM      2  C   UNL     1       2.675   6.742  19.092  0.00  0.00    +0.000 A 
ATOM      3  C   UNL     1       3.586   7.053  18.067  0.00  0.00    +0.000 A 
ATOM      4  C   UNL     1       4.153   6.075  17.244  0.00  0.00    +0.000 A 
ATOM      5  C   UNL     1       3.808   4.737  17.440  0.00  0.00    +0.000 A 
ATOM      6  C   UNL     1       2.895   4.377  18.489  0.00  0.00    +0.000 A 
ATOM      7  C   UNL     1       2.536   3.030  18.743  0.00  0.00    +0.000 A 
ATOM      8  C   UNL     1       1.660   2.663  19.768  0.00  0.00    +0.000 A 
ATOM      9  C   UNL     1       1.107   3.639  20.572  0.00  0.00    +0.000 A 
ATOM     10  C   UNL     1       1.434   4.976  20.346  0.00  0.00    +0.000 A 
ATOM     11  C   UNL     1       2.324   5.382  19.318  0.00  0.00    +0.000 A 
ATOM     12  C   UNL     1       4.367   3.671  16.533  0.00  0.00    +0.000 C 
ATOM     13  C   UNL     1       5.403   4.054  15.483  0.00  0.00    +0.000 C 
ATOM     14  C   UNL     1       5.654   5.523  15.208  0.00  0.00    +0.000 C 
ATOM     15  C   UNL     1       5.138   6.540  16.212  0.00  0.00    +0.000 C 
ENDBRANCH   1   2
BRANCH   1  16
ATOM     16  O   UNL     1       1.730   7.366  21.235  0.00  0.00    +0.000 OA
ATOM     17  H   UNL     1       1.794   6.396  21.173  0.00  0.00    +0.000 HD
ENDBRANCH   1  16
BRANCH   1  18
ATOM     18  C   UNL     1       0.991   8.614  19.250  0.00  0.00    +0.000 C 
BRANCH  18  19
ATOM     19  N   UNL     1       0.624   9.974  19.770  0.00  0.00    +0.000 NA
BRANCH  19  20
ATOM     20  C   UNL     1       0.075  10.781  18.651  0.00  0.00    +0.000 C 
BRANCH  20  21
ATOM     21  C   UNL     1      -1.249  11.548  18.840  0.00  0.00    +0.000 C 
BRANCH  21  22
ATOM     22  C   UNL     1      -2.083  11.760  17.570  0.00  0.00    +0.000 C 
BRANCH  22  24
ATOM     23  C   UNL     1      -4.517  11.160  17.175  0.00  0.00    +0.000 C 
ATOM     24  C   UNL     1      -3.096  10.612  17.330  0.00  0.00    +0.000 C 
ATOM     25  C   UNL     1      -2.750   9.760  16.104  0.00  0.00    +0.000 C 
ENDBRANCH  22  24
ENDBRANCH  21  22
ENDBRANCH  20  21
ENDBRANCH  19  20
BRANCH  19  26
ATOM     26  C   UNL     1      -0.386   9.821  20.845  0.00  0.00    +0.000 C 
BRANCH  26  27
ATOM     27  C   UNL     1       0.011  10.386  22.225  0.00  0.00    +0.000 C 
BRANCH  27  28
ATOM     28  C   UNL     1      -1.170  10.762  23.131  0.00  0.00    +0.000 C 
BRANCH  28  29
ATOM     29  C   UNL     1      -1.910  12.049  22.723  0.00  0.00    +0.000 C 
ATOM     30  C   UNL     1      -3.203  12.243  23.518  0.00  0.00    +0.000 C 
ATOM     31  C   UNL     1      -0.999  13.264  22.902  0.00  0.00    +0.000 C 
ENDBRANCH  28  29
ENDBRANCH  27  28
ENDBRANCH  26  27
ENDBRANCH  19  26
ENDBRANCH  18  19
ENDBRANCH   1  18
TORSDOF 12
ENDMDL
MODEL 4
REMARK VINA RESULT:      -6.9      3.668      8.091
REMARK  Name = 
REMARK  16 active torsions:
REMARK  status: ('A' for Active; 'I' for Inactive)
REMARK    1  A    between atoms: C_1  and  C_2
REMARK    2  A    between atoms: C_2  and  C_3
REMARK    3  A    between atoms: C_2  and  C_4
REMARK    4  A    between atoms: C_4  and  C_5
REMARK    5  A    between atoms: C_5  and  C_6
REMARK    6  A    between atoms: C_6  and  N_7
REMARK    7  A    between atoms: N_7  and  C_8
REMARK    8  A    between atoms: N_7  and  C_14
REMARK    9  A    between atoms: C_8  and  C_9
REMARK   10  A    between atoms: C_9  and  C_10
REMARK   11  A    between atoms: C_10  and  C_11
REMARK   12  A    between atoms: C_11  and  C_12
REMARK   13  A    between atoms: C_11  and  C_13
REMARK   14  A    between atoms: C_14  and  C_15
REMARK   15  A    between atoms: C_15  and  O_16
REMARK   16  A    between atoms: C_15  and  C_17
REMARK                            x       y       z     vdW  Elec       q    Type
REMARK                         _______ _______ _______ _____ _____    ______ ____
ROOT
ATOM      1  C   UNL     1       2.029   8.107  19.998  0.00  0.00    +0.000 C 
ENDROOT
BRANCH   1   2
ATOM      2  C   UNL     1       2.555   6.954  19.148  0.00  0.00    +0.000 A 
ATOM      3  C   UNL     1       3.464   7.253  18.118  0.00  0.00    +0.000 A 
ATOM      4  C   UNL     1       4.044   6.265  17.316  0.00  0.00    +0.000 A 
ATOM      5  C   UNL     1       3.714   4.927  17.541  0.00  0.00    +0.000 A 
ATOM      6  C   UNL     1       2.804   4.578  18.596  0.00  0.00    +0.000 A 
ATOM      7  C   UNL     1       2.461   3.234  18.879  0.00  0.00    +0.000 A 
ATOM      8  C   UNL     1       1.588   2.878  19.910  0.00  0.00    +0.000 A 
ATOM      9  C   UNL     1       1.022   3.864  20.692  0.00  0.00    +0.000 A 
ATOM     10  C   UNL     1       1.333   5.200  20.438  0.00  0.00    +0.000 A 
ATOM     11  C   UNL     1       2.220   5.594  19.403  0.00  0.00    +0.000 A 
ATOM     12  C   UNL     1       4.288   3.848  16.658  0.00  0.00    +0.000 C 
ATOM     13  C   UNL     1       5.321   4.221  15.601  0.00  0.00    +0.000 C 
ATOM     14  C   UNL     1       5.555   5.687  15.296  0.00  0.00    +0.000 C 
ATOM     15  C   UNL     1       5.025   6.719  16.277  0.00  0.00    +0.000 C 
ENDBRANCH   1   2
BRANCH   1  16
ATOM     16  O   UNL     1       1.605   7.613  21.278  0.00  0.00    +0.000 OA
ATOM     17  H   UNL     1       2.388   7.639  21.856  0.00  0.00    +0.000 HD
ENDBRANCH   1  16
BRANCH   1  18
ATOM     18  C   UNL     1       0.844   8.804  19.266  0.00  0.00    +0.000 C 
BRANCH  18  19
ATOM     19  N   UNL     1       0.939  10.292  19.093  0.00  0.00    +0.000 NA
BRANCH  19  20
ATOM     20  C   UNL     1      -0.183  10.746  18.232  0.00  0.00    +0.000 C 
BRANCH  20  21
ATOM     21  C   UNL     1      -1.106   9.704  17.568  0.00  0.00    +0.000 C 
BRANCH  21  22
ATOM     22  C   UNL     1      -2.610   9.970  17.696  0.00  0.00    +0.000 C 
BRANCH  22  24
ATOM     23  C   UNL     1      -3.027  10.675  15.294  0.00  0.00    +0.000 C 
ATOM     24  C   UNL     1      -3.091  11.108  16.761  0.00  0.00    +0.000 C 
ATOM     25  C   UNL     1      -4.513  11.582  17.084  0.00  0.00    +0.000 C 
ENDBRANCH  22  24
ENDBRANCH  21  22
ENDBRANCH  20  21
ENDBRANCH  19  20
BRANCH  19  26
ATOM     26  C   UNL     1       0.863  10.936  20.427  0.00  0.00    +0.000 C 
BRANCH  26  27
ATOM     27  C   UNL     1      -0.109  12.128  20.544  0.00  0.00    +0.000 C 
BRANCH  27  28
ATOM     28  C   UNL     1      -1.450  11.803  21.215  0.00  0.00    +0.000 C 
BRANCH  28  29
ATOM     29  C   UNL     1      -1.407  11.757  22.754  0.00  0.00    +0.000 C 
ATOM     30  C   UNL     1      -2.747  12.152  23.377  0.00  0.00    +0.000 C 
ATOM     31  C   UNL     1      -0.999  10.363  23.231  0.00  0.00    +0.000 C 
ENDBRANCH  28  29
ENDBRANCH  27  28
ENDBRANCH  26  27
ENDBRANCH  19  26
ENDBRANCH  18  19
ENDBRANCH   1  18
TORSDOF 12
ENDMDL
MODEL 5
REMARK VINA RESULT:      -6.9      2.993      6.185
REMARK  Name = 
REMARK  16 active torsions:
REMARK  status: ('A' for Active; 'I' for Inactive)
REMARK    1  A    between atoms: C_1  and  C_2
REMARK    2  A    between atoms: C_2  and  C_3
REMARK    3  A    between atoms: C_2  and  C_4
REMARK    4  A    between atoms: C_4  and  C_5
REMARK    5  A    between atoms: C_5  and  C_6
REMARK    6  A    between atoms: C_6  and  N_7
REMARK    7  A    between atoms: N_7  and  C_8
REMARK    8  A    between atoms: N_7  and  C_14
REMARK    9  A    between atoms: C_8  and  C_9
REMARK   10  A    between atoms: C_9  and  C_10
REMARK   11  A    between atoms: C_10  and  C_11
REMARK   12  A    between atoms: C_11  and  C_12
REMARK   13  A    between atoms: C_11  and  C_13
REMARK   14  A    between atoms: C_14  and  C_15
REMARK   15  A    between atoms: C_15  and  O_16
REMARK   16  A    between atoms: C_15  and  C_17
REMARK                            x       y       z     vdW  Elec       q    Type
REMARK                         _______ _______ _______ _____ _____    ______ ____
ROOT
ATOM      1  C   UNL     1       8.014   5.559  18.629  0.00  0.00    +0.000 C 
ENDROOT
BRANCH   1   2
ATOM      2  C   UNL     1       6.762   4.808  18.184  0.00  0.00    +0.000 A 
ATOM      3  C   UNL     1       5.821   4.452  19.166  0.00  0.00    +0.000 A 
ATOM      4  C   UNL     1       4.618   3.810  18.857  0.00  0.00    +0.000 A 
ATOM      5  C   UNL     1       4.332   3.507  17.525  0.00  0.00    +0.000 A 
ATOM      6  C   UNL     1       5.259   3.871  16.490  0.00  0.00    +0.000 A 
ATOM      7  C   UNL     1       4.999   3.609  15.123  0.00  0.00    +0.000 A 
ATOM      8  C   UNL     1       5.885   3.968  14.104  0.00  0.00    +0.000 A 
ATOM      9  C   UNL     1       7.069   4.600  14.424  0.00  0.00    +0.000 A 
ATOM     10  C   UNL     1       7.360   4.869  15.761  0.00  0.00    +0.000 A 
ATOM     11  C   UNL     1       6.480   4.522  16.819  0.00  0.00    +0.000 A 
ATOM     12  C   UNL     1       3.065   2.770  17.173  0.00  0.00    +0.000 C 
ATOM     13  C   UNL     1       2.048   2.470  18.267  0.00  0.00    +0.000 C 
ATOM     14  C   UNL     1       2.446   2.691  19.713  0.00  0.00    +0.000 C 
ATOM     15  C   UNL     1       3.688   3.519  19.997  0.00  0.00    +0.000 C 
ENDBRANCH   1   2
BRANCH   1  16
ATOM     16  O   UNL     1       8.432   5.088  19.918  0.00  0.00    +0.000 OA
ATOM     17  H   UNL     1       9.406   5.136  19.927  0.00  0.00    +0.000 HD
ENDBRANCH   1  16
BRANCH   1  18
ATOM     18  C   UNL     1       7.722   7.088  18.678  0.00  0.00    +0.000 C 
BRANCH  18  19
ATOM     19  N   UNL     1       7.709   7.816  17.365  0.00  0.00    +0.000 NA
BRANCH  19  20
ATOM     20  C   UNL     1       6.329   7.790  16.818  0.00  0.00    +0.000 C 
BRANCH  20  21
ATOM     21  C   UNL     1       5.125   7.788  17.782  0.00  0.00    +0.000 C 
BRANCH  21  22
ATOM     22  C   UNL     1       3.849   7.125  17.251  0.00  0.00    +0.000 C 
BRANCH  22  24
ATOM     23  C   UNL     1       1.850   8.558  17.876  0.00  0.00    +0.000 C 
ATOM     24  C   UNL     1       2.648   7.297  18.215  0.00  0.00    +0.000 C 
ATOM     25  C   UNL     1       1.704   6.089  18.212  0.00  0.00    +0.000 C 
ENDBRANCH  22  24
ENDBRANCH  21  22
ENDBRANCH  20  21
ENDBRANCH  19  20
BRANCH  19  26
ATOM     26  C   UNL     1       8.155   9.213  17.587  0.00  0.00    +0.000 C 
BRANCH  26  27
ATOM     27  C   UNL     1       8.952   9.467  18.884  0.00  0.00    +0.000 C 
BRANCH  27  28
ATOM     28  C   UNL     1       9.249  10.943  19.179  0.00  0.00    +0.000 C 
BRANCH  28  29
ATOM     29  C   UNL     1      10.439  11.184  20.126  0.00  0.00    +0.000 C 
ATOM     30  C   UNL     1      11.696  11.618  19.370  0.00  0.00    +0.000 C 
ATOM     31  C   UNL     1      10.075  12.231  21.179  0.00  0.00    +0.000 C 
ENDBRANCH  28  29
ENDBRANCH  27  28
ENDBRANCH  26  27
ENDBRANCH  19  26
ENDBRANCH  18  19
ENDBRANCH   1  18
TORSDOF 12
ENDMDL
MODEL 6
REMARK VINA RESULT:      -6.9      3.462      6.854
REMARK  Name = 
REMARK  16 active torsions:
REMARK  status: ('A' for Active; 'I' for Inactive)
REMARK    1  A    between atoms: C_1  and  C_2
REMARK    2  A    between atoms: C_2  and  C_3
REMARK    3  A    between atoms: C_2  and  C_4
REMARK    4  A    between atoms: C_4  and  C_5
REMARK    5  A    between atoms: C_5  and  C_6
REMARK    6  A    between atoms: C_6  and  N_7
REMARK    7  A    between atoms: N_7  and  C_8
REMARK    8  A    between atoms: N_7  and  C_14
REMARK    9  A    between atoms: C_8  and  C_9
REMARK   10  A    between atoms: C_9  and  C_10
REMARK   11  A    between atoms: C_10  and  C_11
REMARK   12  A    between atoms: C_11  and  C_12
REMARK   13  A    between atoms: C_11  and  C_13
REMARK   14  A    between atoms: C_14  and  C_15
REMARK   15  A    between atoms: C_15  and  O_16
REMARK   16  A    between atoms: C_15  and  C_17
REMARK                            x       y       z     vdW  Elec       q    Type
REMARK                         _______ _______ _______ _____ _____    ______ ____
ROOT
ATOM      1  C   UNL     1       1.827   9.013  18.530  0.00  0.00    +0.000 C 
ENDROOT
BRANCH   1   2
ATOM      2  C   UNL     1       0.477   9.723  18.544  0.00  0.00    +0.000 A 
ATOM      3  C   UNL     1      -0.358   9.580  17.421  0.00  0.00    +0.000 A 
ATOM      4  C   UNL     1      -1.635  10.146  17.356  0.00  0.00    +0.000 A 
ATOM      5  C   UNL     1      -2.108  10.882  18.444  0.00  0.00    +0.000 A 
ATOM      6  C   UNL     1      -1.294  11.035  19.617  0.00  0.00    +0.000 A 
ATOM      7  C   UNL     1      -1.742  11.750  20.755  0.00  0.00    +0.000 A 
ATOM      8  C   UNL     1      -0.968  11.896  21.908  0.00  0.00    +0.000 A 
ATOM      9  C   UNL     1       0.291  11.333  21.958  0.00  0.00    +0.000 A 
ATOM     10  C   UNL     1       0.768  10.627  20.853  0.00  0.00    +0.000 A 
ATOM     11  C   UNL     1       0.004  10.455  19.669  0.00  0.00    +0.000 A 
ATOM     12  C   UNL     1      -3.461  11.544  18.378  0.00  0.00    +0.000 C 
ATOM     13  C   UNL     1      -4.352  11.300  17.166  0.00  0.00    +0.000 C 
ATOM     14  C   UNL     1      -3.759  10.611  15.953  0.00  0.00    +0.000 C 
ATOM     15  C   UNL     1      -2.433   9.887  16.114  0.00  0.00    +0.000 C 
ENDBRANCH   1   2
BRANCH   1  16
ATOM     16  O   UNL     1       2.471   9.217  17.263  0.00  0.00    +0.000 OA
ATOM     17  H   UNL     1       3.426   9.102  17.419  0.00  0.00    +0.000 HD
ENDBRANCH   1  16
BRANCH   1  18
ATOM     18  C   UNL     1       1.626   7.491  18.796  0.00  0.00    +0.000 C 
BRANCH  18  19
ATOM     19  N   UNL     1       2.462   6.879  19.882  0.00  0.00    +0.000 NA
BRANCH  19  20
ATOM     20  C   UNL     1       1.582   6.076  20.768  0.00  0.00    +0.000 C 
BRANCH  20  21
ATOM     21  C   UNL     1       1.000   4.741  20.260  0.00  0.00    +0.000 C 
BRANCH  21  22
ATOM     22  C   UNL     1       1.433   3.490  21.033  0.00  0.00    +0.000 C 
BRANCH  22  24
ATOM     23  C   UNL     1       1.259   2.447  18.726  0.00  0.00    +0.000 C 
ATOM     24  C   UNL     1       1.933   2.360  20.098  0.00  0.00    +0.000 C 
ATOM     25  C   UNL     1       3.454   2.371  19.911  0.00  0.00    +0.000 C 
ENDBRANCH  22  24
ENDBRANCH  21  22
ENDBRANCH  20  21
ENDBRANCH  19  20
BRANCH  19  26
ATOM     26  C   UNL     1       3.500   6.020  19.263  0.00  0.00    +0.000 C 
BRANCH  26  27
ATOM     27  C   UNL     1       3.472   5.937  17.722  0.00  0.00    +0.000 C 
BRANCH  27  28
ATOM     28  C   UNL     1       3.888   4.579  17.142  0.00  0.00    +0.000 C 
BRANCH  28  29
ATOM     29  C   UNL     1       5.245   4.577  16.415  0.00  0.00    +0.000 C 
ATOM     30  C   UNL     1       5.403   5.786  15.492  0.00  0.00    +0.000 C 
ATOM     31  C   UNL     1       6.389   4.539  17.428  0.00  0.00    +0.000 C 
ENDBRANCH  28  29
ENDBRANCH  27  28
ENDBRANCH  26  27
ENDBRANCH  19  26
ENDBRANCH  18  19
ENDBRANCH   1  18
TORSDOF 12
ENDMDL
MODEL 7
REMARK VINA RESULT:      -6.9      0.961      1.454
REMARK  Name = 
REMARK  16 active torsions:
REMARK  status: ('A' for Active; 'I' for Inactive)
REMARK    1  A    between atoms: C_1  and  C_2
REMARK    2  A    between atoms: C_2  and  C_3
REMARK    3  A    between atoms: C_2  and  C_4
REMARK    4  A    between atoms: C_4  and  C_5
REMARK    5  A    between atoms: C_5  and  C_6
REMARK    6  A    between atoms: C_6  and  N_7
REMARK    7  A    between atoms: N_7  and  C_8
REMARK    8  A    between atoms: N_7  and  C_14
REMARK    9  A    between atoms: C_8  and  C_9
REMARK   10  A    between atoms: C_9  and  C_10
REMARK   11  A    between atoms: C_10  and  C_11
REMARK   12  A    between atoms: C_11  and  C_12
REMARK   13  A    between atoms: C_11  and  C_13
REMARK   14  A    between atoms: C_14  and  C_15
REMARK   15  A    between atoms: C_15  and  O_16
REMARK   16  A    between atoms: C_15  and  C_17
REMARK                            x       y       z     vdW  Elec       q    Type
REMARK                         _______ _______ _______ _____ _____    ______ ____
ROOT
ATOM      1  C   UNL     1       4.741   3.560  17.406  0.00  0.00    +0.000 C 
ENDROOT
BRANCH   1   2
ATOM      2  C   UNL     1       3.916   4.541  18.234  0.00  0.00    +0.000 A 
ATOM      3  C   UNL     1       3.719   5.836  17.723  0.00  0.00    +0.000 A 
ATOM      4  C   UNL     1       2.937   6.792  18.379  0.00  0.00    +0.000 A 
ATOM      5  C   UNL     1       2.324   6.456  19.587  0.00  0.00    +0.000 A 
ATOM      6  C   UNL     1       2.485   5.138  20.133  0.00  0.00    +0.000 A 
ATOM      7  C   UNL     1       1.860   4.743  21.341  0.00  0.00    +0.000 A 
ATOM      8  C   UNL     1       1.997   3.461  21.878  0.00  0.00    +0.000 A 
ATOM      9  C   UNL     1       2.773   2.528  21.221  0.00  0.00    +0.000 A 
ATOM     10  C   UNL     1       3.408   2.884  20.031  0.00  0.00    +0.000 A 
ATOM     11  C   UNL     1       3.285   4.176  19.456  0.00  0.00    +0.000 A 
ATOM     12  C   UNL     1       1.517   7.486  20.337  0.00  0.00    +0.000 C 
ATOM     13  C   UNL     1       1.278   8.851  19.705  0.00  0.00    +0.000 C 
ATOM     14  C   UNL     1       2.063   9.227  18.463  0.00  0.00    +0.000 C 
ATOM     15  C   UNL     1       2.781   8.123  17.706  0.00  0.00    +0.000 C 
ENDBRANCH   1   2
BRANCH   1  16
ATOM     16  O   UNL     1       6.117   3.616  17.813  0.00  0.00    +0.000 OA
ATOM     17  H   UNL     1       6.431   4.512  17.596  0.00  0.00    +0.000 HD
ENDBRANCH   1  16
BRANCH   1  18
ATOM     18  C   UNL     1       4.609   3.907  15.893  0.00  0.00    +0.000 C 
BRANCH  18  19
ATOM     19  N   UNL     1       5.886   4.004  15.109  0.00  0.00    +0.000 NA
BRANCH  19  20
ATOM     20  C   UNL     1       5.861   2.986  14.028  0.00  0.00    +0.000 C 
BRANCH  20  21
ATOM     21  C   UNL     1       5.947   3.433  12.555  0.00  0.00    +0.000 C 
BRANCH  21  22
ATOM     22  C   UNL     1       5.262   2.511  11.539  0.00  0.00    +0.000 C 
BRANCH  22  24
ATOM     23  C   UNL     1       7.700   2.036  11.019  0.00  0.00    +0.000 C 
ATOM     24  C   UNL     1       6.260   1.546  10.850  0.00  0.00    +0.000 C 
ATOM     25  C   UNL     1       6.155   0.109  11.373  0.00  0.00    +0.000 C 
ENDBRANCH  22  24
ENDBRANCH  21  22
ENDBRANCH  20  21
ENDBRANCH  19  20
BRANCH  19  26
ATOM     26  C   UNL     1       5.995   5.368  14.536  0.00  0.00    +0.000 C 
BRANCH  26  27
ATOM     27  C   UNL     1       6.282   6.500  15.545  0.00  0.00    +0.000 C 
BRANCH  27  28
ATOM     28  C   UNL     1       7.369   6.180  16.580  0.00  0.00    +0.000 C 
BRANCH  28  29
ATOM     29  C   UNL     1       7.269   6.985  17.889  0.00  0.00    +0.000 C 
ATOM     30  C   UNL     1       7.938   6.262  19.059  0.00  0.00    +0.000 C 
ATOM     31  C   UNL     1       7.890   8.371  17.707  0.00  0.00    +0.000 C 
ENDBRANCH  28  29
ENDBRANCH  27  28
ENDBRANCH  26  27
ENDBRANCH  19  26
ENDBRANCH  18  19
ENDBRANCH   1  18
TORSDOF 12
ENDMDL
MODEL 8
REMARK VINA RESULT:      -6.8      3.851      9.153
REMARK  Name = 
REMARK  16 active torsions:
REMARK  status: ('A' for Active; 'I' for Inactive)
REMARK    1  A    between atoms: C_1  and  C_2
REMARK    2  A    between atoms: C_2  and  C_3
REMARK    3  A    between atoms: C_2  and  C_4
REMARK    4  A    between atoms: C_4  and  C_5
REMARK    5  A    between atoms: C_5  and  C_6
REMARK    6  A    between atoms: C_6  and  N_7
REMARK    7  A    between atoms: N_7  and  C_8
REMARK    8  A    between atoms: N_7  and  C_14
REMARK    9  A    between atoms: C_8  and  C_9
REMARK   10  A    between atoms: C_9  and  C_10
REMARK   11  A    between atoms: C_10  and  C_11
REMARK   12  A    between atoms: C_11  and  C_12
REMARK   13  A    between atoms: C_11  and  C_13
REMARK   14  A    between atoms: C_14  and  C_15
REMARK   15  A    between atoms: C_15  and  O_16
REMARK   16  A    between atoms: C_15  and  C_17
REMARK                            x       y       z     vdW  Elec       q    Type
REMARK                         _______ _______ _______ _____ _____    ______ ____
ROOT
ATOM      1  C   UNL     1       1.882   7.611  20.499  0.00  0.00    +0.000 C 
ENDROOT
BRANCH   1   2
ATOM      2  C   UNL     1       2.453   6.570  19.541  0.00  0.00    +0.000 A 
ATOM      3  C   UNL     1       3.314   7.011  18.521  0.00  0.00    +0.000 A 
ATOM      4  C   UNL     1       3.931   6.132  17.625  0.00  0.00    +0.000 A 
ATOM      5  C   UNL     1       3.689   4.762  17.741  0.00  0.00    +0.000 A 
ATOM      6  C   UNL     1       2.830   4.270  18.781  0.00  0.00    +0.000 A 
ATOM      7  C   UNL     1       2.576   2.887  18.955  0.00  0.00    +0.000 A 
ATOM      8  C   UNL     1       1.754   2.392  19.970  0.00  0.00    +0.000 A 
ATOM      9  C   UNL     1       1.151   3.271  20.846  0.00  0.00    +0.000 A 
ATOM     10  C   UNL     1       1.374   4.641  20.701  0.00  0.00    +0.000 A 
ATOM     11  C   UNL     1       2.207   5.175  19.685  0.00  0.00    +0.000 A 
ATOM     12  C   UNL     1       4.302   3.800  16.756  0.00  0.00    +0.000 C 
ATOM     13  C   UNL     1       5.282   4.324  15.713  0.00  0.00    +0.000 C 
ATOM     14  C   UNL     1       5.419   5.822  15.530  0.00  0.00    +0.000 C 
ATOM     15  C   UNL     1       4.854   6.732  16.607  0.00  0.00    +0.000 C 
ENDBRANCH   1   2
BRANCH   1  16
ATOM     16  O   UNL     1       0.590   7.190  20.962  0.00  0.00    +0.000 OA
ATOM     17  H   UNL     1       0.133   6.808  20.191  0.00  0.00    +0.000 HD
ENDBRANCH   1  16
BRANCH   1  18
ATOM     18  C   UNL     1       1.776   8.988  19.778  0.00  0.00    +0.000 C 
BRANCH  18  19
ATOM     19  N   UNL     1       0.516   9.773  20.002  0.00  0.00    +0.000 NA
BRANCH  19  20
ATOM     20  C   UNL     1       0.779  10.817  21.025  0.00  0.00    +0.000 C 
BRANCH  20  21
ATOM     21  C   UNL     1      -0.384  11.357  21.882  0.00  0.00    +0.000 C 
BRANCH  21  22
ATOM     22  C   UNL     1      -0.338  12.857  22.197  0.00  0.00    +0.000 C 
BRANCH  22  24
ATOM     23  C   UNL     1      -2.582  12.227  23.201  0.00  0.00    +0.000 C 
ATOM     24  C   UNL     1      -1.682  13.384  22.759  0.00  0.00    +0.000 C 
ATOM     25  C   UNL     1      -1.497  14.354  23.931  0.00  0.00    +0.000 C 
ENDBRANCH  22  24
ENDBRANCH  21  22
ENDBRANCH  20  21
ENDBRANCH  19  20
BRANCH  19  26
ATOM     26  C   UNL     1       0.103  10.394  18.720  0.00  0.00    +0.000 C 
BRANCH  26  27
ATOM     27  C   UNL     1      -1.410  10.363  18.416  0.00  0.00    +0.000 C 
BRANCH  27  28
ATOM     28  C   UNL     1      -1.777   9.819  17.029  0.00  0.00    +0.000 C 
BRANCH  28  29
ATOM     29  C   UNL     1      -3.266   9.952  16.657  0.00  0.00    +0.000 C 
ATOM     30  C   UNL     1      -4.027  10.834  17.649  0.00  0.00    +0.000 C 
ATOM     31  C   UNL     1      -3.411  10.512  15.242  0.00  0.00    +0.000 C 
ENDBRANCH  28  29
ENDBRANCH  27  28
ENDBRANCH  26  27
ENDBRANCH  19  26
ENDBRANCH  18  19
ENDBRANCH   1  18
TORSDOF 12
ENDMDL
MODEL 9
REMARK VINA RESULT:      -6.8      4.192      8.696
REMARK  Name = 
REMARK  16 active torsions:
REMARK  status: ('A' for Active; 'I' for Inactive)
REMARK    1  A    between atoms: C_1  and  C_2
REMARK    2  A    between atoms: C_2  and  C_3
REMARK    3  A    between atoms: C_2  and  C_4
REMARK    4  A    between atoms: C_4  and  C_5
REMARK    5  A    between atoms: C_5  and  C_6
REMARK    6  A    between atoms: C_6  and  N_7
REMARK    7  A    between atoms: N_7  and  C_8
REMARK    8  A    between atoms: N_7  and  C_14
REMARK    9  A    between atoms: C_8  and  C_9
REMARK   10  A    between atoms: C_9  and  C_10
REMARK   11  A    between atoms: C_10  and  C_11
REMARK   12  A    between atoms: C_11  and  C_12
REMARK   13  A    between atoms: C_11  and  C_13
REMARK   14  A    between atoms: C_14  and  C_15
REMARK   15  A    between atoms: C_15  and  O_16
REMARK   16  A    between atoms: C_15  and  C_17
REMARK                            x       y       z     vdW  Elec       q    Type
REMARK                         _______ _______ _______ _____ _____    ______ ____
ROOT
ATOM      1  C   UNL     1       1.745  10.329  18.437  0.00  0.00    +0.000 C 
ENDROOT
BRANCH   1   2
ATOM      2  C   UNL     1       0.363  10.926  18.691  0.00  0.00    +0.000 A 
ATOM      3  C   UNL     1      -0.745  10.311  18.084  0.00  0.00    +0.000 A 
ATOM      4  C   UNL     1      -2.057  10.749  18.294  0.00  0.00    +0.000 A 
ATOM      5  C   UNL     1      -2.283  11.836  19.139  0.00  0.00    +0.000 A 
ATOM      6  C   UNL     1      -1.179  12.481  19.793  0.00  0.00    +0.000 A 
ATOM      7  C   UNL     1      -1.362  13.570  20.679  0.00  0.00    +0.000 A 
ATOM      8  C   UNL     1      -0.300  14.198  21.333  0.00  0.00    +0.000 A 
ATOM      9  C   UNL     1       0.989  13.757  21.115  0.00  0.00    +0.000 A 
ATOM     10  C   UNL     1       1.208  12.690  20.244  0.00  0.00    +0.000 A 
ATOM     11  C   UNL     1       0.150  12.026  19.568  0.00  0.00    +0.000 A 
ATOM     12  C   UNL     1      -3.683  12.357  19.341  0.00  0.00    +0.000 C 
ATOM     13  C   UNL     1      -4.855  11.611  18.714  0.00  0.00    +0.000 C 
ATOM     14  C   UNL     1      -4.566  10.521  17.701  0.00  0.00    +0.000 C 
ATOM     15  C   UNL     1      -3.149   9.980  17.613  0.00  0.00    +0.000 C 
ENDBRANCH   1   2
BRANCH   1  16
ATOM     16  O   UNL     1       2.355  10.976  17.311  0.00  0.00    +0.000 OA
ATOM     17  H   UNL     1       3.078  11.524  17.667  0.00  0.00    +0.000 HD
ENDBRANCH   1  16
BRANCH   1  18
ATOM     18  C   UNL     1       1.617   8.798  18.180  0.00  0.00    +0.000 C 
BRANCH  18  19
ATOM     19  N   UNL     1       2.456   7.897  19.040  0.00  0.00    +0.000 NA
BRANCH  19  20
ATOM     20  C   UNL     1       1.636   7.436  20.189  0.00  0.00    +0.000 C 
BRANCH  20  21
ATOM     21  C   UNL     1       1.294   8.419  21.327  0.00  0.00    +0.000 C 
BRANCH  21  22
ATOM     22  C   UNL     1      -0.189   8.784  21.467  0.00  0.00    +0.000 C 
BRANCH  22  24
ATOM     23  C   UNL     1       0.693   9.287  23.792  0.00  0.00    +0.000 C 
ATOM     24  C   UNL     1      -0.535   9.317  22.880  0.00  0.00    +0.000 C 
ATOM     25  C   UNL     1      -1.108  10.738  22.856  0.00  0.00    +0.000 C 
ENDBRANCH  22  24
ENDBRANCH  21  22
ENDBRANCH  20  21
ENDBRANCH  19  20
BRANCH  19  26
ATOM     26  C   UNL     1       2.908   6.741  18.227  0.00  0.00    +0.000 C 
BRANCH  26  27
ATOM     27  C   UNL     1       1.895   5.586  18.080  0.00  0.00    +0.000 C 
BRANCH  27  28
ATOM     28  C   UNL     1       2.476   4.186  18.322  0.00  0.00    +0.000 C 
BRANCH  28  29
ATOM     29  C   UNL     1       3.179   4.006  19.680  0.00  0.00    +0.000 C 
ATOM     30  C   UNL     1       2.268   3.339  20.713  0.00  0.00    +0.000 C 
ATOM     31  C   UNL     1       4.460   3.189  19.509  0.00  0.00    +0.000 C 
ENDBRANCH  28  29
ENDBRANCH  27  28
ENDBRANCH  26  27
ENDBRANCH  19  26
ENDBRANCH  18  19
ENDBRANCH   1  18
TORSDOF 12
ENDMDL
