MODEL 1
REMARK VINA RESULT:      -7.9      0.000      0.000
REMARK  Name = 
REMARK  7 active torsions:
REMARK  status: ('A' for Active; 'I' for Inactive)
REMARK    1  A    between atoms: C_1  and  O_2
REMARK    2  A    between atoms: O_2  and  C_3
REMARK    3  A    between atoms: C_7  and  C_8
REMARK    4  A    between atoms: C_8  and  N_9
REMARK    5  A    between atoms: C_10  and  C_12
REMARK    6  A    between atoms: C_17  and  S_18
REMARK    7  A    between atoms: S_18  and  C_19
REMARK                            x       y       z     vdW  Elec       q    Type
REMARK                         _______ _______ _______ _____ _____    ______ ____
ROOT
ATOM      1  C   UNL     1       2.447   4.489  19.548  0.00  0.00    +0.000 A 
ATOM      2  C   UNL     1       1.883   4.502  20.838  0.00  0.00    +0.000 A 
ATOM      3  C   UNL     1       2.125   3.462  21.725  0.00  0.00    +0.000 A 
ATOM      4  C   UNL     1       2.917   2.418  21.295  0.00  0.00    +0.000 A 
ATOM      5  N   UNL     1       3.476   2.366  20.065  0.00  0.00    +0.000 NA
ATOM      6  C   UNL     1       3.245   3.396  19.203  0.00  0.00    +0.000 A 
ENDROOT
BRANCH   1   8
ATOM      7  N   UNL     1       2.578   6.896  19.067  0.00  0.00    +0.000 N 
ATOM      8  C   UNL     1       2.116   5.659  18.690  0.00  0.00    +0.000 C 
ATOM      9  O   UNL     1       1.408   5.495  17.700  0.00  0.00    +0.000 OA
ATOM     10  H   UNL     1       3.233   6.979  19.834  0.00  0.00    +0.000 HD
BRANCH   7  11
ATOM     11  C   UNL     1       2.302   8.079  18.287  0.00  0.00    +0.000 C 
BRANCH  11  16
ATOM     12  C   UNL     1       0.545   9.872  21.155  0.00  0.00    +0.000 A 
ATOM     13  C   UNL     1      -0.336  10.694  20.452  0.00  0.00    +0.000 A 
ATOM     14  C   UNL     1      -0.364  10.678  19.057  0.00  0.00    +0.000 A 
ATOM     15  C   UNL     1       0.494   9.833  18.356  0.00  0.00    +0.000 A 
ATOM     16  C   UNL     1       1.396   9.011  19.045  0.00  0.00    +0.000 A 
ATOM     17  C   UNL     1       1.409   9.031  20.450  0.00  0.00    +0.000 A 
BRANCH  12  19
ATOM     18  C   UNL     1      -0.811  10.312  23.057  0.00  0.00    +0.000 C 
ATOM     19  O   UNL     1       0.459   9.970  22.517  0.00  0.00    +0.000 OA
ENDBRANCH  12  19
ENDBRANCH  11  16
ENDBRANCH   7  11
ENDBRANCH   1   8
BRANCH   6  20
ATOM     20  S   UNL     1       4.143   3.228  17.672  0.00  0.00    +0.000 S 
BRANCH  20  21
ATOM     21  C   UNL     1       5.315   4.572  17.664  0.00  0.00    +0.000 A 
ATOM     22  C   UNL     1       5.163   5.544  16.661  0.00  0.00    +0.000 A 
ATOM     23  C   UNL     1       5.991   6.670  16.620  0.00  0.00    +0.000 A 
ATOM     24  C   UNL     1       6.978   6.834  17.587  0.00  0.00    +0.000 A 
ATOM     25 CL   UNL     1       7.977   8.234  17.559  0.00  0.00    +0.000 Cl
ATOM     26  C   UNL     1       7.147   5.878  18.585  0.00  0.00    +0.000 A 
ATOM     27  C   UNL     1       6.314   4.752  18.626  0.00  0.00    +0.000 A 
ENDBRANCH  20  21
ENDBRANCH   6  20
TORSDOF 6
ENDMDL
MODEL 2
REMARK VINA RESULT:      -7.7      2.013      2.699
REMARK  Name = 
REMARK  7 active torsions:
REMARK  status: ('A' for Active; 'I' for Inactive)
REMARK    1  A    between atoms: C_1  and  O_2
REMARK    2  A    between atoms: O_2  and  C_3
REMARK    3  A    between atoms: C_7  and  C_8
REMARK    4  A    between atoms: C_8  and  N_9
REMARK    5  A    between atoms: C_10  and  C_12
REMARK    6  A    between atoms: C_17  and  S_18
REMARK    7  A    between atoms: S_18  and  C_19
REMARK                            x       y       z     vdW  Elec       q    Type
REMARK                         _______ _______ _______ _____ _____    ______ ____
ROOT
ATOM      1  C   UNL     1       2.491   5.131  19.722  0.00  0.00    +0.000 A 
ATOM      2  C   UNL     1       1.335   4.449  20.149  0.00  0.00    +0.000 A 
ATOM      3  C   UNL     1       1.407   3.122  20.553  0.00  0.00    +0.000 A 
ATOM      4  C   UNL     1       2.637   2.499  20.506  0.00  0.00    +0.000 A 
ATOM      5  N   UNL     1       3.769   3.117  20.101  0.00  0.00    +0.000 NA
ATOM      6  C   UNL     1       3.694   4.422  19.718  0.00  0.00    +0.000 A 
ENDROOT
BRANCH   1   8
ATOM      7  N   UNL     1       1.941   7.460  20.281  0.00  0.00    +0.000 N 
ATOM      8  C   UNL     1       2.288   6.548  19.315  0.00  0.00    +0.000 C 
ATOM      9  O   UNL     1       2.391   6.851  18.130  0.00  0.00    +0.000 OA
ATOM     10  H   UNL     1       1.955   7.194  21.258  0.00  0.00    +0.000 HD
BRANCH   7  11
ATOM     11  C   UNL     1       1.729   8.854  19.967  0.00  0.00    +0.000 C 
BRANCH  11  16
ATOM     12  C   UNL     1      -0.571  11.351  21.700  0.00  0.00    +0.000 A 
ATOM     13  C   UNL     1      -0.791  10.706  22.918  0.00  0.00    +0.000 A 
ATOM     14  C   UNL     1      -0.205   9.468  23.183  0.00  0.00    +0.000 A 
ATOM     15  C   UNL     1       0.609   8.867  22.225  0.00  0.00    +0.000 A 
ATOM     16  C   UNL     1       0.829   9.492  20.990  0.00  0.00    +0.000 A 
ATOM     17  C   UNL     1       0.239  10.742  20.738  0.00  0.00    +0.000 A 
BRANCH  12  19
ATOM     18  C   UNL     1      -2.537  12.557  21.125  0.00  0.00    +0.000 C 
ATOM     19  O   UNL     1      -1.188  12.565  21.575  0.00  0.00    +0.000 OA
ENDBRANCH  12  19
ENDBRANCH  11  16
ENDBRANCH   7  11
ENDBRANCH   1   8
BRANCH   6  20
ATOM     20  S   UNL     1       5.288   5.117  19.323  0.00  0.00    +0.000 S 
BRANCH  20  21
ATOM     21  C   UNL     1       5.519   4.805  17.583  0.00  0.00    +0.000 A 
ATOM     22  C   UNL     1       6.815   4.984  17.070  0.00  0.00    +0.000 A 
ATOM     23  C   UNL     1       7.105   4.695  15.733  0.00  0.00    +0.000 A 
ATOM     24  C   UNL     1       6.098   4.220  14.898  0.00  0.00    +0.000 A 
ATOM     25 CL   UNL     1       6.459   3.832  13.261  0.00  0.00    +0.000 Cl
ATOM     26  C   UNL     1       4.807   4.043  15.387  0.00  0.00    +0.000 A 
ATOM     27  C   UNL     1       4.519   4.331  16.728  0.00  0.00    +0.000 A 
ENDBRANCH  20  21
ENDBRANCH   6  20
TORSDOF 6
ENDMDL
MODEL 3
REMARK VINA RESULT:      -7.7      0.441      1.041
REMARK  Name = 
REMARK  7 active torsions:
REMARK  status: ('A' for Active; 'I' for Inactive)
REMARK    1  A    between atoms: C_1  and  O_2
REMARK    2  A    between atoms: O_2  and  C_3
REMARK    3  A    between atoms: C_7  and  C_8
REMARK    4  A    between atoms: C_8  and  N_9
REMARK    5  A    between atoms: C_10  and  C_12
REMARK    6  A    between atoms: C_17  and  S_18
REMARK    7  A    between atoms: S_18  and  C_19
REMARK                            x       y       z     vdW  Elec       q    Type
REMARK                         _______ _______ _______ _____ _____    ______ ____
ROOT
ATOM      1  C   UNL     1       2.538   4.338  19.506  0.00  0.00    +0.000 A 
ATOM      2  C   UNL     1       1.913   4.276  20.765  0.00  0.00    +0.000 A 
ATOM      3  C   UNL     1       2.233   3.267  21.664  0.00  0.00    +0.000 A 
ATOM      4  C   UNL     1       3.164   2.327  21.274  0.00  0.00    +0.000 A 
ATOM      5  N   UNL     1       3.785   2.350  20.072  0.00  0.00    +0.000 NA
ATOM      6  C   UNL     1       3.476   3.350  19.201  0.00  0.00    +0.000 A 
ENDROOT
BRANCH   1   8
ATOM      7  N   UNL     1       2.461   6.742  19.000  0.00  0.00    +0.000 N 
ATOM      8  C   UNL     1       2.113   5.466  18.632  0.00  0.00    +0.000 C 
ATOM      9  O   UNL     1       1.431   5.230  17.639  0.00  0.00    +0.000 OA
ATOM     10  H   UNL     1       3.099   6.891  19.771  0.00  0.00    +0.000 HD
BRANCH   7  11
ATOM     11  C   UNL     1       2.089   7.889  18.204  0.00  0.00    +0.000 C 
BRANCH  11  16
ATOM     12  C   UNL     1       0.910   9.808  21.280  0.00  0.00    +0.000 A 
ATOM     13  C   UNL     1       0.546  11.027  20.706  0.00  0.00    +0.000 A 
ATOM     14  C   UNL     1       0.682  11.236  19.333  0.00  0.00    +0.000 A 
ATOM     15  C   UNL     1       1.185  10.219  18.524  0.00  0.00    +0.000 A 
ATOM     16  C   UNL     1       1.571   8.994  19.084  0.00  0.00    +0.000 A 
ATOM     17  C   UNL     1       1.422   8.793  20.467  0.00  0.00    +0.000 A 
BRANCH  12  19
ATOM     18  C   UNL     1      -0.595  10.034  23.105  0.00  0.00    +0.000 C 
ATOM     19  O   UNL     1       0.709   9.726  22.630  0.00  0.00    +0.000 OA
ENDBRANCH  12  19
ENDBRANCH  11  16
ENDBRANCH   7  11
ENDBRANCH   1   8
BRANCH   6  20
ATOM     20  S   UNL     1       4.462   3.300  17.716  0.00  0.00    +0.000 S 
BRANCH  20  21
ATOM     21  C   UNL     1       5.420   4.803  17.736  0.00  0.00    +0.000 A 
ATOM     22  C   UNL     1       6.478   4.873  18.657  0.00  0.00    +0.000 A 
ATOM     23  C   UNL     1       7.326   5.984  18.695  0.00  0.00    +0.000 A 
ATOM     24  C   UNL     1       7.124   7.035  17.807  0.00  0.00    +0.000 A 
ATOM     25 CL   UNL     1       8.186   8.388  17.829  0.00  0.00    +0.000 Cl
ATOM     26  C   UNL     1       6.076   6.986  16.891  0.00  0.00    +0.000 A 
ATOM     27  C   UNL     1       5.229   5.871  16.853  0.00  0.00    +0.000 A 
ENDBRANCH  20  21
ENDBRANCH   6  20
TORSDOF 6
ENDMDL
MODEL 4
REMARK VINA RESULT:      -7.6      2.074      2.641
REMARK  Name = 
REMARK  7 active torsions:
REMARK  status: ('A' for Active; 'I' for Inactive)
REMARK    1  A    between atoms: C_1  and  O_2
REMARK    2  A    between atoms: O_2  and  C_3
REMARK    3  A    between atoms: C_7  and  C_8
REMARK    4  A    between atoms: C_8  and  N_9
REMARK    5  A    between atoms: C_10  and  C_12
REMARK    6  A    between atoms: C_17  and  S_18
REMARK    7  A    between atoms: S_18  and  C_19
REMARK                            x       y       z     vdW  Elec       q    Type
REMARK                         _______ _______ _______ _____ _____    ______ ____
ROOT
ATOM      1  C   UNL     1       2.574   5.214  19.640  0.00  0.00    +0.000 A 
ATOM      2  C   UNL     1       1.433   4.498  20.047  0.00  0.00    +0.000 A 
ATOM      3  C   UNL     1       1.535   3.169  20.439  0.00  0.00    +0.000 A 
ATOM      4  C   UNL     1       2.781   2.579  20.401  0.00  0.00    +0.000 A 
ATOM      5  N   UNL     1       3.901   3.231  20.014  0.00  0.00    +0.000 NA
ATOM      6  C   UNL     1       3.796   4.538  19.643  0.00  0.00    +0.000 A 
ENDROOT
BRANCH   1   8
ATOM      7  N   UNL     1       1.956   7.522  20.214  0.00  0.00    +0.000 N 
ATOM      8  C   UNL     1       2.338   6.629  19.244  0.00  0.00    +0.000 C 
ATOM      9  O   UNL     1       2.447   6.947  18.063  0.00  0.00    +0.000 OA
ATOM     10  H   UNL     1       1.966   7.247  21.188  0.00  0.00    +0.000 HD
BRANCH   7  11
ATOM     11  C   UNL     1       1.711   8.913  19.911  0.00  0.00    +0.000 C 
BRANCH  11  16
ATOM     12  C   UNL     1      -0.254  11.484  21.925  0.00  0.00    +0.000 A 
ATOM     13  C   UNL     1      -0.811  10.673  22.915  0.00  0.00    +0.000 A 
ATOM     14  C   UNL     1      -0.561   9.301  22.935  0.00  0.00    +0.000 A 
ATOM     15  C   UNL     1       0.254   8.730  21.959  0.00  0.00    +0.000 A 
ATOM     16  C   UNL     1       0.810   9.526  20.948  0.00  0.00    +0.000 A 
ATOM     17  C   UNL     1       0.556  10.908  20.944  0.00  0.00    +0.000 A 
BRANCH  12  19
ATOM     18  C   UNL     1       0.430  13.737  21.605  0.00  0.00    +0.000 C 
ATOM     19  O   UNL     1      -0.562  12.812  22.031  0.00  0.00    +0.000 OA
ENDBRANCH  12  19
ENDBRANCH  11  16
ENDBRANCH   7  11
ENDBRANCH   1   8
BRANCH   6  20
ATOM     20  S   UNL     1       5.376   5.278  19.273  0.00  0.00    +0.000 S 
BRANCH  20  21
ATOM     21  C   UNL     1       5.737   4.800  17.594  0.00  0.00    +0.000 A 
ATOM     22  C   UNL     1       4.645   4.449  16.783  0.00  0.00    +0.000 A 
ATOM     23  C   UNL     1       4.825   4.130  15.433  0.00  0.00    +0.000 A 
ATOM     24  C   UNL     1       6.103   4.162  14.883  0.00  0.00    +0.000 A 
ATOM     25 CL   UNL     1       6.324   3.802  13.216  0.00  0.00    +0.000 Cl
ATOM     26  C   UNL     1       7.198   4.501  15.674  0.00  0.00    +0.000 A 
ATOM     27  C   UNL     1       7.015   4.823  17.025  0.00  0.00    +0.000 A 
ENDBRANCH  20  21
ENDBRANCH   6  20
TORSDOF 6
ENDMDL
MODEL 5
REMARK VINA RESULT:      -7.6      1.073      1.874
REMARK  Name = 
REMARK  7 active torsions:
REMARK  status: ('A' for Active; 'I' for Inactive)
REMARK    1  A    between atoms: C_1  and  O_2
REMARK    2  A    between atoms: O_2  and  C_3
REMARK    3  A    between atoms: C_7  and  C_8
REMARK    4  A    between atoms: C_8  and  N_9
REMARK    5  A    between atoms: C_10  and  C_12
REMARK    6  A    between atoms: C_17  and  S_18
REMARK    7  A    between atoms: S_18  and  C_19
REMARK                            x       y       z     vdW  Elec       q    Type
REMARK                         _______ _______ _______ _____ _____    ______ ____
ROOT
ATOM      1  C   UNL     1       2.524   4.423  19.547  0.00  0.00    +0.000 A 
ATOM      2  C   UNL     1       1.908   4.426  20.813  0.00  0.00    +0.000 A 
ATOM      3  C   UNL     1       2.137   3.392  21.713  0.00  0.00    +0.000 A 
ATOM      4  C   UNL     1       2.970   2.366  21.318  0.00  0.00    +0.000 A 
ATOM      5  N   UNL     1       3.579   2.325  20.111  0.00  0.00    +0.000 NA
ATOM      6  C   UNL     1       3.360   3.348  19.238  0.00  0.00    +0.000 A 
ENDROOT
BRANCH   1   8
ATOM      7  N   UNL     1       2.695   6.817  19.020  0.00  0.00    +0.000 N 
ATOM      8  C   UNL     1       2.202   5.584  18.673  0.00  0.00    +0.000 C 
ATOM      9  O   UNL     1       1.473   5.416  17.699  0.00  0.00    +0.000 OA
ATOM     10  H   UNL     1       3.365   6.901  19.774  0.00  0.00    +0.000 HD
BRANCH   7  11
ATOM     11  C   UNL     1       2.430   7.992  18.222  0.00  0.00    +0.000 C 
BRANCH  11  16
ATOM     12  C   UNL     1      -0.170  10.709  18.849  0.00  0.00    +0.000 A 
ATOM     13  C   UNL     1      -0.334  10.603  20.230  0.00  0.00    +0.000 A 
ATOM     14  C   UNL     1       0.386   9.657  20.962  0.00  0.00    +0.000 A 
ATOM     15  C   UNL     1       1.278   8.809  20.310  0.00  0.00    +0.000 A 
ATOM     16  C   UNL     1       1.445   8.891  18.920  0.00  0.00    +0.000 A 
ATOM     17  C   UNL     1       0.720   9.852  18.196  0.00  0.00    +0.000 A 
BRANCH  12  19
ATOM     18  C   UNL     1      -1.657  12.543  19.118  0.00  0.00    +0.000 C 
ATOM     19  O   UNL     1      -0.919  11.687  18.255  0.00  0.00    +0.000 OA
ENDBRANCH  12  19
ENDBRANCH  11  16
ENDBRANCH   7  11
ENDBRANCH   1   8
BRANCH   6  20
ATOM     20  S   UNL     1       4.323   3.198  17.745  0.00  0.00    +0.000 S 
BRANCH  20  21
ATOM     21  C   UNL     1       5.286   4.696  17.654  0.00  0.00    +0.000 A 
ATOM     22  C   UNL     1       6.283   4.872  18.628  0.00  0.00    +0.000 A 
ATOM     23  C   UNL     1       7.133   5.981  18.593  0.00  0.00    +0.000 A 
ATOM     24  C   UNL     1       6.995   6.923  17.578  0.00  0.00    +0.000 A 
ATOM     25 CL   UNL     1       8.061   8.272  17.513  0.00  0.00    +0.000 Cl
ATOM     26  C   UNL     1       6.008   6.768  16.608  0.00  0.00    +0.000 A 
ATOM     27  C   UNL     1       5.159   5.654  16.643  0.00  0.00    +0.000 A 
ENDBRANCH  20  21
ENDBRANCH   6  20
TORSDOF 6
ENDMDL
MODEL 6
REMARK VINA RESULT:      -7.5      0.998      1.645
REMARK  Name = 
REMARK  7 active torsions:
REMARK  status: ('A' for Active; 'I' for Inactive)
REMARK    1  A    between atoms: C_1  and  O_2
REMARK    2  A    between atoms: O_2  and  C_3
REMARK    3  A    between atoms: C_7  and  C_8
REMARK    4  A    between atoms: C_8  and  N_9
REMARK    5  A    between atoms: C_10  and  C_12
REMARK    6  A    between atoms: C_17  and  S_18
REMARK    7  A    between atoms: S_18  and  C_19
REMARK                            x       y       z     vdW  Elec       q    Type
REMARK                         _______ _______ _______ _____ _____    ______ ____
ROOT
ATOM      1  C   UNL     1       2.548   4.501  19.559  0.00  0.00    +0.000 A 
ATOM      2  C   UNL     1       1.997   4.476  20.854  0.00  0.00    +0.000 A 
ATOM      3  C   UNL     1       2.262   3.417  21.714  0.00  0.00    +0.000 A 
ATOM      4  C   UNL     1       3.063   2.394  21.250  0.00  0.00    +0.000 A 
ATOM      5  N   UNL     1       3.609   2.380  20.012  0.00  0.00    +0.000 NA
ATOM      6  C   UNL     1       3.356   3.428  19.179  0.00  0.00    +0.000 A 
ENDROOT
BRANCH   1   8
ATOM      7  N   UNL     1       2.545   6.932  19.195  0.00  0.00    +0.000 N 
ATOM      8  C   UNL     1       2.193   5.687  18.733  0.00  0.00    +0.000 C 
ATOM      9  O   UNL     1       1.561   5.526  17.692  0.00  0.00    +0.000 OA
ATOM     10  H   UNL     1       3.143   7.020  20.006  0.00  0.00    +0.000 HD
BRANCH   7  11
ATOM     11  C   UNL     1       2.239   8.131  18.451  0.00  0.00    +0.000 C 
BRANCH  11  16
ATOM     12  C   UNL     1       0.412  11.268  19.615  0.00  0.00    +0.000 A 
ATOM     13  C   UNL     1       0.024  10.885  20.899  0.00  0.00    +0.000 A 
ATOM     14  C   UNL     1       0.344   9.620  21.392  0.00  0.00    +0.000 A 
ATOM     15  C   UNL     1       1.059   8.727  20.596  0.00  0.00    +0.000 A 
ATOM     16  C   UNL     1       1.444   9.088  19.298  0.00  0.00    +0.000 A 
ATOM     17  C   UNL     1       1.122  10.367  18.816  0.00  0.00    +0.000 A 
BRANCH  12  19
ATOM     18  C   UNL     1      -0.841  12.672  18.163  0.00  0.00    +0.000 C 
ATOM     19  O   UNL     1       0.053  12.540  19.261  0.00  0.00    +0.000 OA
ENDBRANCH  12  19
ENDBRANCH  11  16
ENDBRANCH   7  11
ENDBRANCH   1   8
BRANCH   6  20
ATOM     20  S   UNL     1       4.239   3.308  17.635  0.00  0.00    +0.000 S 
BRANCH  20  21
ATOM     21  C   UNL     1       5.396   4.665  17.649  0.00  0.00    +0.000 A 
ATOM     22  C   UNL     1       5.104   5.760  16.818  0.00  0.00    +0.000 A 
ATOM     23  C   UNL     1       5.916   6.898  16.817  0.00  0.00    +0.000 A 
ATOM     24  C   UNL     1       7.028   6.951  17.652  0.00  0.00    +0.000 A 
ATOM     25 CL   UNL     1       8.010   8.363  17.678  0.00  0.00    +0.000 Cl
ATOM     26  C   UNL     1       7.336   5.873  18.478  0.00  0.00    +0.000 A 
ATOM     27  C   UNL     1       6.519   4.735  18.479  0.00  0.00    +0.000 A 
ENDBRANCH  20  21
ENDBRANCH   6  20
TORSDOF 6
ENDMDL
MODEL 7
REMARK VINA RESULT:      -7.4      1.131      1.697
REMARK  Name = 
REMARK  7 active torsions:
REMARK  status: ('A' for Active; 'I' for Inactive)
REMARK    1  A    between atoms: C_1  and  O_2
REMARK    2  A    between atoms: O_2  and  C_3
REMARK    3  A    between atoms: C_7  and  C_8
REMARK    4  A    between atoms: C_8  and  N_9
REMARK    5  A    between atoms: C_10  and  C_12
REMARK    6  A    between atoms: C_17  and  S_18
REMARK    7  A    between atoms: S_18  and  C_19
REMARK                            x       y       z     vdW  Elec       q    Type
REMARK                         _______ _______ _______ _____ _____    ______ ____
ROOT
ATOM      1  C   UNL     1       2.594   4.791  19.779  0.00  0.00    +0.000 A 
ATOM      2  C   UNL     1       2.125   4.549  21.084  0.00  0.00    +0.000 A 
ATOM      3  C   UNL     1       2.376   3.334  21.710  0.00  0.00    +0.000 A 
ATOM      4  C   UNL     1       3.079   2.379  21.007  0.00  0.00    +0.000 A 
ATOM      5  N   UNL     1       3.545   2.572  19.751  0.00  0.00    +0.000 NA
ATOM      6  C   UNL     1       3.307   3.770  19.148  0.00  0.00    +0.000 A 
ENDROOT
BRANCH   1   8
ATOM      7  N   UNL     1       2.115   7.183  20.083  0.00  0.00    +0.000 N 
ATOM      8  C   UNL     1       2.265   6.129  19.216  0.00  0.00    +0.000 C 
ATOM      9  O   UNL     1       2.093   6.244  18.005  0.00  0.00    +0.000 OA
ATOM     10  H   UNL     1       2.354   7.072  21.061  0.00  0.00    +0.000 HD
BRANCH   7  11
ATOM     11  C   UNL     1       1.799   8.512  19.616  0.00  0.00    +0.000 C 
BRANCH  11  16
ATOM     12  C   UNL     1       0.018  11.306  21.501  0.00  0.00    +0.000 A 
ATOM     13  C   UNL     1      -0.578  10.586  22.537  0.00  0.00    +0.000 A 
ATOM     14  C   UNL     1      -0.413   9.204  22.630  0.00  0.00    +0.000 A 
ATOM     15  C   UNL     1       0.354   8.532  21.681  0.00  0.00    +0.000 A 
ATOM     16  C   UNL     1       0.948   9.236  20.624  0.00  0.00    +0.000 A 
ATOM     17  C   UNL     1       0.780  10.628  20.546  0.00  0.00    +0.000 A 
BRANCH  12  19
ATOM     18  C   UNL     1       0.872  13.495  21.145  0.00  0.00    +0.000 C 
ATOM     19  O   UNL     1      -0.207  12.655  21.536  0.00  0.00    +0.000 OA
ENDBRANCH  12  19
ENDBRANCH  11  16
ENDBRANCH   7  11
ENDBRANCH   1   8
BRANCH   6  20
ATOM     20  S   UNL     1       4.083   3.901  17.548  0.00  0.00    +0.000 S 
BRANCH  20  21
ATOM     21  C   UNL     1       5.413   5.068  17.765  0.00  0.00    +0.000 A 
ATOM     22  C   UNL     1       5.394   6.214  16.952  0.00  0.00    +0.000 A 
ATOM     23  C   UNL     1       6.357   7.217  17.102  0.00  0.00    +0.000 A 
ATOM     24  C   UNL     1       7.347   7.082  18.070  0.00  0.00    +0.000 A 
ATOM     25 CL   UNL     1       8.513   8.329  18.279  0.00  0.00    +0.000 Cl
ATOM     26  C   UNL     1       7.385   5.950  18.880  0.00  0.00    +0.000 A 
ATOM     27  C   UNL     1       6.418   4.948  18.731  0.00  0.00    +0.000 A 
ENDBRANCH  20  21
ENDBRANCH   6  20
TORSDOF 6
ENDMDL
MODEL 8
REMARK VINA RESULT:      -7.4      1.979      2.268
REMARK  Name = 
REMARK  7 active torsions:
REMARK  status: ('A' for Active; 'I' for Inactive)
REMARK    1  A    between atoms: C_1  and  O_2
REMARK    2  A    between atoms: O_2  and  C_3
REMARK    3  A    between atoms: C_7  and  C_8
REMARK    4  A    between atoms: C_8  and  N_9
REMARK    5  A    between atoms: C_10  and  C_12
REMARK    6  A    between atoms: C_17  and  S_18
REMARK    7  A    between atoms: S_18  and  C_19
REMARK                            x       y       z     vdW  Elec       q    Type
REMARK                         _______ _______ _______ _____ _____    ______ ____
ROOT
ATOM      1  C   UNL     1       3.179   4.530  19.067  0.00  0.00    +0.000 A 
ATOM      2  C   UNL     1       2.276   3.641  19.681  0.00  0.00    +0.000 A 
ATOM      3  C   UNL     1       2.741   2.540  20.390  0.00  0.00    +0.000 A 
ATOM      4  C   UNL     1       4.104   2.343  20.454  0.00  0.00    +0.000 A 
ATOM      5  N   UNL     1       5.004   3.171  19.876  0.00  0.00    +0.000 NA
ATOM      6  C   UNL     1       4.542   4.256  19.194  0.00  0.00    +0.000 A 
ENDROOT
BRANCH   1   8
ATOM      7  N   UNL     1       2.996   6.941  18.630  0.00  0.00    +0.000 N 
ATOM      8  C   UNL     1       2.562   5.672  18.339  0.00  0.00    +0.000 C 
ATOM      9  O   UNL     1       1.658   5.453  17.537  0.00  0.00    +0.000 OA
ATOM     10  H   UNL     1       3.803   7.076  19.226  0.00  0.00    +0.000 HD
BRANCH   7  11
ATOM     11  C   UNL     1       2.450   8.101  17.965  0.00  0.00    +0.000 C 
BRANCH  11  16
ATOM     12  C   UNL     1       0.589   9.208  21.103  0.00  0.00    +0.000 A 
ATOM     13  C   UNL     1      -0.264  10.178  20.575  0.00  0.00    +0.000 A 
ATOM     14  C   UNL     1      -0.240  10.481  19.213  0.00  0.00    +0.000 A 
ATOM     15  C   UNL     1       0.642   9.810  18.369  0.00  0.00    +0.000 A 
ATOM     16  C   UNL     1       1.517   8.843  18.884  0.00  0.00    +0.000 A 
ATOM     17  C   UNL     1       1.478   8.542  20.255  0.00  0.00    +0.000 A 
BRANCH  12  19
ATOM     18  C   UNL     1      -0.448   9.844  23.144  0.00  0.00    +0.000 C 
ATOM     19  O   UNL     1       0.452   8.993  22.447  0.00  0.00    +0.000 OA
ENDBRANCH  12  19
ENDBRANCH  11  16
ENDBRANCH   7  11
ENDBRANCH   1   8
BRANCH   6  20
ATOM     20  S   UNL     1       5.856   5.302  18.594  0.00  0.00    +0.000 S 
BRANCH  20  21
ATOM     21  C   UNL     1       6.105   4.816  16.897  0.00  0.00    +0.000 A 
ATOM     22  C   UNL     1       5.142   3.965  16.330  0.00  0.00    +0.000 A 
ATOM     23  C   UNL     1       5.216   3.589  14.985  0.00  0.00    +0.000 A 
ATOM     24  C   UNL     1       6.257   4.067  14.194  0.00  0.00    +0.000 A 
ATOM     25 CL   UNL     1       6.333   3.633  12.531  0.00  0.00    +0.000 Cl
ATOM     26  C   UNL     1       7.223   4.907  14.740  0.00  0.00    +0.000 A 
ATOM     27  C   UNL     1       7.145   5.284  16.087  0.00  0.00    +0.000 A 
ENDBRANCH  20  21
ENDBRANCH   6  20
TORSDOF 6
ENDMDL
MODEL 9
REMARK VINA RESULT:      -7.3      2.104      2.707
REMARK  Name = 
REMARK  7 active torsions:
REMARK  status: ('A' for Active; 'I' for Inactive)
REMARK    1  A    between atoms: C_1  and  O_2
REMARK    2  A    between atoms: O_2  and  C_3
REMARK    3  A    between atoms: C_7  and  C_8
REMARK    4  A    between atoms: C_8  and  N_9
REMARK    5  A    between atoms: C_10  and  C_12
REMARK    6  A    between atoms: C_17  and  S_18
REMARK    7  A    between atoms: S_18  and  C_19
REMARK                            x       y       z     vdW  Elec       q    Type
REMARK                         _______ _______ _______ _____ _____    ______ ____
ROOT
ATOM      1  C   UNL     1       3.176   4.562  19.254  0.00  0.00    +0.000 A 
ATOM      2  C   UNL     1       2.307   3.653  19.886  0.00  0.00    +0.000 A 
ATOM      3  C   UNL     1       2.802   2.499  20.479  0.00  0.00    +0.000 A 
ATOM      4  C   UNL     1       4.161   2.270  20.412  0.00  0.00    +0.000 A 
ATOM      5  N   UNL     1       5.029   3.117  19.812  0.00  0.00    +0.000 NA
ATOM      6  C   UNL     1       4.538   4.254  19.244  0.00  0.00    +0.000 A 
ENDROOT
BRANCH   1   8
ATOM      7  N   UNL     1       2.722   6.978  19.266  0.00  0.00    +0.000 N 
ATOM      8  C   UNL     1       2.528   5.762  18.657  0.00  0.00    +0.000 C 
ATOM      9  O   UNL     1       1.808   5.626  17.672  0.00  0.00    +0.000 OA
ATOM     10  H   UNL     1       3.393   7.066  20.018  0.00  0.00    +0.000 HD
BRANCH   7  11
ATOM     11  C   UNL     1       2.131   8.188  18.746  0.00  0.00    +0.000 C 
BRANCH  11  16
ATOM     12  C   UNL     1      -0.398  10.508  20.407  0.00  0.00    +0.000 A 
ATOM     13  C   UNL     1      -0.328  10.070  21.730  0.00  0.00    +0.000 A 
ATOM     14  C   UNL     1       0.526   9.027  22.090  0.00  0.00    +0.000 A 
ATOM     15  C   UNL     1       1.320   8.416  21.122  0.00  0.00    +0.000 A 
ATOM     16  C   UNL     1       1.253   8.832  19.785  0.00  0.00    +0.000 A 
ATOM     17  C   UNL     1       0.394   9.888  19.437  0.00  0.00    +0.000 A 
BRANCH  12  19
ATOM     18  C   UNL     1      -0.803  12.595  19.344  0.00  0.00    +0.000 C 
ATOM     19  O   UNL     1      -1.259  11.549  20.192  0.00  0.00    +0.000 OA
ENDBRANCH  12  19
ENDBRANCH  11  16
ENDBRANCH   7  11
ENDBRANCH   1   8
BRANCH   6  20
ATOM     20  S   UNL     1       5.822   5.311  18.600  0.00  0.00    +0.000 S 
BRANCH  20  21
ATOM     21  C   UNL     1       5.935   4.910  16.867  0.00  0.00    +0.000 A 
ATOM     22  C   UNL     1       7.081   5.352  16.184  0.00  0.00    +0.000 A 
ATOM     23  C   UNL     1       7.289   5.023  14.841  0.00  0.00    +0.000 A 
ATOM     24  C   UNL     1       6.350   4.245  14.170  0.00  0.00    +0.000 A 
ATOM     25 CL   UNL     1       6.619   3.811  12.527  0.00  0.00    +0.000 Cl
ATOM     26  C   UNL     1       5.206   3.804  14.828  0.00  0.00    +0.000 A 
ATOM     27  C   UNL     1       5.001   4.132  16.175  0.00  0.00    +0.000 A 
ENDBRANCH  20  21
ENDBRANCH   6  20
TORSDOF 6
ENDMDL
