MODEL 1
REMARK VINA RESULT:      -8.6      0.000      0.000
REMARK  Name = 
REMARK  5 active torsions:
REMARK  status: ('A' for Active; 'I' for Inactive)
REMARK    1  A    between atoms: C_1  and  C_2
REMARK    2  A    between atoms: C_2  and  N_3
REMARK    3  A    between atoms: C_9  and  C_10
REMARK    4  A    between atoms: C_16  and  C_17
REMARK    5  A    between atoms: N_20  and  C_21
REMARK                            x       y       z     vdW  Elec       q    Type
REMARK                         _______ _______ _______ _____ _____    ______ ____
ROOT
ATOM      1  C   UNL     1       2.223   6.712  19.831  0.00  0.00    +0.000 A 
ATOM      2  N   UNL     1       1.713   6.130  20.937  0.00  0.00    +0.000 NA
ATOM      3  N   UNL     1       2.273   4.911  20.962  0.00  0.00    +0.000 N 
ATOM      4  C   UNL     1       3.127   4.661  19.927  0.00  0.00    +0.000 A 
ATOM      5  C   UNL     1       3.885   3.536  19.604  0.00  0.00    +0.000 A 
ATOM      6  C   UNL     1       4.685   3.616  18.456  0.00  0.00    +0.000 A 
ATOM      7  C   UNL     1       4.723   4.771  17.662  0.00  0.00    +0.000 A 
ATOM      8  C   UNL     1       3.937   5.878  18.015  0.00  0.00    +0.000 A 
ATOM      9  C   UNL     1       3.126   5.824  19.167  0.00  0.00    +0.000 A 
ATOM     10  H   UNL     1       2.030   4.289  21.724  0.00  0.00    +0.000 HD
ENDROOT
BRANCH   1  17
ATOM     11  N   UNL     1      -1.500  13.018  21.891  0.00  0.00    +0.000 NA
ATOM     12  C   UNL     1      -0.807  13.234  20.597  0.00  0.00    +0.000 C 
ATOM     13  C   UNL     1       0.592  12.593  20.500  0.00  0.00    +0.000 C 
ATOM     14  N   UNL     1       0.539  11.169  20.844  0.00  0.00    +0.000 N 
ATOM     15  C   UNL     1       1.025  10.234  19.958  0.00  0.00    +0.000 A 
ATOM     16  C   UNL     1       1.378   8.968  20.377  0.00  0.00    +0.000 A 
ATOM     17  C   UNL     1       1.844   8.076  19.433  0.00  0.00    +0.000 A 
ATOM     18  N   UNL     1       1.969   8.399  18.131  0.00  0.00    +0.000 NA
ATOM     19  C   UNL     1       1.622   9.649  17.817  0.00  0.00    +0.000 A 
ATOM     20  N   UNL     1       1.166  10.580  18.666  0.00  0.00    +0.000 NA
ATOM     21  C   UNL     1      -0.223  10.796  22.041  0.00  0.00    +0.000 C 
ATOM     22  C   UNL     1      -1.573  11.553  22.112  0.00  0.00    +0.000 C 
BRANCH  11  24
ATOM     23  C   UNL     1      -1.807  14.474  23.900  0.00  0.00    +0.000 C 
ATOM     24  C   UNL     1      -0.842  13.680  23.027  0.00  0.00    +0.000 C 
ENDBRANCH  11  24
ENDBRANCH   1  17
BRANCH   7  25
ATOM     25  C   UNL     1       5.590   4.828  16.500  0.00  0.00    +0.000 A 
ATOM     26  C   UNL     1       6.796   5.533  16.285  0.00  0.00    +0.000 A 
ATOM     27  N   UNL     1       7.307   5.327  15.069  0.00  0.00    +0.000 NA
ATOM     28  N   UNL     1       6.423   4.492  14.496  0.00  0.00    +0.000 N 
ATOM     29  C   UNL     1       6.640   4.022  13.150  0.00  0.00    +0.000 C 
ATOM     30  C   UNL     1       5.376   4.165  15.308  0.00  0.00    +0.000 A 
ENDBRANCH   7  25
TORSDOF 3
ENDMDL
MODEL 2
REMARK VINA RESULT:      -8.5      2.831      4.738
REMARK  Name = 
REMARK  5 active torsions:
REMARK  status: ('A' for Active; 'I' for Inactive)
REMARK    1  A    between atoms: C_1  and  C_2
REMARK    2  A    between atoms: C_2  and  N_3
REMARK    3  A    between atoms: C_9  and  C_10
REMARK    4  A    between atoms: C_16  and  C_17
REMARK    5  A    between atoms: N_20  and  C_21
REMARK                            x       y       z     vdW  Elec       q    Type
REMARK                         _______ _______ _______ _____ _____    ______ ____
ROOT
ATOM      1  C   UNL     1       0.977   9.878  19.748  0.00  0.00    +0.000 A 
ATOM      2  N   UNL     1       1.081  10.791  18.760  0.00  0.00    +0.000 NA
ATOM      3  N   UNL     1       1.810  10.180  17.815  0.00  0.00    +0.000 N 
ATOM      4  C   UNL     1       2.190   8.908  18.131  0.00  0.00    +0.000 A 
ATOM      5  C   UNL     1       2.942   7.965  17.428  0.00  0.00    +0.000 A 
ATOM      6  C   UNL     1       3.140   6.722  18.045  0.00  0.00    +0.000 A 
ATOM      7  C   UNL     1       2.612   6.434  19.312  0.00  0.00    +0.000 A 
ATOM      8  C   UNL     1       1.872   7.413  19.990  0.00  0.00    +0.000 A 
ATOM      9  C   UNL     1       1.655   8.671  19.391  0.00  0.00    +0.000 A 
ATOM     10  H   UNL     1       2.014  10.691  16.964  0.00  0.00    +0.000 HD
ENDROOT
BRANCH   1  17
ATOM     11  N   UNL     1      -3.440  14.892  23.385  0.00  0.00    +0.000 NA
ATOM     12  C   UNL     1      -3.275  13.666  24.206  0.00  0.00    +0.000 C 
ATOM     13  C   UNL     1      -3.290  12.349  23.407  0.00  0.00    +0.000 C 
ATOM     14  N   UNL     1      -2.317  12.390  22.312  0.00  0.00    +0.000 N 
ATOM     15  C   UNL     1      -1.360  11.405  22.212  0.00  0.00    +0.000 A 
ATOM     16  C   UNL     1      -0.709  11.159  21.020  0.00  0.00    +0.000 A 
ATOM     17  C   UNL     1       0.249  10.167  20.994  0.00  0.00    +0.000 A 
ATOM     18  N   UNL     1       0.563   9.434  22.080  0.00  0.00    +0.000 NA
ATOM     19  C   UNL     1      -0.128   9.725  23.184  0.00  0.00    +0.000 A 
ATOM     20  N   UNL     1      -1.076  10.665  23.299  0.00  0.00    +0.000 NA
ATOM     21  C   UNL     1      -2.285  13.604  21.489  0.00  0.00    +0.000 C 
ATOM     22  C   UNL     1      -2.368  14.882  22.360  0.00  0.00    +0.000 C 
BRANCH  11  24
ATOM     23  C   UNL     1      -5.906  15.069  23.754  0.00  0.00    +0.000 C 
ATOM     24  C   UNL     1      -4.762  14.999  22.750  0.00  0.00    +0.000 C 
ENDBRANCH  11  24
ENDBRANCH   1  17
BRANCH   7  25
ATOM     25  C   UNL     1       2.811   5.124  19.903  0.00  0.00    +0.000 A 
ATOM     26  C   UNL     1       2.106   4.465  20.936  0.00  0.00    +0.000 A 
ATOM     27  N   UNL     1       2.593   3.251  21.203  0.00  0.00    +0.000 NA
ATOM     28  N   UNL     1       3.619   3.130  20.343  0.00  0.00    +0.000 N 
ATOM     29  C   UNL     1       4.405   1.921  20.320  0.00  0.00    +0.000 C 
ATOM     30  C   UNL     1       3.794   4.224  19.545  0.00  0.00    +0.000 A 
ENDBRANCH   7  25
TORSDOF 3
ENDMDL
MODEL 3
REMARK VINA RESULT:      -7.4      2.605      8.804
REMARK  Name = 
REMARK  5 active torsions:
REMARK  status: ('A' for Active; 'I' for Inactive)
REMARK    1  A    between atoms: C_1  and  C_2
REMARK    2  A    between atoms: C_2  and  N_3
REMARK    3  A    between atoms: C_9  and  C_10
REMARK    4  A    between atoms: C_16  and  C_17
REMARK    5  A    between atoms: N_20  and  C_21
REMARK                            x       y       z     vdW  Elec       q    Type
REMARK                         _______ _______ _______ _____ _____    ______ ____
ROOT
ATOM      1  C   UNL     1       1.113   8.508  21.102  0.00  0.00    +0.000 A 
ATOM      2  N   UNL     1       1.537   8.941  22.307  0.00  0.00    +0.000 NA
ATOM      3  N   UNL     1       0.917  10.117  22.478  0.00  0.00    +0.000 N 
ATOM      4  C   UNL     1       0.103  10.481  21.444  0.00  0.00    +0.000 A 
ATOM      5  C   UNL     1      -0.694  11.609  21.247  0.00  0.00    +0.000 A 
ATOM      6  C   UNL     1      -1.432  11.666  20.057  0.00  0.00    +0.000 A 
ATOM      7  C   UNL     1      -1.373  10.640  19.102  0.00  0.00    +0.000 A 
ATOM      8  C   UNL     1      -0.551   9.528  19.333  0.00  0.00    +0.000 A 
ATOM      9  C   UNL     1       0.200   9.445  20.524  0.00  0.00    +0.000 A 
ATOM     10  H   UNL     1       1.091  10.629  23.335  0.00  0.00    +0.000 HD
ENDROOT
BRANCH   1  17
ATOM     11  N   UNL     1       5.575   5.274  15.858  0.00  0.00    +0.000 NA
ATOM     12  C   UNL     1       4.956   4.232  16.714  0.00  0.00    +0.000 C 
ATOM     13  C   UNL     1       4.861   4.599  18.208  0.00  0.00    +0.000 C 
ATOM     14  N   UNL     1       4.201   5.896  18.387  0.00  0.00    +0.000 N 
ATOM     15  C   UNL     1       3.097   5.993  19.205  0.00  0.00    +0.000 A 
ATOM     16  C   UNL     1       2.702   7.207  19.729  0.00  0.00    +0.000 A 
ATOM     17  C   UNL     1       1.578   7.235  20.530  0.00  0.00    +0.000 A 
ATOM     18  N   UNL     1       0.867   6.128  20.819  0.00  0.00    +0.000 NA
ATOM     19  C   UNL     1       1.331   4.996  20.287  0.00  0.00    +0.000 A 
ATOM     20  N   UNL     1       2.412   4.875  19.504  0.00  0.00    +0.000 NA
ATOM     21  C   UNL     1       4.631   6.993  17.514  0.00  0.00    +0.000 C 
ATOM     22  C   UNL     1       4.794   6.521  16.047  0.00  0.00    +0.000 C 
BRANCH  11  24
ATOM     23  C   UNL     1       7.581   4.491  17.128  0.00  0.00    +0.000 C 
ATOM     24  C   UNL     1       6.998   5.505  16.151  0.00  0.00    +0.000 C 
ENDBRANCH  11  24
ENDBRANCH   1  17
BRANCH   7  25
ATOM     25  C   UNL     1      -2.178  10.719  17.897  0.00  0.00    +0.000 A 
ATOM     26  C   UNL     1      -3.363  11.440  17.628  0.00  0.00    +0.000 A 
ATOM     27  N   UNL     1      -3.810  11.256  16.383  0.00  0.00    +0.000 NA
ATOM     28  N   UNL     1      -2.912  10.409  15.851  0.00  0.00    +0.000 N 
ATOM     29  C   UNL     1      -3.052   9.973  14.483  0.00  0.00    +0.000 C 
ATOM     30  C   UNL     1      -1.917  10.055  16.716  0.00  0.00    +0.000 A 
ENDBRANCH   7  25
TORSDOF 3
ENDMDL
MODEL 4
REMARK VINA RESULT:      -7.4      1.114      1.269
REMARK  Name = 
REMARK  5 active torsions:
REMARK  status: ('A' for Active; 'I' for Inactive)
REMARK    1  A    between atoms: C_1  and  C_2
REMARK    2  A    between atoms: C_2  and  N_3
REMARK    3  A    between atoms: C_9  and  C_10
REMARK    4  A    between atoms: C_16  and  C_17
REMARK    5  A    between atoms: N_20  and  C_21
REMARK                            x       y       z     vdW  Elec       q    Type
REMARK                         _______ _______ _______ _____ _____    ______ ____
ROOT
ATOM      1  C   UNL     1       1.728   7.761  20.023  0.00  0.00    +0.000 A 
ATOM      2  N   UNL     1       1.214   7.267  21.169  0.00  0.00    +0.000 NA
ATOM      3  N   UNL     1       1.636   5.995  21.205  0.00  0.00    +0.000 N 
ATOM      4  C   UNL     1       2.404   5.625  20.138  0.00  0.00    +0.000 A 
ATOM      5  C   UNL     1       3.016   4.414  19.814  0.00  0.00    +0.000 A 
ATOM      6  C   UNL     1       3.761   4.376  18.628  0.00  0.00    +0.000 A 
ATOM      7  C   UNL     1       3.886   5.499  17.798  0.00  0.00    +0.000 A 
ATOM      8  C   UNL     1       3.245   6.695  18.154  0.00  0.00    +0.000 A 
ATOM      9  C   UNL     1       2.492   6.761  19.344  0.00  0.00    +0.000 A 
ATOM     10  H   UNL     1       1.365   5.423  21.996  0.00  0.00    +0.000 HD
ENDROOT
BRANCH   1  17
ATOM     11  N   UNL     1      -2.303  14.075  21.349  0.00  0.00    +0.000 NA
ATOM     12  C   UNL     1      -1.302  14.323  20.283  0.00  0.00    +0.000 C 
ATOM     13  C   UNL     1       0.066  13.651  20.514  0.00  0.00    +0.000 C 
ATOM     14  N   UNL     1      -0.092  12.217  20.772  0.00  0.00    +0.000 N 
ATOM     15  C   UNL     1       0.588  11.304  19.996  0.00  0.00    +0.000 A 
ATOM     16  C   UNL     1       0.806  10.015  20.436  0.00  0.00    +0.000 A 
ATOM     17  C   UNL     1       1.482   9.148  19.602  0.00  0.00    +0.000 A 
ATOM     18  N   UNL     1       1.937   9.518  18.388  0.00  0.00    +0.000 NA
ATOM     19  C   UNL     1       1.699  10.787  18.052  0.00  0.00    +0.000 A 
ATOM     20  N   UNL     1       1.057  11.696  18.798  0.00  0.00    +0.000 NA
ATOM     21  C   UNL     1      -1.138  11.818  21.720  0.00  0.00    +0.000 C 
ATOM     22  C   UNL     1      -2.451  12.604  21.482  0.00  0.00    +0.000 C 
BRANCH  11  24
ATOM     23  C   UNL     1      -2.266  16.164  22.722  0.00  0.00    +0.000 C 
ATOM     24  C   UNL     1      -1.944  14.676  22.643  0.00  0.00    +0.000 C 
ENDBRANCH  11  24
ENDBRANCH   1  17
BRANCH   7  25
ATOM     25  C   UNL     1       4.694   5.430  16.594  0.00  0.00    +0.000 A 
ATOM     26  C   UNL     1       5.335   6.451  15.857  0.00  0.00    +0.000 A 
ATOM     27  N   UNL     1       5.996   5.986  14.794  0.00  0.00    +0.000 NA
ATOM     28  N   UNL     1       5.773   4.662  14.844  0.00  0.00    +0.000 N 
ATOM     29  C   UNL     1       6.347   3.794  13.844  0.00  0.00    +0.000 C 
ATOM     30  C   UNL     1       4.998   4.277  15.900  0.00  0.00    +0.000 A 
ENDBRANCH   7  25
TORSDOF 3
ENDMDL
MODEL 5
REMARK VINA RESULT:      -7.3      4.385      8.359
REMARK  Name = 
REMARK  5 active torsions:
REMARK  status: ('A' for Active; 'I' for Inactive)
REMARK    1  A    between atoms: C_1  and  C_2
REMARK    2  A    between atoms: C_2  and  N_3
REMARK    3  A    between atoms: C_9  and  C_10
REMARK    4  A    between atoms: C_16  and  C_17
REMARK    5  A    between atoms: N_20  and  C_21
REMARK                            x       y       z     vdW  Elec       q    Type
REMARK                         _______ _______ _______ _____ _____    ______ ____
ROOT
ATOM      1  C   UNL     1      -5.526  12.169  19.311  0.00  0.00    +0.000 A 
ATOM      2  N   UNL     1      -6.632  12.188  18.539  0.00  0.00    +0.000 NA
ATOM      3  N   UNL     1      -6.212  11.754  17.342  0.00  0.00    +0.000 N 
ATOM      4  C   UNL     1      -4.883  11.447  17.287  0.00  0.00    +0.000 A 
ATOM      5  C   UNL     1      -4.083  10.977  16.245  0.00  0.00    +0.000 A 
ATOM      6  C   UNL     1      -2.732  10.747  16.535  0.00  0.00    +0.000 A 
ATOM      7  C   UNL     1      -2.200  10.980  17.811  0.00  0.00    +0.000 A 
ATOM      8  C   UNL     1      -3.035  11.464  18.829  0.00  0.00    +0.000 A 
ATOM      9  C   UNL     1      -4.400  11.701  18.565  0.00  0.00    +0.000 A 
ATOM     10  H   UNL     1      -6.891  11.684  16.594  0.00  0.00    +0.000 HD
ENDROOT
BRANCH   1  17
ATOM     11  N   UNL     1      -1.507  15.171  25.031  0.00  0.00    +0.000 NA
ATOM     12  C   UNL     1      -2.920  14.983  25.443  0.00  0.00    +0.000 C 
ATOM     13  C   UNL     1      -3.959  15.306  24.352  0.00  0.00    +0.000 C 
ATOM     14  N   UNL     1      -3.663  14.575  23.116  0.00  0.00    +0.000 N 
ATOM     15  C   UNL     1      -4.630  13.774  22.548  0.00  0.00    +0.000 A 
ATOM     16  C   UNL     1      -4.565  13.409  21.220  0.00  0.00    +0.000 A 
ATOM     17  C   UNL     1      -5.559  12.593  20.720  0.00  0.00    +0.000 A 
ATOM     18  N   UNL     1      -6.582  12.151  21.477  0.00  0.00    +0.000 NA
ATOM     19  C   UNL     1      -6.576  12.568  22.744  0.00  0.00    +0.000 A 
ATOM     20  N   UNL     1      -5.658  13.362  23.311  0.00  0.00    +0.000 NA
ATOM     21  C   UNL     1      -2.271  14.574  22.654  0.00  0.00    +0.000 C 
ATOM     22  C   UNL     1      -1.285  14.336  23.825  0.00  0.00    +0.000 C 
BRANCH  11  24
ATOM     23  C   UNL     1      -1.348  17.484  25.967  0.00  0.00    +0.000 C 
ATOM     24  C   UNL     1      -1.157  16.574  24.759  0.00  0.00    +0.000 C 
ENDBRANCH  11  24
ENDBRANCH   1  17
BRANCH   7  25
ATOM     25  C   UNL     1      -0.803  10.698  18.081  0.00  0.00    +0.000 A 
ATOM     26  C   UNL     1       0.169  11.448  18.780  0.00  0.00    +0.000 A 
ATOM     27  N   UNL     1       1.360  10.847  18.819  0.00  0.00    +0.000 NA
ATOM     28  N   UNL     1       1.156   9.707  18.137  0.00  0.00    +0.000 N 
ATOM     29  C   UNL     1       2.234   8.763  17.967  0.00  0.00    +0.000 C 
ATOM     30  C   UNL     1      -0.120   9.570  17.671  0.00  0.00    +0.000 A 
ENDBRANCH   7  25
TORSDOF 3
ENDMDL
MODEL 6
REMARK VINA RESULT:      -7.1      3.021      4.184
REMARK  Name = 
REMARK  5 active torsions:
REMARK  status: ('A' for Active; 'I' for Inactive)
REMARK    1  A    between atoms: C_1  and  C_2
REMARK    2  A    between atoms: C_2  and  N_3
REMARK    3  A    between atoms: C_9  and  C_10
REMARK    4  A    between atoms: C_16  and  C_17
REMARK    5  A    between atoms: N_20  and  C_21
REMARK                            x       y       z     vdW  Elec       q    Type
REMARK                         _______ _______ _______ _____ _____    ______ ____
ROOT
ATOM      1  C   UNL     1       0.705   9.596  20.235  0.00  0.00    +0.000 A 
ATOM      2  N   UNL     1       0.051   9.351  21.390  0.00  0.00    +0.000 NA
ATOM      3  N   UNL     1       0.373   8.086  21.696  0.00  0.00    +0.000 N 
ATOM      4  C   UNL     1       1.208   7.484  20.800  0.00  0.00    +0.000 A 
ATOM      5  C   UNL     1       1.758   6.202  20.763  0.00  0.00    +0.000 A 
ATOM      6  C   UNL     1       2.606   5.905  19.687  0.00  0.00    +0.000 A 
ATOM      7  C   UNL     1       2.890   6.847  18.689  0.00  0.00    +0.000 A 
ATOM      8  C   UNL     1       2.308   8.121  18.756  0.00  0.00    +0.000 A 
ATOM      9  C   UNL     1       1.454   8.448  19.829  0.00  0.00    +0.000 A 
ATOM     10  H   UNL     1      -0.012   7.686  22.543  0.00  0.00    +0.000 HD
ENDROOT
BRANCH   1  17
ATOM     11  N   UNL     1       3.487  16.661  19.782  0.00  0.00    +0.000 NA
ATOM     12  C   UNL     1       2.472  16.443  18.721  0.00  0.00    +0.000 C 
ATOM     13  C   UNL     1       2.513  15.048  18.067  0.00  0.00    +0.000 C 
ATOM     14  N   UNL     1       2.456  13.993  19.083  0.00  0.00    +0.000 N 
ATOM     15  C   UNL     1       1.482  13.022  19.006  0.00  0.00    +0.000 A 
ATOM     16  C   UNL     1       1.624  11.814  19.657  0.00  0.00    +0.000 A 
ATOM     17  C   UNL     1       0.602  10.893  19.549  0.00  0.00    +0.000 A 
ATOM     18  N   UNL     1      -0.514  11.130  18.832  0.00  0.00    +0.000 NA
ATOM     19  C   UNL     1      -0.559  12.314  18.221  0.00  0.00    +0.000 A 
ATOM     20  N   UNL     1       0.385  13.265  18.266  0.00  0.00    +0.000 NA
ATOM     21  C   UNL     1       3.324  14.144  20.256  0.00  0.00    +0.000 C 
ATOM     22  C   UNL     1       3.300  15.596  20.797  0.00  0.00    +0.000 C 
BRANCH  11  24
ATOM     23  C   UNL     1       5.792  17.587  20.063  0.00  0.00    +0.000 C 
ATOM     24  C   UNL     1       4.869  16.660  19.280  0.00  0.00    +0.000 C 
ENDBRANCH  11  24
ENDBRANCH   1  17
BRANCH   7  25
ATOM     25  C   UNL     1       3.799   6.512  17.609  0.00  0.00    +0.000 A 
ATOM     26  C   UNL     1       4.544   7.344  16.742  0.00  0.00    +0.000 A 
ATOM     27  N   UNL     1       5.279   6.655  15.866  0.00  0.00    +0.000 NA
ATOM     28  N   UNL     1       5.002   5.374  16.166  0.00  0.00    +0.000 N 
ATOM     29  C   UNL     1       5.629   4.306  15.427  0.00  0.00    +0.000 C 
ATOM     30  C   UNL     1       4.120   5.234  17.199  0.00  0.00    +0.000 A 
ENDBRANCH   7  25
TORSDOF 3
ENDMDL
MODEL 7
REMARK VINA RESULT:      -7.0      2.116      9.677
REMARK  Name = 
REMARK  5 active torsions:
REMARK  status: ('A' for Active; 'I' for Inactive)
REMARK    1  A    between atoms: C_1  and  C_2
REMARK    2  A    between atoms: C_2  and  N_3
REMARK    3  A    between atoms: C_9  and  C_10
REMARK    4  A    between atoms: C_16  and  C_17
REMARK    5  A    between atoms: N_20  and  C_21
REMARK                            x       y       z     vdW  Elec       q    Type
REMARK                         _______ _______ _______ _____ _____    ______ ____
ROOT
ATOM      1  C   UNL     1       0.329   9.760  21.070  0.00  0.00    +0.000 A 
ATOM      2  N   UNL     1       0.040   8.979  22.133  0.00  0.00    +0.000 NA
ATOM      3  N   UNL     1      -0.619   9.789  22.973  0.00  0.00    +0.000 N 
ATOM      4  C   UNL     1      -0.781  11.065  22.517  0.00  0.00    +0.000 A 
ATOM      5  C   UNL     1      -1.396  12.181  23.086  0.00  0.00    +0.000 A 
ATOM      6  C   UNL     1      -1.399  13.360  22.330  0.00  0.00    +0.000 A 
ATOM      7  C   UNL     1      -0.810  13.424  21.059  0.00  0.00    +0.000 A 
ATOM      8  C   UNL     1      -0.191  12.283  20.527  0.00  0.00    +0.000 A 
ATOM      9  C   UNL     1      -0.177  11.083  21.266  0.00  0.00    +0.000 A 
ATOM     10  H   UNL     1      -0.941   9.404  23.854  0.00  0.00    +0.000 HD
ENDROOT
BRANCH   1  17
ATOM     11  N   UNL     1       4.934   4.254  18.551  0.00  0.00    +0.000 NA
ATOM     12  C   UNL     1       4.557   5.155  17.434  0.00  0.00    +0.000 C 
ATOM     13  C   UNL     1       3.092   5.634  17.459  0.00  0.00    +0.000 C 
ATOM     14  N   UNL     1       2.759   6.227  18.757  0.00  0.00    +0.000 N 
ATOM     15  C   UNL     1       2.246   7.505  18.812  0.00  0.00    +0.000 A 
ATOM     16  C   UNL     1       1.545   7.946  19.916  0.00  0.00    +0.000 A 
ATOM     17  C   UNL     1       1.072   9.242  19.911  0.00  0.00    +0.000 A 
ATOM     18  N   UNL     1       1.264  10.079  18.873  0.00  0.00    +0.000 NA
ATOM     19  C   UNL     1       1.935   9.564  17.841  0.00  0.00    +0.000 A 
ATOM     20  N   UNL     1       2.425   8.320  17.758  0.00  0.00    +0.000 NA
ATOM     21  C   UNL     1       3.184   5.499  19.957  0.00  0.00    +0.000 C 
ATOM     22  C   UNL     1       4.633   4.970  19.815  0.00  0.00    +0.000 C 
BRANCH  11  24
ATOM     23  C   UNL     1       4.359   2.180  19.823  0.00  0.00    +0.000 C 
ATOM     24  C   UNL     1       4.245   2.955  18.516  0.00  0.00    +0.000 C 
ENDBRANCH  11  24
ENDBRANCH   1  17
BRANCH   7  25
ATOM     25  C   UNL     1      -0.862  14.654  20.292  0.00  0.00    +0.000 A 
ATOM     26  C   UNL     1      -0.117  15.069  19.165  0.00  0.00    +0.000 A 
ATOM     27  N   UNL     1      -0.461  16.284  18.733  0.00  0.00    +0.000 NA
ATOM     28  N   UNL     1      -1.428  16.657  19.590  0.00  0.00    +0.000 N 
ATOM     29  C   UNL     1      -2.072  17.939  19.440  0.00  0.00    +0.000 C 
ATOM     30  C   UNL     1      -1.704  15.719  20.543  0.00  0.00    +0.000 A 
ENDBRANCH   7  25
TORSDOF 3
ENDMDL
MODEL 8
REMARK VINA RESULT:      -6.9      4.914      8.343
REMARK  Name = 
REMARK  5 active torsions:
REMARK  status: ('A' for Active; 'I' for Inactive)
REMARK    1  A    between atoms: C_1  and  C_2
REMARK    2  A    between atoms: C_2  and  N_3
REMARK    3  A    between atoms: C_9  and  C_10
REMARK    4  A    between atoms: C_16  and  C_17
REMARK    5  A    between atoms: N_20  and  C_21
REMARK                            x       y       z     vdW  Elec       q    Type
REMARK                         _______ _______ _______ _____ _____    ______ ____
ROOT
ATOM      1  C   UNL     1      -5.211  12.446  18.672  0.00  0.00    +0.000 A 
ATOM      2  N   UNL     1      -6.124  12.534  17.682  0.00  0.00    +0.000 NA
ATOM      3  N   UNL     1      -5.572  11.867  16.658  0.00  0.00    +0.000 N 
ATOM      4  C   UNL     1      -4.341  11.343  16.923  0.00  0.00    +0.000 A 
ATOM      5  C   UNL     1      -3.459  10.603  16.134  0.00  0.00    +0.000 A 
ATOM      6  C   UNL     1      -2.258  10.199  16.730  0.00  0.00    +0.000 A 
ATOM      7  C   UNL     1      -1.947  10.524  18.058  0.00  0.00    +0.000 A 
ATOM      8  C   UNL     1      -2.854  11.280  18.815  0.00  0.00    +0.000 A 
ATOM      9  C   UNL     1      -4.072  11.696  18.239  0.00  0.00    +0.000 A 
ATOM     10  H   UNL     1      -6.096  11.802  15.793  0.00  0.00    +0.000 HD
ENDROOT
BRANCH   1  17
ATOM     11  N   UNL     1      -1.872  15.168  24.941  0.00  0.00    +0.000 NA
ATOM     12  C   UNL     1      -3.337  15.401  25.001  0.00  0.00    +0.000 C 
ATOM     13  C   UNL     1      -3.979  15.807  23.660  0.00  0.00    +0.000 C 
ATOM     14  N   UNL     1      -3.635  14.850  22.604  0.00  0.00    +0.000 N 
ATOM     15  C   UNL     1      -4.637  14.240  21.882  0.00  0.00    +0.000 A 
ATOM     16  C   UNL     1      -4.387  13.677  20.648  0.00  0.00    +0.000 A 
ATOM     17  C   UNL     1      -5.433  13.069  19.985  0.00  0.00    +0.000 A 
ATOM     18  N   UNL     1      -6.679  13.013  20.496  0.00  0.00    +0.000 NA
ATOM     19  C   UNL     1      -6.835  13.599  21.684  0.00  0.00    +0.000 A 
ATOM     20  N   UNL     1      -5.880  14.214  22.395  0.00  0.00    +0.000 NA
ATOM     21  C   UNL     1      -2.232  14.434  22.508  0.00  0.00    +0.000 C 
ATOM     22  C   UNL     1      -1.632  14.134  23.905  0.00  0.00    +0.000 C 
BRANCH  11  24
ATOM     23  C   UNL     1      -0.448  16.993  25.886  0.00  0.00    +0.000 C 
ATOM     24  C   UNL     1      -1.096  16.383  24.649  0.00  0.00    +0.000 C 
ENDBRANCH  11  24
ENDBRANCH   1  17
BRANCH   7  25
ATOM     25  C   UNL     1      -0.706  10.059  18.651  0.00  0.00    +0.000 A 
ATOM     26  C   UNL     1       0.551   9.793  18.064  0.00  0.00    +0.000 A 
ATOM     27  N   UNL     1       1.460   9.378  18.950  0.00  0.00    +0.000 NA
ATOM     28  N   UNL     1       0.783   9.371  20.111  0.00  0.00    +0.000 N 
ATOM     29  C   UNL     1       1.444   8.980  21.332  0.00  0.00    +0.000 C 
ATOM     30  C   UNL     1      -0.518   9.768  19.987  0.00  0.00    +0.000 A 
ENDBRANCH   7  25
TORSDOF 3
ENDMDL
MODEL 9
REMARK VINA RESULT:      -6.9      5.861     10.657
REMARK  Name = 
REMARK  5 active torsions:
REMARK  status: ('A' for Active; 'I' for Inactive)
REMARK    1  A    between atoms: C_1  and  C_2
REMARK    2  A    between atoms: C_2  and  N_3
REMARK    3  A    between atoms: C_9  and  C_10
REMARK    4  A    between atoms: C_16  and  C_17
REMARK    5  A    between atoms: N_20  and  C_21
REMARK                            x       y       z     vdW  Elec       q    Type
REMARK                         _______ _______ _______ _____ _____    ______ ____
ROOT
ATOM      1  C   UNL     1      -3.188  11.384  17.642  0.00  0.00    +0.000 A 
ATOM      2  N   UNL     1      -3.515  10.989  16.394  0.00  0.00    +0.000 NA
ATOM      3  N   UNL     1      -4.845  11.145  16.330  0.00  0.00    +0.000 N 
ATOM      4  C   UNL     1      -5.412  11.624  17.475  0.00  0.00    +0.000 A 
ATOM      5  C   UNL     1      -6.738  11.913  17.801  0.00  0.00    +0.000 A 
ATOM      6  C   UNL     1      -6.982  12.416  19.086  0.00  0.00    +0.000 A 
ATOM      7  C   UNL     1      -5.946  12.619  20.008  0.00  0.00    +0.000 A 
ATOM      8  C   UNL     1      -4.627  12.305  19.646  0.00  0.00    +0.000 A 
ATOM      9  C   UNL     1      -4.354  11.801  18.358  0.00  0.00    +0.000 A 
ATOM     10  H   UNL     1      -5.313  10.907  15.464  0.00  0.00    +0.000 HD
ENDROOT
BRANCH   1  17
ATOM     11  N   UNL     1       2.857  15.591  19.547  0.00  0.00    +0.000 NA
ATOM     12  C   UNL     1       3.126  14.157  19.819  0.00  0.00    +0.000 C 
ATOM     13  C   UNL     1       1.929  13.374  20.391  0.00  0.00    +0.000 C 
ATOM     14  N   UNL     1       0.743  13.541  19.546  0.00  0.00    +0.000 N 
ATOM     15  C   UNL     1       0.094  12.431  19.052  0.00  0.00    +0.000 A 
ATOM     16  C   UNL     1      -1.215  12.501  18.621  0.00  0.00    +0.000 A 
ATOM     17  C   UNL     1      -1.799  11.354  18.123  0.00  0.00    +0.000 A 
ATOM     18  N   UNL     1      -1.142  10.180  18.052  0.00  0.00    +0.000 NA
ATOM     19  C   UNL     1       0.111  10.198  18.507  0.00  0.00    +0.000 A 
ATOM     20  N   UNL     1       0.755  11.261  19.010  0.00  0.00    +0.000 NA
ATOM     21  C   UNL     1       0.425  14.901  19.098  0.00  0.00    +0.000 C 
ATOM     22  C   UNL     1       1.695  15.654  18.627  0.00  0.00    +0.000 C 
BRANCH  11  24
ATOM     23  C   UNL     1       3.481  17.617  20.873  0.00  0.00    +0.000 C 
ATOM     24  C   UNL     1       2.597  16.380  20.762  0.00  0.00    +0.000 C 
ENDBRANCH  11  24
ENDBRANCH   1  17
BRANCH   7  25
ATOM     25  C   UNL     1      -6.233  13.173  21.318  0.00  0.00    +0.000 A 
ATOM     26  C   UNL     1      -7.030  12.674  22.374  0.00  0.00    +0.000 A 
ATOM     27  N   UNL     1      -7.047  13.481  23.437  0.00  0.00    +0.000 NA
ATOM     28  N   UNL     1      -6.263  14.507  23.062  0.00  0.00    +0.000 N 
ATOM     29  C   UNL     1      -6.023  15.602  23.970  0.00  0.00    +0.000 C 
ATOM     30  C   UNL     1      -5.754  14.373  21.802  0.00  0.00    +0.000 A 
ENDBRANCH   7  25
TORSDOF 3
ENDMDL
