MODEL 1
REMARK VINA RESULT:      -5.0      0.000      0.000
REMARK  Name = 
REMARK  3 active torsions:
REMARK  status: ('A' for Active; 'I' for Inactive)
REMARK    1  A    between atoms: C_2  and  O_3
REMARK    2  A    between atoms: O_3  and  N_4
REMARK    3  A    between atoms: N_5  and  N_7
REMARK                            x       y       z     vdW  Elec       q    Type
REMARK                         _______ _______ _______ _____ _____    ______ ____
ROOT
ATOM      1  N   UNL     1       5.314   3.680  19.419  0.00  0.00    +0.000 NA
ATOM      2  N   UNL     1       4.574   2.751  19.896  0.00  0.00    +0.000 N 
ATOM      3  O   UNL     1       5.084   1.630  20.231  0.00  0.00    +0.000 OA
ENDROOT
BRANCH   2   4
ATOM      4  N   UNL     1       3.205   2.897  20.119  0.00  0.00    +0.000 N 
ATOM      5  C   UNL     1       2.212   2.475  19.161  0.00  0.00    +0.000 C 
ATOM      6  C   UNL     1       0.963   3.103  19.752  0.00  0.00    +0.000 C 
ATOM      7  C   UNL     1       1.145   2.863  21.251  0.00  0.00    +0.000 C 
ATOM      8  C   UNL     1       2.665   2.814  21.458  0.00  0.00    +0.000 C 
ENDBRANCH   2   4
BRANCH   1   9
ATOM      9  O   UNL     1       4.637   4.902  19.460  0.00  0.00    +0.000 OA
BRANCH   9  11
ATOM     10  C   UNL     1       3.743   6.191  17.700  0.00  0.00    +0.000 C 
ATOM     11  C   UNL     1       4.763   5.527  18.251  0.00  0.00    +0.000 C 
ENDBRANCH   9  11
ENDBRANCH   1   9
TORSDOF 3
ENDMDL
MODEL 2
REMARK VINA RESULT:      -4.9      3.738      4.742
REMARK  Name = 
REMARK  3 active torsions:
REMARK  status: ('A' for Active; 'I' for Inactive)
REMARK    1  A    between atoms: C_2  and  O_3
REMARK    2  A    between atoms: O_3  and  N_4
REMARK    3  A    between atoms: N_5  and  N_7
REMARK                            x       y       z     vdW  Elec       q    Type
REMARK                         _______ _______ _______ _____ _____    ______ ____
ROOT
ATOM      1  N   UNL     1       7.731   6.641  16.419  0.00  0.00    +0.000 NA
ATOM      2  N   UNL     1       7.158   5.580  16.845  0.00  0.00    +0.000 N 
ATOM      3  O   UNL     1       7.688   4.437  16.642  0.00  0.00    +0.000 OA
ENDROOT
BRANCH   2   4
ATOM      4  N   UNL     1       5.969   5.588  17.576  0.00  0.00    +0.000 N 
ATOM      5  C   UNL     1       4.688   5.296  16.978  0.00  0.00    +0.000 C 
ATOM      6  C   UNL     1       3.752   5.713  18.098  0.00  0.00    +0.000 C 
ATOM      7  C   UNL     1       4.472   5.198  19.345  0.00  0.00    +0.000 C 
ATOM      8  C   UNL     1       5.960   5.211  18.971  0.00  0.00    +0.000 C 
ENDBRANCH   2   4
BRANCH   1   9
ATOM      9  O   UNL     1       7.186   7.766  17.045  0.00  0.00    +0.000 OA
BRANCH   9  11
ATOM     10  C   UNL     1       8.375   9.540  18.043  0.00  0.00    +0.000 C 
ATOM     11  C   UNL     1       8.072   8.240  17.971  0.00  0.00    +0.000 C 
ENDBRANCH   9  11
ENDBRANCH   1   9
TORSDOF 3
ENDMDL
MODEL 3
REMARK VINA RESULT:      -4.8      1.035      1.142
REMARK  Name = 
REMARK  3 active torsions:
REMARK  status: ('A' for Active; 'I' for Inactive)
REMARK    1  A    between atoms: C_2  and  O_3
REMARK    2  A    between atoms: O_3  and  N_4
REMARK    3  A    between atoms: N_5  and  N_7
REMARK                            x       y       z     vdW  Elec       q    Type
REMARK                         _______ _______ _______ _____ _____    ______ ____
ROOT
ATOM      1  N   UNL     1       5.620   4.102  19.274  0.00  0.00    +0.000 NA
ATOM      2  N   UNL     1       4.698   3.261  19.560  0.00  0.00    +0.000 N 
ATOM      3  O   UNL     1       4.989   2.151  20.117  0.00  0.00    +0.000 OA
ENDROOT
BRANCH   2   4
ATOM      4  N   UNL     1       3.342   3.501  19.333  0.00  0.00    +0.000 N 
ATOM      5  C   UNL     1       2.669   3.074  18.130  0.00  0.00    +0.000 C 
ATOM      6  C   UNL     1       1.350   3.811  18.267  0.00  0.00    +0.000 C 
ATOM      7  C   UNL     1       1.036   3.661  19.756  0.00  0.00    +0.000 C 
ATOM      8  C   UNL     1       2.407   3.539  20.435  0.00  0.00    +0.000 C 
ENDBRANCH   2   4
BRANCH   1   9
ATOM      9  O   UNL     1       5.062   5.357  19.014  0.00  0.00    +0.000 OA
BRANCH   9  11
ATOM     10  C   UNL     1       4.756   6.060  16.786  0.00  0.00    +0.000 C 
ATOM     11  C   UNL     1       5.555   5.832  17.832  0.00  0.00    +0.000 C 
ENDBRANCH   9  11
ENDBRANCH   1   9
TORSDOF 3
ENDMDL
MODEL 4
REMARK VINA RESULT:      -4.8      4.920      6.177
REMARK  Name = 
REMARK  3 active torsions:
REMARK  status: ('A' for Active; 'I' for Inactive)
REMARK    1  A    between atoms: C_2  and  O_3
REMARK    2  A    between atoms: O_3  and  N_4
REMARK    3  A    between atoms: N_5  and  N_7
REMARK                            x       y       z     vdW  Elec       q    Type
REMARK                         _______ _______ _______ _____ _____    ______ ____
ROOT
ATOM      1  N   UNL     1       6.639   4.177  13.415  0.00  0.00    +0.000 NA
ATOM      2  N   UNL     1       6.749   4.810  14.522  0.00  0.00    +0.000 N 
ATOM      3  O   UNL     1       7.824   5.440  14.798  0.00  0.00    +0.000 OA
ENDROOT
BRANCH   2   4
ATOM      4  N   UNL     1       5.724   4.894  15.465  0.00  0.00    +0.000 N 
ATOM      5  C   UNL     1       5.509   3.881  16.470  0.00  0.00    +0.000 C 
ATOM      6  C   UNL     1       4.158   4.305  17.015  0.00  0.00    +0.000 C 
ATOM      7  C   UNL     1       4.281   5.828  17.067  0.00  0.00    +0.000 C 
ATOM      8  C   UNL     1       5.279   6.179  15.956  0.00  0.00    +0.000 C 
ENDBRANCH   2   4
BRANCH   1   9
ATOM      9  O   UNL     1       5.297   3.874  13.167  0.00  0.00    +0.000 OA
BRANCH   9  11
ATOM     10  C   UNL     1       4.098   3.224  11.244  0.00  0.00    +0.000 C 
ATOM     11  C   UNL     1       5.202   3.178  11.995  0.00  0.00    +0.000 C 
ENDBRANCH   9  11
ENDBRANCH   1   9
TORSDOF 3
ENDMDL
MODEL 5
REMARK VINA RESULT:      -4.8      3.195      4.129
REMARK  Name = 
REMARK  3 active torsions:
REMARK  status: ('A' for Active; 'I' for Inactive)
REMARK    1  A    between atoms: C_2  and  O_3
REMARK    2  A    between atoms: O_3  and  N_4
REMARK    3  A    between atoms: N_5  and  N_7
REMARK                            x       y       z     vdW  Elec       q    Type
REMARK                         _______ _______ _______ _____ _____    ______ ____
ROOT
ATOM      1  N   UNL     1       7.507   5.022  16.596  0.00  0.00    +0.000 NA
ATOM      2  N   UNL     1       6.785   4.799  17.629  0.00  0.00    +0.000 N 
ATOM      3  O   UNL     1       7.331   4.598  18.765  0.00  0.00    +0.000 OA
ENDROOT
BRANCH   2   4
ATOM      4  N   UNL     1       5.390   4.800  17.606  0.00  0.00    +0.000 N 
ATOM      5  C   UNL     1       4.614   3.584  17.584  0.00  0.00    +0.000 C 
ATOM      6  C   UNL     1       3.232   4.136  17.283  0.00  0.00    +0.000 C 
ATOM      7  C   UNL     1       3.182   5.399  18.143  0.00  0.00    +0.000 C 
ATOM      8  C   UNL     1       4.644   5.850  18.262  0.00  0.00    +0.000 C 
ENDBRANCH   2   4
BRANCH   1   9
ATOM      9  O   UNL     1       6.724   5.558  15.569  0.00  0.00    +0.000 OA
BRANCH   9  11
ATOM     10  C   UNL     1       5.891   4.043  13.968  0.00  0.00    +0.000 C 
ATOM     11  C   UNL     1       6.883   4.802  14.442  0.00  0.00    +0.000 C 
ENDBRANCH   9  11
ENDBRANCH   1   9
TORSDOF 3
ENDMDL
MODEL 6
REMARK VINA RESULT:      -4.7      1.282      1.375
REMARK  Name = 
REMARK  3 active torsions:
REMARK  status: ('A' for Active; 'I' for Inactive)
REMARK    1  A    between atoms: C_2  and  O_3
REMARK    2  A    between atoms: O_3  and  N_4
REMARK    3  A    between atoms: N_5  and  N_7
REMARK                            x       y       z     vdW  Elec       q    Type
REMARK                         _______ _______ _______ _____ _____    ______ ____
ROOT
ATOM      1  N   UNL     1       4.838   4.142  17.922  0.00  0.00    +0.000 NA
ATOM      2  N   UNL     1       4.351   3.487  18.908  0.00  0.00    +0.000 N 
ATOM      3  O   UNL     1       5.124   2.960  19.775  0.00  0.00    +0.000 OA
ENDROOT
BRANCH   2   4
ATOM      4  N   UNL     1       2.981   3.337  19.128  0.00  0.00    +0.000 N 
ATOM      5  C   UNL     1       2.265   2.137  18.771  0.00  0.00    +0.000 C 
ATOM      6  C   UNL     1       0.831   2.600  18.952  0.00  0.00    +0.000 C 
ATOM      7  C   UNL     1       0.908   3.436  20.229  0.00  0.00    +0.000 C 
ATOM      8  C   UNL     1       2.344   3.974  20.259  0.00  0.00    +0.000 C 
ENDBRANCH   2   4
BRANCH   1   9
ATOM      9  O   UNL     1       3.842   4.914  17.318  0.00  0.00    +0.000 OA
BRANCH   9  11
ATOM     10  C   UNL     1       3.159   7.056  18.027  0.00  0.00    +0.000 C 
ATOM     11  C   UNL     1       4.098   6.237  17.545  0.00  0.00    +0.000 C 
ENDBRANCH   9  11
ENDBRANCH   1   9
TORSDOF 3
ENDMDL
MODEL 7
REMARK VINA RESULT:      -4.7      2.614      3.527
REMARK  Name = 
REMARK  3 active torsions:
REMARK  status: ('A' for Active; 'I' for Inactive)
REMARK    1  A    between atoms: C_2  and  O_3
REMARK    2  A    between atoms: O_3  and  N_4
REMARK    3  A    between atoms: N_5  and  N_7
REMARK                            x       y       z     vdW  Elec       q    Type
REMARK                         _______ _______ _______ _____ _____    ______ ____
ROOT
ATOM      1  N   UNL     1       6.194   4.227  19.073  0.00  0.00    +0.000 NA
ATOM      2  N   UNL     1       4.979   4.277  18.675  0.00  0.00    +0.000 N 
ATOM      3  O   UNL     1       4.361   3.207  18.356  0.00  0.00    +0.000 OA
ENDROOT
BRANCH   2   4
ATOM      4  N   UNL     1       4.243   5.460  18.600  0.00  0.00    +0.000 N 
ATOM      5  C   UNL     1       4.009   6.151  17.355  0.00  0.00    +0.000 C 
ATOM      6  C   UNL     1       3.435   7.461  17.863  0.00  0.00    +0.000 C 
ATOM      7  C   UNL     1       2.520   7.007  19.001  0.00  0.00    +0.000 C 
ATOM      8  C   UNL     1       3.150   5.706  19.514  0.00  0.00    +0.000 C 
ENDBRANCH   2   4
BRANCH   1   9
ATOM      9  O   UNL     1       6.546   5.428  19.695  0.00  0.00    +0.000 OA
BRANCH   9  11
ATOM     10  C   UNL     1       7.730   6.716  18.115  0.00  0.00    +0.000 C 
ATOM     11  C   UNL     1       7.718   5.884  19.160  0.00  0.00    +0.000 C 
ENDBRANCH   9  11
ENDBRANCH   1   9
TORSDOF 3
ENDMDL
MODEL 8
REMARK VINA RESULT:      -4.7      2.201      4.740
REMARK  Name = 
REMARK  3 active torsions:
REMARK  status: ('A' for Active; 'I' for Inactive)
REMARK    1  A    between atoms: C_2  and  O_3
REMARK    2  A    between atoms: O_3  and  N_4
REMARK    3  A    between atoms: N_5  and  N_7
REMARK                            x       y       z     vdW  Elec       q    Type
REMARK                         _______ _______ _______ _____ _____    ______ ____
ROOT
ATOM      1  N   UNL     1       4.709   3.992  19.407  0.00  0.00    +0.000 NA
ATOM      2  N   UNL     1       5.672   4.676  18.914  0.00  0.00    +0.000 N 
ATOM      3  O   UNL     1       6.560   5.180  19.679  0.00  0.00    +0.000 OA
ENDROOT
BRANCH   2   4
ATOM      4  N   UNL     1       5.846   4.883  17.545  0.00  0.00    +0.000 N 
ATOM      5  C   UNL     1       5.248   5.995  16.846  0.00  0.00    +0.000 C 
ATOM      6  C   UNL     1       5.506   5.594  15.405  0.00  0.00    +0.000 C 
ATOM      7  C   UNL     1       6.926   5.031  15.463  0.00  0.00    +0.000 C 
ATOM      8  C   UNL     1       7.076   4.494  16.893  0.00  0.00    +0.000 C 
ENDBRANCH   2   4
BRANCH   1   9
ATOM      9  O   UNL     1       4.079   3.255  18.400  0.00  0.00    +0.000 OA
BRANCH   9  11
ATOM     10  C   UNL     1       1.984   4.044  17.662  0.00  0.00    +0.000 C 
ATOM     11  C   UNL     1       2.724   3.364  18.543  0.00  0.00    +0.000 C 
ENDBRANCH   9  11
ENDBRANCH   1   9
TORSDOF 3
ENDMDL
MODEL 9
REMARK VINA RESULT:      -4.7      2.334      3.030
REMARK  Name = 
REMARK  3 active torsions:
REMARK  status: ('A' for Active; 'I' for Inactive)
REMARK    1  A    between atoms: C_2  and  O_3
REMARK    2  A    between atoms: O_3  and  N_4
REMARK    3  A    between atoms: N_5  and  N_7
REMARK                            x       y       z     vdW  Elec       q    Type
REMARK                         _______ _______ _______ _____ _____    ______ ____
ROOT
ATOM      1  N   UNL     1       5.765   5.229  19.345  0.00  0.00    +0.000 NA
ATOM      2  N   UNL     1       4.514   4.961  19.311  0.00  0.00    +0.000 N 
ATOM      3  O   UNL     1       3.661   5.813  19.729  0.00  0.00    +0.000 OA
ENDROOT
BRANCH   2   4
ATOM      4  N   UNL     1       3.997   3.773  18.792  0.00  0.00    +0.000 N 
ATOM      5  C   UNL     1       3.812   2.590  19.598  0.00  0.00    +0.000 C 
ATOM      6  C   UNL     1       3.512   1.560  18.524  0.00  0.00    +0.000 C 
ATOM      7  C   UNL     1       2.604   2.331  17.566  0.00  0.00    +0.000 C 
ATOM      8  C   UNL     1       3.024   3.798  17.723  0.00  0.00    +0.000 C 
ENDBRANCH   2   4
BRANCH   1   9
ATOM      9  O   UNL     1       6.470   4.338  18.531  0.00  0.00    +0.000 OA
BRANCH   9  11
ATOM     10  C   UNL     1       7.432   6.319  17.691  0.00  0.00    +0.000 C 
ATOM     11  C   UNL     1       7.493   5.003  17.916  0.00  0.00    +0.000 C 
ENDBRANCH   9  11
ENDBRANCH   1   9
TORSDOF 3
ENDMDL
