MODEL 1
REMARK VINA RESULT:      -7.6      0.000      0.000
REMARK  Name = 
REMARK  11 active torsions:
REMARK  status: ('A' for Active; 'I' for Inactive)
REMARK    1  A    between atoms: C_1  and  C_2
REMARK    2  A    between atoms: C_2  and  N_3
REMARK    3  A    between atoms: N_3  and  C_4
REMARK    4  A    between atoms: C_9  and  N_10
REMARK    5  A    between atoms: N_10  and  C_11
REMARK    6  A    between atoms: N_10  and  C_13
REMARK    7  A    between atoms: C_11  and  C_12
REMARK    8  A    between atoms: C_17  and  C_19
REMARK    9  A    between atoms: C_23  and  N_24
REMARK   10  A    between atoms: N_24  and  S_25
REMARK   11  A    between atoms: S_25  and  C_26
REMARK                            x       y       z     vdW  Elec       q    Type
REMARK                         _______ _______ _______ _____ _____    ______ ____
ROOT
ATOM      1  C   UNL     1      -0.016  12.755  20.623  0.00  0.00    +0.000 C 
ATOM      2  C   UNL     1       1.376  12.193  20.777  0.00  0.00    +0.000 C 
ATOM      3  C   UNL     1       1.410  10.714  20.451  0.00  0.00    +0.000 C 
ATOM      4  N   UNL     1       0.478   9.911  21.255  0.00  0.00    +0.000 N 
ATOM      5  C   UNL     1       0.453   8.500  21.169  0.00  0.00    +0.000 C 
ATOM      6  O   UNL     1      -0.476   7.841  21.634  0.00  0.00    +0.000 OA
ATOM      7  C   UNL     1      -0.845  10.485  21.463  0.00  0.00    +0.000 C 
ATOM      8  C   UNL     1      -0.841  11.986  21.694  0.00  0.00    +0.000 C 
ENDROOT
BRANCH   5   9
ATOM      9  C   UNL     1       1.477   7.852  20.387  0.00  0.00    +0.000 A 
ATOM     10  C   UNL     1       2.057   8.172  19.178  0.00  0.00    +0.000 A 
ATOM     11  C   UNL     1       2.816   7.061  18.751  0.00  0.00    +0.000 A 
ATOM     12  C   UNL     1       3.492   6.767  17.561  0.00  0.00    +0.000 A 
ATOM     13  C   UNL     1       4.252   5.601  17.497  0.00  0.00    +0.000 A 
ATOM     14  C   UNL     1       4.302   4.712  18.570  0.00  0.00    +0.000 A 
ATOM     15  C   UNL     1       3.568   4.952  19.738  0.00  0.00    +0.000 A 
ATOM     16  C   UNL     1       2.845   6.147  19.801  0.00  0.00    +0.000 A 
ATOM     17  N   UNL     1       2.065   6.677  20.803  0.00  0.00    +0.000 N 
ATOM     18  H   UNL     1       1.873   6.237  21.694  0.00  0.00    +0.000 HD
BRANCH  13  19
ATOM     19  N   UNL     1       5.062   5.388  16.353  0.00  0.00    +0.000 N 
ATOM     20  H   UNL     1       4.654   5.610  15.447  0.00  0.00    +0.000 HD
BRANCH  19  21
ATOM     21  S   UNL     1       6.683   5.830  16.447  0.00  0.00    +0.000 S 
ATOM     22  C   UNL     1       7.382   4.715  17.661  0.00  0.00    +0.000 C 
ATOM     23  O   UNL     1       7.320   5.569  15.174  0.00  0.00    +0.000 OA
ATOM     24  O   UNL     1       6.697   7.159  17.030  0.00  0.00    +0.000 OA
ENDBRANCH  19  21
ENDBRANCH  13  19
ENDBRANCH   5   9
BRANCH   1  25
ATOM     25  N   UNL     1      -0.638  12.836  19.254  0.00  0.00    +0.000 N 
BRANCH  25  31
ATOM     26  C   UNL     1      -3.121  12.161  18.959  0.00  0.00    +0.000 A 
ATOM     27  C   UNL     1      -3.958  11.225  18.302  0.00  0.00    +0.000 A 
ATOM     28  C   UNL     1      -3.458  10.218  17.497  0.00  0.00    +0.000 A 
ATOM     29  C   UNL     1      -2.107  10.192  17.313  0.00  0.00    +0.000 A 
ATOM     30  N   UNL     1      -1.268  11.095  17.853  0.00  0.00    +0.000 NA
ATOM     31  C   UNL     1      -1.699  12.087  18.691  0.00  0.00    +0.000 A 
BRANCH  26  32
ATOM     32  N   UNL     1      -3.747  13.117  19.793  0.00  0.00    +0.000 N 
ATOM     33  H   UNL     1      -3.012  13.753  20.101  0.00  0.00    +0.000 HD
BRANCH  32  35
ATOM     34  C   UNL     1      -4.305  13.417  22.258  0.00  0.00    +0.000 C 
ATOM     35  C   UNL     1      -4.649  12.773  20.911  0.00  0.00    +0.000 C 
ENDBRANCH  32  35
ENDBRANCH  26  32
ENDBRANCH  25  31
BRANCH  25  36
ATOM     36  C   UNL     1      -0.558  14.215  18.650  0.00  0.00    +0.000 C 
ATOM     37  C   UNL     1      -0.798  15.348  19.645  0.00  0.00    +0.000 C 
ENDBRANCH  25  36
ENDBRANCH   1  25
TORSDOF 8
ENDMDL
MODEL 2
REMARK VINA RESULT:      -7.4      0.778      2.175
REMARK  Name = 
REMARK  11 active torsions:
REMARK  status: ('A' for Active; 'I' for Inactive)
REMARK    1  A    between atoms: C_1  and  C_2
REMARK    2  A    between atoms: C_2  and  N_3
REMARK    3  A    between atoms: N_3  and  C_4
REMARK    4  A    between atoms: C_9  and  N_10
REMARK    5  A    between atoms: N_10  and  C_11
REMARK    6  A    between atoms: N_10  and  C_13
REMARK    7  A    between atoms: C_11  and  C_12
REMARK    8  A    between atoms: C_17  and  C_19
REMARK    9  A    between atoms: C_23  and  N_24
REMARK   10  A    between atoms: N_24  and  S_25
REMARK   11  A    between atoms: S_25  and  C_26
REMARK                            x       y       z     vdW  Elec       q    Type
REMARK                         _______ _______ _______ _____ _____    ______ ____
ROOT
ATOM      1  C   UNL     1      -0.254  12.718  20.752  0.00  0.00    +0.000 C 
ATOM      2  C   UNL     1       1.174  12.233  20.807  0.00  0.00    +0.000 C 
ATOM      3  C   UNL     1       1.259  10.746  20.529  0.00  0.00    +0.000 C 
ATOM      4  N   UNL     1       0.441   9.928  21.436  0.00  0.00    +0.000 N 
ATOM      5  C   UNL     1       0.484   8.516  21.399  0.00  0.00    +0.000 C 
ATOM      6  O   UNL     1      -0.366   7.829  21.964  0.00  0.00    +0.000 OA
ATOM      7  C   UNL     1      -0.888  10.443  21.736  0.00  0.00    +0.000 C 
ATOM      8  C   UNL     1      -0.945  11.950  21.915  0.00  0.00    +0.000 C 
ENDROOT
BRANCH   5   9
ATOM      9  C   UNL     1       1.473   7.890  20.555  0.00  0.00    +0.000 A 
ATOM     10  C   UNL     1       2.032   8.268  19.353  0.00  0.00    +0.000 A 
ATOM     11  C   UNL     1       2.753   7.166  18.844  0.00  0.00    +0.000 A 
ATOM     12  C   UNL     1       3.392   6.926  17.622  0.00  0.00    +0.000 A 
ATOM     13  C   UNL     1       4.121   5.748  17.471  0.00  0.00    +0.000 A 
ATOM     14  C   UNL     1       4.174   4.797  18.488  0.00  0.00    +0.000 A 
ATOM     15  C   UNL     1       3.474   4.985  19.687  0.00  0.00    +0.000 A 
ATOM     16  C   UNL     1       2.783   6.191  19.838  0.00  0.00    +0.000 A 
ATOM     17  N   UNL     1       2.041   6.679  20.888  0.00  0.00    +0.000 N 
ATOM     18  H   UNL     1       1.859   6.193  21.756  0.00  0.00    +0.000 HD
BRANCH  13  19
ATOM     19  N   UNL     1       4.898   5.583  16.296  0.00  0.00    +0.000 N 
ATOM     20  H   UNL     1       4.493   5.912  15.422  0.00  0.00    +0.000 HD
BRANCH  19  21
ATOM     21  S   UNL     1       6.547   5.906  16.396  0.00  0.00    +0.000 S 
ATOM     22  C   UNL     1       7.150   4.771  17.642  0.00  0.00    +0.000 C 
ATOM     23  O   UNL     1       7.173   5.568  15.136  0.00  0.00    +0.000 OA
ATOM     24  O   UNL     1       6.655   7.244  16.948  0.00  0.00    +0.000 OA
ENDBRANCH  19  21
ENDBRANCH  13  19
ENDBRANCH   5   9
BRANCH   1  25
ATOM     25  N   UNL     1      -0.992  12.715  19.439  0.00  0.00    +0.000 N 
BRANCH  25  31
ATOM     26  C   UNL     1      -2.918  11.816  17.961  0.00  0.00    +0.000 A 
ATOM     27  C   UNL     1      -4.329  11.684  17.915  0.00  0.00    +0.000 A 
ATOM     28  C   UNL     1      -5.152  12.160  18.919  0.00  0.00    +0.000 A 
ATOM     29  C   UNL     1      -4.542  12.725  19.999  0.00  0.00    +0.000 A 
ATOM     30  N   UNL     1      -3.205  12.815  20.131  0.00  0.00    +0.000 NA
ATOM     31  C   UNL     1      -2.342  12.401  19.155  0.00  0.00    +0.000 A 
BRANCH  26  32
ATOM     32  N   UNL     1      -2.186  11.330  16.852  0.00  0.00    +0.000 N 
ATOM     33  H   UNL     1      -1.355  11.916  16.780  0.00  0.00    +0.000 HD
BRANCH  32  35
ATOM     34  C   UNL     1      -3.009   9.610  15.167  0.00  0.00    +0.000 C 
ATOM     35  C   UNL     1      -2.773  11.082  15.519  0.00  0.00    +0.000 C 
ENDBRANCH  32  35
ENDBRANCH  26  32
ENDBRANCH  25  31
BRANCH  25  36
ATOM     36  C   UNL     1      -0.439  13.710  18.450  0.00  0.00    +0.000 C 
ATOM     37  C   UNL     1      -0.312  15.130  18.996  0.00  0.00    +0.000 C 
ENDBRANCH  25  36
ENDBRANCH   1  25
TORSDOF 8
ENDMDL
MODEL 3
REMARK VINA RESULT:      -7.4      2.423      3.600
REMARK  Name = 
REMARK  11 active torsions:
REMARK  status: ('A' for Active; 'I' for Inactive)
REMARK    1  A    between atoms: C_1  and  C_2
REMARK    2  A    between atoms: C_2  and  N_3
REMARK    3  A    between atoms: N_3  and  C_4
REMARK    4  A    between atoms: C_9  and  N_10
REMARK    5  A    between atoms: N_10  and  C_11
REMARK    6  A    between atoms: N_10  and  C_13
REMARK    7  A    between atoms: C_11  and  C_12
REMARK    8  A    between atoms: C_17  and  C_19
REMARK    9  A    between atoms: C_23  and  N_24
REMARK   10  A    between atoms: N_24  and  S_25
REMARK   11  A    between atoms: S_25  and  C_26
REMARK                            x       y       z     vdW  Elec       q    Type
REMARK                         _______ _______ _______ _____ _____    ______ ____
ROOT
ATOM      1  C   UNL     1      -2.147  12.798  18.979  0.00  0.00    +0.000 C 
ATOM      2  C   UNL     1      -0.847  12.319  18.380  0.00  0.00    +0.000 C 
ATOM      3  C   UNL     1      -0.347  11.072  19.081  0.00  0.00    +0.000 C 
ATOM      4  N   UNL     1      -0.172  11.239  20.531  0.00  0.00    +0.000 N 
ATOM      5  C   UNL     1       0.394  10.220  21.329  0.00  0.00    +0.000 C 
ATOM      6  O   UNL     1       0.313  10.242  22.557  0.00  0.00    +0.000 OA
ATOM      7  C   UNL     1      -1.223  11.976  21.219  0.00  0.00    +0.000 C 
ATOM      8  C   UNL     1      -1.762  13.163  20.441  0.00  0.00    +0.000 C 
ENDROOT
BRANCH   5   9
ATOM      9  C   UNL     1       0.945   9.066  20.663  0.00  0.00    +0.000 A 
ATOM     10  C   UNL     1       1.053   7.744  21.043  0.00  0.00    +0.000 A 
ATOM     11  C   UNL     1       1.906   7.095  20.124  0.00  0.00    +0.000 A 
ATOM     12  C   UNL     1       2.475   5.818  20.089  0.00  0.00    +0.000 A 
ATOM     13  C   UNL     1       3.203   5.443  18.961  0.00  0.00    +0.000 A 
ATOM     14  C   UNL     1       3.412   6.333  17.908  0.00  0.00    +0.000 A 
ATOM     15  C   UNL     1       2.915   7.641  17.963  0.00  0.00    +0.000 A 
ATOM     16  C   UNL     1       2.153   7.987  19.083  0.00  0.00    +0.000 A 
ATOM     17  N   UNL     1       1.514   9.159  19.411  0.00  0.00    +0.000 N 
ATOM     18  H   UNL     1       1.521  10.008  18.860  0.00  0.00    +0.000 HD
BRANCH  13  19
ATOM     19  N   UNL     1       3.640   4.098  18.858  0.00  0.00    +0.000 N 
ATOM     20  H   UNL     1       4.187   3.727  19.632  0.00  0.00    +0.000 HD
BRANCH  19  21
ATOM     21  S   UNL     1       2.555   2.966  18.246  0.00  0.00    +0.000 S 
ATOM     22  C   UNL     1       1.666   2.375  19.682  0.00  0.00    +0.000 C 
ATOM     23  O   UNL     1       1.613   3.635  17.375  0.00  0.00    +0.000 OA
ATOM     24  O   UNL     1       3.366   1.864  17.762  0.00  0.00    +0.000 OA
ENDBRANCH  19  21
ENDBRANCH  13  19
ENDBRANCH   5   9
BRANCH   1  25
ATOM     25  N   UNL     1      -3.391  11.964  18.821  0.00  0.00    +0.000 N 
BRANCH  25  31
ATOM     26  C   UNL     1      -5.321  12.343  20.506  0.00  0.00    +0.000 A 
ATOM     27  C   UNL     1      -6.720  12.562  20.578  0.00  0.00    +0.000 A 
ATOM     28  C   UNL     1      -7.524  12.606  19.453  0.00  0.00    +0.000 A 
ATOM     29  C   UNL     1      -6.901  12.480  18.247  0.00  0.00    +0.000 A 
ATOM     30  N   UNL     1      -5.569  12.340  18.112  0.00  0.00    +0.000 NA
ATOM     31  C   UNL     1      -4.729  12.247  19.187  0.00  0.00    +0.000 A 
BRANCH  26  32
ATOM     32  N   UNL     1      -4.613  12.273  21.728  0.00  0.00    +0.000 N 
ATOM     33  H   UNL     1      -4.524  11.282  21.950  0.00  0.00    +0.000 HD
BRANCH  32  35
ATOM     34  C   UNL     1      -4.134  14.322  23.161  0.00  0.00    +0.000 C 
ATOM     35  C   UNL     1      -4.964  13.054  22.932  0.00  0.00    +0.000 C 
ENDBRANCH  32  35
ENDBRANCH  26  32
ENDBRANCH  25  31
BRANCH  25  36
ATOM     36  C   UNL     1      -3.331  11.032  17.637  0.00  0.00    +0.000 C 
ATOM     37  C   UNL     1      -3.494   9.557  17.993  0.00  0.00    +0.000 C 
ENDBRANCH  25  36
ENDBRANCH   1  25
TORSDOF 8
ENDMDL
MODEL 4
REMARK VINA RESULT:      -7.1      2.606      4.031
REMARK  Name = 
REMARK  11 active torsions:
REMARK  status: ('A' for Active; 'I' for Inactive)
REMARK    1  A    between atoms: C_1  and  C_2
REMARK    2  A    between atoms: C_2  and  N_3
REMARK    3  A    between atoms: N_3  and  C_4
REMARK    4  A    between atoms: C_9  and  N_10
REMARK    5  A    between atoms: N_10  and  C_11
REMARK    6  A    between atoms: N_10  and  C_13
REMARK    7  A    between atoms: C_11  and  C_12
REMARK    8  A    between atoms: C_17  and  C_19
REMARK    9  A    between atoms: C_23  and  N_24
REMARK   10  A    between atoms: N_24  and  S_25
REMARK   11  A    between atoms: S_25  and  C_26
REMARK                            x       y       z     vdW  Elec       q    Type
REMARK                         _______ _______ _______ _____ _____    ______ ____
ROOT
ATOM      1  C   UNL     1      -2.113  13.250  19.970  0.00  0.00    +0.000 C 
ATOM      2  C   UNL     1      -0.846  12.770  19.307  0.00  0.00    +0.000 C 
ATOM      3  C   UNL     1      -0.419  11.422  19.851  0.00  0.00    +0.000 C 
ATOM      4  N   UNL     1      -0.230  11.407  21.309  0.00  0.00    +0.000 N 
ATOM      5  C   UNL     1       0.276  10.270  21.977  0.00  0.00    +0.000 C 
ATOM      6  O   UNL     1       0.200  10.152  23.200  0.00  0.00    +0.000 OA
ATOM      7  C   UNL     1      -1.234  12.119  22.090  0.00  0.00    +0.000 C 
ATOM      8  C   UNL     1      -1.703  13.418  21.461  0.00  0.00    +0.000 C 
ENDROOT
BRANCH   5   9
ATOM      9  C   UNL     1       0.757   9.171  21.176  0.00  0.00    +0.000 A 
ATOM     10  C   UNL     1       0.814   7.813  21.409  0.00  0.00    +0.000 A 
ATOM     11  C   UNL     1       1.611   7.231  20.400  0.00  0.00    +0.000 A 
ATOM     12  C   UNL     1       2.120   5.942  20.211  0.00  0.00    +0.000 A 
ATOM     13  C   UNL     1       2.800   5.660  19.028  0.00  0.00    +0.000 A 
ATOM     14  C   UNL     1       3.022   6.648  18.070  0.00  0.00    +0.000 A 
ATOM     15  C   UNL     1       2.588   7.964  18.280  0.00  0.00    +0.000 A 
ATOM     16  C   UNL     1       1.871   8.218  19.453  0.00  0.00    +0.000 A 
ATOM     17  N   UNL     1       1.296   9.375  19.924  0.00  0.00    +0.000 N 
ATOM     18  H   UNL     1       1.328  10.277  19.466  0.00  0.00    +0.000 HD
BRANCH  13  19
ATOM     19  N   UNL     1       3.172   4.316  18.769  0.00  0.00    +0.000 N 
ATOM     20  H   UNL     1       3.738   3.847  19.473  0.00  0.00    +0.000 HD
BRANCH  19  21
ATOM     21  S   UNL     1       2.011   3.296  18.102  0.00  0.00    +0.000 S 
ATOM     22  C   UNL     1       1.126   2.643  19.514  0.00  0.00    +0.000 C 
ATOM     23  O   UNL     1       1.087   4.082  17.314  0.00  0.00    +0.000 OA
ATOM     24  O   UNL     1       2.747   2.194  17.511  0.00  0.00    +0.000 OA
ENDBRANCH  19  21
ENDBRANCH  13  19
ENDBRANCH   5   9
BRANCH   1  25
ATOM     25  N   UNL     1      -3.405  12.515  19.727  0.00  0.00    +0.000 N 
BRANCH  25  31
ATOM     26  C   UNL     1      -5.821  13.446  19.668  0.00  0.00    +0.000 A 
ATOM     27  C   UNL     1      -6.984  13.599  20.464  0.00  0.00    +0.000 A 
ATOM     28  C   UNL     1      -7.042  13.181  21.781  0.00  0.00    +0.000 A 
ATOM     29  C   UNL     1      -5.937  12.557  22.278  0.00  0.00    +0.000 A 
ATOM     30  N   UNL     1      -4.830  12.320  21.550  0.00  0.00    +0.000 NA
ATOM     31  C   UNL     1      -4.697  12.747  20.257  0.00  0.00    +0.000 A 
BRANCH  26  32
ATOM     32  N   UNL     1      -5.868  13.954  18.349  0.00  0.00    +0.000 N 
ATOM     33  H   UNL     1      -5.934  14.968  18.436  0.00  0.00    +0.000 HD
BRANCH  32  35
ATOM     34  C   UNL     1      -7.359  14.523  16.366  0.00  0.00    +0.000 C 
ATOM     35  C   UNL     1      -6.785  13.455  17.303  0.00  0.00    +0.000 C 
ENDBRANCH  32  35
ENDBRANCH  26  32
ENDBRANCH  25  31
BRANCH  25  36
ATOM     36  C   UNL     1      -3.477  11.884  18.360  0.00  0.00    +0.000 C 
ATOM     37  C   UNL     1      -3.641  10.367  18.380  0.00  0.00    +0.000 C 
ENDBRANCH  25  36
ENDBRANCH   1  25
TORSDOF 8
ENDMDL
MODEL 5
REMARK VINA RESULT:      -7.1      0.983      1.384
REMARK  Name = 
REMARK  11 active torsions:
REMARK  status: ('A' for Active; 'I' for Inactive)
REMARK    1  A    between atoms: C_1  and  C_2
REMARK    2  A    between atoms: C_2  and  N_3
REMARK    3  A    between atoms: N_3  and  C_4
REMARK    4  A    between atoms: C_9  and  N_10
REMARK    5  A    between atoms: N_10  and  C_11
REMARK    6  A    between atoms: N_10  and  C_13
REMARK    7  A    between atoms: C_11  and  C_12
REMARK    8  A    between atoms: C_17  and  C_19
REMARK    9  A    between atoms: C_23  and  N_24
REMARK   10  A    between atoms: N_24  and  S_25
REMARK   11  A    between atoms: S_25  and  C_26
REMARK                            x       y       z     vdW  Elec       q    Type
REMARK                         _______ _______ _______ _____ _____    ______ ____
ROOT
ATOM      1  C   UNL     1       0.128  12.991  21.044  0.00  0.00    +0.000 C 
ATOM      2  C   UNL     1       1.476  12.312  21.051  0.00  0.00    +0.000 C 
ATOM      3  C   UNL     1       1.356  10.851  20.666  0.00  0.00    +0.000 C 
ATOM      4  N   UNL     1       0.432  10.089  21.519  0.00  0.00    +0.000 N 
ATOM      5  C   UNL     1       0.281   8.691  21.380  0.00  0.00    +0.000 C 
ATOM      6  O   UNL     1      -0.657   8.089  21.900  0.00  0.00    +0.000 OA
ATOM      7  C   UNL     1      -0.814  10.759  21.866  0.00  0.00    +0.000 C 
ATOM      8  C   UNL     1      -0.664  12.242  22.153  0.00  0.00    +0.000 C 
ENDROOT
BRANCH   5   9
ATOM      9  C   UNL     1       1.175   7.999  20.485  0.00  0.00    +0.000 A 
ATOM     10  C   UNL     1       1.878   6.819  20.611  0.00  0.00    +0.000 A 
ATOM     11  C   UNL     1       2.796   6.742  19.542  0.00  0.00    +0.000 A 
ATOM     12  C   UNL     1       3.841   5.860  19.242  0.00  0.00    +0.000 A 
ATOM     13  C   UNL     1       4.505   6.003  18.026  0.00  0.00    +0.000 A 
ATOM     14  C   UNL     1       4.181   7.031  17.142  0.00  0.00    +0.000 A 
ATOM     15  C   UNL     1       3.192   7.970  17.463  0.00  0.00    +0.000 A 
ATOM     16  C   UNL     1       2.507   7.787  18.668  0.00  0.00    +0.000 A 
ATOM     17  N   UNL     1       1.483   8.505  19.240  0.00  0.00    +0.000 N 
ATOM     18  H   UNL     1       1.061   9.339  18.853  0.00  0.00    +0.000 HD
BRANCH  13  19
ATOM     19  N   UNL     1       5.450   5.012  17.655  0.00  0.00    +0.000 N 
ATOM     20  H   UNL     1       5.177   4.362  16.921  0.00  0.00    +0.000 HD
BRANCH  19  21
ATOM     21  S   UNL     1       7.063   5.478  17.527  0.00  0.00    +0.000 S 
ATOM     22  C   UNL     1       7.577   5.777  19.215  0.00  0.00    +0.000 C 
ATOM     23  O   UNL     1       7.836   4.370  17.009  0.00  0.00    +0.000 OA
ATOM     24  O   UNL     1       7.051   6.761  16.850  0.00  0.00    +0.000 OA
ENDBRANCH  19  21
ENDBRANCH  13  19
ENDBRANCH   5   9
BRANCH   1  25
ATOM     25  N   UNL     1      -0.601  13.184  19.740  0.00  0.00    +0.000 N 
BRANCH  25  31
ATOM     26  C   UNL     1      -2.977  12.278  19.257  0.00  0.00    +0.000 A 
ATOM     27  C   UNL     1      -3.670  11.280  18.526  0.00  0.00    +0.000 A 
ATOM     28  C   UNL     1      -3.017  10.347  17.741  0.00  0.00    +0.000 A 
ATOM     29  C   UNL     1      -1.662  10.457  17.654  0.00  0.00    +0.000 A 
ATOM     30  N   UNL     1      -0.956  11.425  18.268  0.00  0.00    +0.000 NA
ATOM     31  C   UNL     1      -1.540  12.349  19.090  0.00  0.00    +0.000 A 
BRANCH  26  32
ATOM     32  N   UNL     1      -3.752  13.147  20.060  0.00  0.00    +0.000 N 
ATOM     33  H   UNL     1      -3.145  13.930  20.301  0.00  0.00    +0.000 HD
BRANCH  32  35
ATOM     34  C   UNL     1      -6.055  12.655  21.026  0.00  0.00    +0.000 C 
ATOM     35  C   UNL     1      -4.537  12.708  21.232  0.00  0.00    +0.000 C 
ENDBRANCH  32  35
ENDBRANCH  26  32
ENDBRANCH  25  31
BRANCH  25  36
ATOM     36  C   UNL     1      -0.830  14.636  19.402  0.00  0.00    +0.000 C 
ATOM     37  C   UNL     1       0.335  15.298  18.670  0.00  0.00    +0.000 C 
ENDBRANCH  25  36
ENDBRANCH   1  25
TORSDOF 8
ENDMDL
MODEL 6
REMARK VINA RESULT:      -7.1      1.303      2.694
REMARK  Name = 
REMARK  11 active torsions:
REMARK  status: ('A' for Active; 'I' for Inactive)
REMARK    1  A    between atoms: C_1  and  C_2
REMARK    2  A    between atoms: C_2  and  N_3
REMARK    3  A    between atoms: N_3  and  C_4
REMARK    4  A    between atoms: C_9  and  N_10
REMARK    5  A    between atoms: N_10  and  C_11
REMARK    6  A    between atoms: N_10  and  C_13
REMARK    7  A    between atoms: C_11  and  C_12
REMARK    8  A    between atoms: C_17  and  C_19
REMARK    9  A    between atoms: C_23  and  N_24
REMARK   10  A    between atoms: N_24  and  S_25
REMARK   11  A    between atoms: S_25  and  C_26
REMARK                            x       y       z     vdW  Elec       q    Type
REMARK                         _______ _______ _______ _____ _____    ______ ____
ROOT
ATOM      1  C   UNL     1      -0.263  13.335  21.386  0.00  0.00    +0.000 C 
ATOM      2  C   UNL     1       1.094  12.700  21.206  0.00  0.00    +0.000 C 
ATOM      3  C   UNL     1       0.971  11.218  20.914  0.00  0.00    +0.000 C 
ATOM      4  N   UNL     1       0.227  10.474  21.940  0.00  0.00    +0.000 N 
ATOM      5  C   UNL     1       0.111   9.066  21.893  0.00  0.00    +0.000 C 
ATOM      6  O   UNL     1      -0.706   8.463  22.587  0.00  0.00    +0.000 OA
ATOM      7  C   UNL     1      -0.972  11.121  22.454  0.00  0.00    +0.000 C 
ATOM      8  C   UNL     1      -0.836  12.621  22.643  0.00  0.00    +0.000 C 
ENDROOT
BRANCH   5   9
ATOM      9  C   UNL     1       0.876   8.356  20.898  0.00  0.00    +0.000 A 
ATOM     10  C   UNL     1       1.484   7.118  20.910  0.00  0.00    +0.000 A 
ATOM     11  C   UNL     1       2.313   7.029  19.771  0.00  0.00    +0.000 A 
ATOM     12  C   UNL     1       3.254   6.084  19.347  0.00  0.00    +0.000 A 
ATOM     13  C   UNL     1       3.837   6.241  18.092  0.00  0.00    +0.000 A 
ATOM     14  C   UNL     1       3.538   7.340  17.289  0.00  0.00    +0.000 A 
ATOM     15  C   UNL     1       2.658   8.336  17.732  0.00  0.00    +0.000 A 
ATOM     16  C   UNL     1       2.050   8.141  18.976  0.00  0.00    +0.000 A 
ATOM     17  N   UNL     1       1.134   8.905  19.660  0.00  0.00    +0.000 N 
ATOM     18  H   UNL     1       0.757   9.791  19.350  0.00  0.00    +0.000 HD
BRANCH  13  19
ATOM     19  N   UNL     1       4.666   5.201  17.600  0.00  0.00    +0.000 N 
ATOM     20  H   UNL     1       4.485   4.870  16.655  0.00  0.00    +0.000 HD
BRANCH  19  21
ATOM     21  S   UNL     1       6.313   5.283  17.940  0.00  0.00    +0.000 S 
ATOM     22  C   UNL     1       7.099   4.481  16.546  0.00  0.00    +0.000 C 
ATOM     23  O   UNL     1       6.725   6.670  17.955  0.00  0.00    +0.000 OA
ATOM     24  O   UNL     1       6.520   4.431  19.097  0.00  0.00    +0.000 OA
ENDBRANCH  19  21
ENDBRANCH  13  19
ENDBRANCH   5   9
BRANCH   1  25
ATOM     25  N   UNL     1      -1.199  13.437  20.210  0.00  0.00    +0.000 N 
BRANCH  25  31
ATOM     26  C   UNL     1      -3.313  12.271  19.274  0.00  0.00    +0.000 A 
ATOM     27  C   UNL     1      -4.728  12.286  19.350  0.00  0.00    +0.000 A 
ATOM     28  C   UNL     1      -5.420  13.186  20.140  0.00  0.00    +0.000 A 
ATOM     29  C   UNL     1      -4.675  14.040  20.897  0.00  0.00    +0.000 A 
ATOM     30  N   UNL     1      -3.329  14.026  20.920  0.00  0.00    +0.000 NA
ATOM     31  C   UNL     1      -2.590  13.189  20.130  0.00  0.00    +0.000 A 
BRANCH  26  32
ATOM     32  N   UNL     1      -2.722  11.333  18.396  0.00  0.00    +0.000 N 
ATOM     33  H   UNL     1      -1.714  11.485  18.452  0.00  0.00    +0.000 HD
BRANCH  32  35
ATOM     34  C   UNL     1      -2.613   9.860  16.324  0.00  0.00    +0.000 C 
ATOM     35  C   UNL     1      -3.147  11.129  16.996  0.00  0.00    +0.000 C 
ENDBRANCH  32  35
ENDBRANCH  26  32
ENDBRANCH  25  31
BRANCH  25  36
ATOM     36  C   UNL     1      -0.766  14.469  19.199  0.00  0.00    +0.000 C 
ATOM     37  C   UNL     1      -0.411  15.825  19.803  0.00  0.00    +0.000 C 
ENDBRANCH  25  36
ENDBRANCH   1  25
TORSDOF 8
ENDMDL
MODEL 7
REMARK VINA RESULT:      -7.0      1.540      2.309
REMARK  Name = 
REMARK  11 active torsions:
REMARK  status: ('A' for Active; 'I' for Inactive)
REMARK    1  A    between atoms: C_1  and  C_2
REMARK    2  A    between atoms: C_2  and  N_3
REMARK    3  A    between atoms: N_3  and  C_4
REMARK    4  A    between atoms: C_9  and  N_10
REMARK    5  A    between atoms: N_10  and  C_11
REMARK    6  A    between atoms: N_10  and  C_13
REMARK    7  A    between atoms: C_11  and  C_12
REMARK    8  A    between atoms: C_17  and  C_19
REMARK    9  A    between atoms: C_23  and  N_24
REMARK   10  A    between atoms: N_24  and  S_25
REMARK   11  A    between atoms: S_25  and  C_26
REMARK                            x       y       z     vdW  Elec       q    Type
REMARK                         _______ _______ _______ _____ _____    ______ ____
ROOT
ATOM      1  C   UNL     1      -1.635  12.532  19.049  0.00  0.00    +0.000 C 
ATOM      2  C   UNL     1      -0.197  12.229  18.704  0.00  0.00    +0.000 C 
ATOM      3  C   UNL     1       0.225  10.879  19.248  0.00  0.00    +0.000 C 
ATOM      4  N   UNL     1       0.042  10.744  20.700  0.00  0.00    +0.000 N 
ATOM      5  C   UNL     1       0.487   9.598  21.397  0.00  0.00    +0.000 C 
ATOM      6  O   UNL     1       0.120   9.360  22.548  0.00  0.00    +0.000 OA
ATOM      7  C   UNL     1      -1.196  11.288  21.241  0.00  0.00    +0.000 C 
ATOM      8  C   UNL     1      -1.632  12.594  20.603  0.00  0.00    +0.000 C 
ENDROOT
BRANCH   5   9
ATOM      9  C   UNL     1       1.270   8.626  20.674  0.00  0.00    +0.000 A 
ATOM     10  C   UNL     1       1.887   8.670  19.442  0.00  0.00    +0.000 A 
ATOM     11  C   UNL     1       2.296   7.360  19.112  0.00  0.00    +0.000 A 
ATOM     12  C   UNL     1       2.833   6.791  17.952  0.00  0.00    +0.000 A 
ATOM     13  C   UNL     1       3.236   5.458  17.989  0.00  0.00    +0.000 A 
ATOM     14  C   UNL     1       3.062   4.682  19.134  0.00  0.00    +0.000 A 
ATOM     15  C   UNL     1       2.452   5.214  20.277  0.00  0.00    +0.000 A 
ATOM     16  C   UNL     1       2.093   6.565  20.237  0.00  0.00    +0.000 A 
ATOM     17  N   UNL     1       1.517   7.372  21.190  0.00  0.00    +0.000 N 
ATOM     18  H   UNL     1       1.231   7.079  22.115  0.00  0.00    +0.000 HD
BRANCH  13  19
ATOM     19  N   UNL     1       3.926   4.932  16.867  0.00  0.00    +0.000 N 
ATOM     20  H   UNL     1       3.381   4.762  16.025  0.00  0.00    +0.000 HD
BRANCH  19  21
ATOM     21  S   UNL     1       5.452   5.555  16.523  0.00  0.00    +0.000 S 
ATOM     22  C   UNL     1       6.279   4.244  15.629  0.00  0.00    +0.000 C 
ATOM     23  O   UNL     1       5.312   6.689  15.636  0.00  0.00    +0.000 OA
ATOM     24  O   UNL     1       6.122   5.688  17.804  0.00  0.00    +0.000 OA
ENDBRANCH  19  21
ENDBRANCH  13  19
ENDBRANCH   5   9
BRANCH   1  25
ATOM     25  N   UNL     1      -2.736  11.711  18.431  0.00  0.00    +0.000 N 
BRANCH  25  31
ATOM     26  C   UNL     1      -4.927  12.717  19.377  0.00  0.00    +0.000 A 
ATOM     27  C   UNL     1      -6.309  12.443  19.537  0.00  0.00    +0.000 A 
ATOM     28  C   UNL     1      -6.885  11.258  19.118  0.00  0.00    +0.000 A 
ATOM     29  C   UNL     1      -6.069  10.367  18.487  0.00  0.00    +0.000 A 
ATOM     30  N   UNL     1      -4.766  10.600  18.243  0.00  0.00    +0.000 NA
ATOM     31  C   UNL     1      -4.131  11.734  18.670  0.00  0.00    +0.000 A 
BRANCH  26  32
ATOM     32  N   UNL     1      -4.447  13.945  19.887  0.00  0.00    +0.000 N 
ATOM     33  H   UNL     1      -3.459  13.801  20.094  0.00  0.00    +0.000 HD
BRANCH  32  35
ATOM     34  C   UNL     1      -4.504  14.522  22.365  0.00  0.00    +0.000 C 
ATOM     35  C   UNL     1      -5.107  14.705  20.969  0.00  0.00    +0.000 C 
ENDBRANCH  32  35
ENDBRANCH  26  32
ENDBRANCH  25  31
BRANCH  25  36
ATOM     36  C   UNL     1      -2.428  11.276  17.020  0.00  0.00    +0.000 C 
ATOM     37  C   UNL     1      -2.093   9.793  16.883  0.00  0.00    +0.000 C 
ENDBRANCH  25  36
ENDBRANCH   1  25
TORSDOF 8
ENDMDL
MODEL 8
REMARK VINA RESULT:      -6.9      1.922      2.915
REMARK  Name = 
REMARK  11 active torsions:
REMARK  status: ('A' for Active; 'I' for Inactive)
REMARK    1  A    between atoms: C_1  and  C_2
REMARK    2  A    between atoms: C_2  and  N_3
REMARK    3  A    between atoms: N_3  and  C_4
REMARK    4  A    between atoms: C_9  and  N_10
REMARK    5  A    between atoms: N_10  and  C_11
REMARK    6  A    between atoms: N_10  and  C_13
REMARK    7  A    between atoms: C_11  and  C_12
REMARK    8  A    between atoms: C_17  and  C_19
REMARK    9  A    between atoms: C_23  and  N_24
REMARK   10  A    between atoms: N_24  and  S_25
REMARK   11  A    between atoms: S_25  and  C_26
REMARK                            x       y       z     vdW  Elec       q    Type
REMARK                         _______ _______ _______ _____ _____    ______ ____
ROOT
ATOM      1  C   UNL     1      -1.927  12.814  19.268  0.00  0.00    +0.000 C 
ATOM      2  C   UNL     1      -0.568  12.398  18.760  0.00  0.00    +0.000 C 
ATOM      3  C   UNL     1      -0.089  11.136  19.449  0.00  0.00    +0.000 C 
ATOM      4  N   UNL     1      -0.038  11.247  20.914  0.00  0.00    +0.000 N 
ATOM      5  C   UNL     1       0.492  10.210  21.715  0.00  0.00    +0.000 C 
ATOM      6  O   UNL     1       0.311  10.178  22.931  0.00  0.00    +0.000 OA
ATOM      7  C   UNL     1      -1.165  11.924  21.542  0.00  0.00    +0.000 C 
ATOM      8  C   UNL     1      -1.675  13.128  20.770  0.00  0.00    +0.000 C 
ENDROOT
BRANCH   5   9
ATOM      9  C   UNL     1       1.132   9.101  21.051  0.00  0.00    +0.000 A 
ATOM     10  C   UNL     1       1.840   9.015  19.871  0.00  0.00    +0.000 A 
ATOM     11  C   UNL     1       2.020   7.648  19.570  0.00  0.00    +0.000 A 
ATOM     12  C   UNL     1       2.529   6.975  18.453  0.00  0.00    +0.000 A 
ATOM     13  C   UNL     1       2.670   5.591  18.516  0.00  0.00    +0.000 A 
ATOM     14  C   UNL     1       2.266   4.874  19.641  0.00  0.00    +0.000 A 
ATOM     15  C   UNL     1       1.681   5.524  20.736  0.00  0.00    +0.000 A 
ATOM     16  C   UNL     1       1.586   6.917  20.673  0.00  0.00    +0.000 A 
ATOM     17  N   UNL     1       1.099   7.829  21.580  0.00  0.00    +0.000 N 
ATOM     18  H   UNL     1       0.693   7.605  22.480  0.00  0.00    +0.000 HD
BRANCH  13  19
ATOM     19  N   UNL     1       3.334   4.933  17.450  0.00  0.00    +0.000 N 
ATOM     20  H   UNL     1       3.336   5.400  16.545  0.00  0.00    +0.000 HD
BRANCH  19  21
ATOM     21  S   UNL     1       4.806   4.187  17.784  0.00  0.00    +0.000 S 
ATOM     22  C   UNL     1       5.750   5.431  18.659  0.00  0.00    +0.000 C 
ATOM     23  O   UNL     1       4.581   3.075  18.682  0.00  0.00    +0.000 OA
ATOM     24  O   UNL     1       5.449   3.989  16.498  0.00  0.00    +0.000 OA
ENDBRANCH  19  21
ENDBRANCH  13  19
ENDBRANCH   5   9
BRANCH   1  25
ATOM     25  N   UNL     1      -3.128  11.954  18.974  0.00  0.00    +0.000 N 
BRANCH  25  31
ATOM     26  C   UNL     1      -5.164  12.277  20.540  0.00  0.00    +0.000 A 
ATOM     27  C   UNL     1      -6.574  12.421  20.531  0.00  0.00    +0.000 A 
ATOM     28  C   UNL     1      -7.317  12.384  19.365  0.00  0.00    +0.000 A 
ATOM     29  C   UNL     1      -6.624  12.254  18.199  0.00  0.00    +0.000 A 
ATOM     30  N   UNL     1      -5.281  12.184  18.139  0.00  0.00    +0.000 NA
ATOM     31  C   UNL     1      -4.497  12.173  19.259  0.00  0.00    +0.000 A 
BRANCH  26  32
ATOM     32  N   UNL     1      -4.520  12.287  21.800  0.00  0.00    +0.000 N 
ATOM     33  H   UNL     1      -4.498  11.317  22.116  0.00  0.00    +0.000 HD
BRANCH  32  35
ATOM     34  C   UNL     1      -4.577  12.672  24.315  0.00  0.00    +0.000 C 
ATOM     35  C   UNL     1      -4.885  13.194  22.907  0.00  0.00    +0.000 C 
ENDBRANCH  32  35
ENDBRANCH  26  32
ENDBRANCH  25  31
BRANCH  25  36
ATOM     36  C   UNL     1      -2.953  11.097  17.745  0.00  0.00    +0.000 C 
ATOM     37  C   UNL     1      -3.188   9.608  17.983  0.00  0.00    +0.000 C 
ENDBRANCH  25  36
ENDBRANCH   1  25
TORSDOF 8
ENDMDL
MODEL 9
REMARK VINA RESULT:      -6.9      1.778      2.936
REMARK  Name = 
REMARK  11 active torsions:
REMARK  status: ('A' for Active; 'I' for Inactive)
REMARK    1  A    between atoms: C_1  and  C_2
REMARK    2  A    between atoms: C_2  and  N_3
REMARK    3  A    between atoms: N_3  and  C_4
REMARK    4  A    between atoms: C_9  and  N_10
REMARK    5  A    between atoms: N_10  and  C_11
REMARK    6  A    between atoms: N_10  and  C_13
REMARK    7  A    between atoms: C_11  and  C_12
REMARK    8  A    between atoms: C_17  and  C_19
REMARK    9  A    between atoms: C_23  and  N_24
REMARK   10  A    between atoms: N_24  and  S_25
REMARK   11  A    between atoms: S_25  and  C_26
REMARK                            x       y       z     vdW  Elec       q    Type
REMARK                         _______ _______ _______ _____ _____    ______ ____
ROOT
ATOM      1  C   UNL     1      -2.232  12.814  19.466  0.00  0.00    +0.000 C 
ATOM      2  C   UNL     1      -0.837  12.547  18.954  0.00  0.00    +0.000 C 
ATOM      3  C   UNL     1      -0.333  11.194  19.415  0.00  0.00    +0.000 C 
ATOM      4  N   UNL     1      -0.347  11.026  20.875  0.00  0.00    +0.000 N 
ATOM      5  C   UNL     1       0.194   9.874  21.491  0.00  0.00    +0.000 C 
ATOM      6  O   UNL     1      -0.035   9.606  22.670  0.00  0.00    +0.000 OA
ATOM      7  C   UNL     1      -1.525  11.534  21.565  0.00  0.00    +0.000 C 
ATOM      8  C   UNL     1      -2.053  12.844  21.010  0.00  0.00    +0.000 C 
ENDROOT
BRANCH   5   9
ATOM      9  C   UNL     1       0.906   8.934  20.662  0.00  0.00    +0.000 A 
ATOM     10  C   UNL     1       1.404   7.672  20.914  0.00  0.00    +0.000 A 
ATOM     11  C   UNL     1       2.234   7.308  19.833  0.00  0.00    +0.000 A 
ATOM     12  C   UNL     1       3.096   6.227  19.613  0.00  0.00    +0.000 A 
ATOM     13  C   UNL     1       3.705   6.103  18.366  0.00  0.00    +0.000 A 
ATOM     14  C   UNL     1       3.511   7.059  17.370  0.00  0.00    +0.000 A 
ATOM     15  C   UNL     1       2.716   8.188  17.601  0.00  0.00    +0.000 A 
ATOM     16  C   UNL     1       2.079   8.275  18.843  0.00  0.00    +0.000 A 
ATOM     17  N   UNL     1       1.225   9.224  19.353  0.00  0.00    +0.000 N 
ATOM     18  H   UNL     1       0.929  10.067  18.877  0.00  0.00    +0.000 HD
BRANCH  13  19
ATOM     19  N   UNL     1       4.446   4.926  18.093  0.00  0.00    +0.000 N 
ATOM     20  H   UNL     1       4.008   4.231  17.491  0.00  0.00    +0.000 HD
BRANCH  19  21
ATOM     21  S   UNL     1       6.092   5.090  17.784  0.00  0.00    +0.000 S 
ATOM     22  C   UNL     1       6.327   4.319  16.185  0.00  0.00    +0.000 C 
ATOM     23  O   UNL     1       6.414   6.495  17.659  0.00  0.00    +0.000 OA
ATOM     24  O   UNL     1       6.763   4.255  18.763  0.00  0.00    +0.000 OA
ENDBRANCH  19  21
ENDBRANCH  13  19
ENDBRANCH   5   9
BRANCH   1  25
ATOM     25  N   UNL     1      -3.382  11.985  18.958  0.00  0.00    +0.000 N 
BRANCH  25  31
ATOM     26  C   UNL     1      -5.631  12.279  20.207  0.00  0.00    +0.000 A 
ATOM     27  C   UNL     1      -7.022  12.447  19.989  0.00  0.00    +0.000 A 
ATOM     28  C   UNL     1      -7.577  12.472  18.723  0.00  0.00    +0.000 A 
ATOM     29  C   UNL     1      -6.715  12.379  17.671  0.00  0.00    +0.000 A 
ATOM     30  N   UNL     1      -5.379  12.288  17.814  0.00  0.00    +0.000 NA
ATOM     31  C   UNL     1      -4.776  12.216  19.040  0.00  0.00    +0.000 A 
BRANCH  26  32
ATOM     32  N   UNL     1      -5.189  12.225  21.549  0.00  0.00    +0.000 N 
ATOM     33  H   UNL     1      -5.483  11.317  21.911  0.00  0.00    +0.000 HD
BRANCH  32  35
ATOM     34  C   UNL     1      -6.096  12.838  23.847  0.00  0.00    +0.000 C 
ATOM     35  C   UNL     1      -5.431  13.291  22.543  0.00  0.00    +0.000 C 
ENDBRANCH  32  35
ENDBRANCH  26  32
ENDBRANCH  25  31
BRANCH  25  36
ATOM     36  C   UNL     1      -3.031  11.172  17.737  0.00  0.00    +0.000 C 
ATOM     37  C   UNL     1      -3.317   9.679  17.876  0.00  0.00    +0.000 C 
ENDBRANCH  25  36
ENDBRANCH   1  25
TORSDOF 8
ENDMDL
