MODEL 1
REMARK VINA RESULT:      -6.9      0.000      0.000
REMARK  Name = 
REMARK  8 active torsions:
REMARK  status: ('A' for Active; 'I' for Inactive)
REMARK    1  A    between atoms: C_1  and  C_2
REMARK    2  A    between atoms: C_2  and  C_3
REMARK    3  A    between atoms: C_2  and  C_4
REMARK    4  A    between atoms: C_6  and  C_7
REMARK    5  A    between atoms: C_7  and  N_8
REMARK    6  A    between atoms: N_8  and  C_9
REMARK    7  A    between atoms: N_8  and  C_10
REMARK    8  A    between atoms: C_10  and  C_11
REMARK                            x       y       z     vdW  Elec       q    Type
REMARK                         _______ _______ _______ _____ _____    ______ ____
ROOT
ATOM      1  C   UNL     1       6.019   5.621  16.483  0.00  0.00    +0.000 C 
ENDROOT
BRANCH   1   4
ATOM      2  C   UNL     1       6.132   3.921  13.394  0.00  0.00    +0.000 A 
ATOM      3  N   UNL     1       5.490   4.176  14.509  0.00  0.00    +0.000 NA
ATOM      4  C   UNL     1       6.308   5.106  15.107  0.00  0.00    +0.000 A 
ATOM      5  N   UNL     1       7.410   5.418  14.409  0.00  0.00    +0.000 NA
ATOM      6  O   UNL     1       7.290   4.630  13.257  0.00  0.00    +0.000 OA
BRANCH   2   8
ATOM      7  C   UNL     1       4.562   3.361  11.587  0.00  0.00    +0.000 C 
ATOM      8  C   UNL     1       5.812   2.913  12.348  0.00  0.00    +0.000 C 
ATOM      9  C   UNL     1       6.987   2.739  11.388  0.00  0.00    +0.000 C 
ENDBRANCH   2   8
ENDBRANCH   1   4
BRANCH   1  10
ATOM     10  N   UNL     1       6.336   4.651  17.565  0.00  0.00    +0.000 NA
ATOM     11  C   UNL     1       7.686   4.887  18.095  0.00  0.00    +0.000 C 
BRANCH  10  12
ATOM     12  C   UNL     1       5.315   4.796  18.621  0.00  0.00    +0.000 C 
BRANCH  12  13
ATOM     13  C   UNL     1       3.952   4.253  18.258  0.00  0.00    +0.000 A 
ATOM     14  C   UNL     1       3.763   2.887  18.023  0.00  0.00    +0.000 A 
ATOM     15  C   UNL     1       2.489   2.431  17.730  0.00  0.00    +0.000 A 
ATOM     16  N   UNL     1       1.405   3.227  17.647  0.00  0.00    +0.000 NA
ATOM     17  C   UNL     1       1.608   4.547  17.864  0.00  0.00    +0.000 A 
ATOM     18  C   UNL     1       2.841   5.096  18.172  0.00  0.00    +0.000 A 
ENDBRANCH  12  13
ENDBRANCH  10  12
ENDBRANCH   1  10
TORSDOF 5
ENDMDL
MODEL 2
REMARK VINA RESULT:      -6.8      1.763      2.181
REMARK  Name = 
REMARK  8 active torsions:
REMARK  status: ('A' for Active; 'I' for Inactive)
REMARK    1  A    between atoms: C_1  and  C_2
REMARK    2  A    between atoms: C_2  and  C_3
REMARK    3  A    between atoms: C_2  and  C_4
REMARK    4  A    between atoms: C_6  and  C_7
REMARK    5  A    between atoms: C_7  and  N_8
REMARK    6  A    between atoms: N_8  and  C_9
REMARK    7  A    between atoms: N_8  and  C_10
REMARK    8  A    between atoms: C_10  and  C_11
REMARK                            x       y       z     vdW  Elec       q    Type
REMARK                         _______ _______ _______ _____ _____    ______ ____
ROOT
ATOM      1  C   UNL     1       5.800   4.658  17.586  0.00  0.00    +0.000 C 
ENDROOT
BRANCH   1   4
ATOM      2  C   UNL     1       6.590   4.325  14.165  0.00  0.00    +0.000 A 
ATOM      3  N   UNL     1       5.827   3.985  15.177  0.00  0.00    +0.000 NA
ATOM      4  C   UNL     1       6.313   4.783  16.185  0.00  0.00    +0.000 A 
ATOM      5  N   UNL     1       7.331   5.581  15.831  0.00  0.00    +0.000 NA
ATOM      6  O   UNL     1       7.513   5.281  14.475  0.00  0.00    +0.000 OA
BRANCH   2   8
ATOM      7  C   UNL     1       5.203   3.458  12.328  0.00  0.00    +0.000 C 
ATOM      8  C   UNL     1       6.632   3.742  12.797  0.00  0.00    +0.000 C 
ATOM      9  C   UNL     1       7.332   4.692  11.827  0.00  0.00    +0.000 C 
ENDBRANCH   2   8
ENDBRANCH   1   4
BRANCH   1  10
ATOM     10  N   UNL     1       4.587   5.476  17.855  0.00  0.00    +0.000 NA
ATOM     11  C   UNL     1       4.607   6.712  17.062  0.00  0.00    +0.000 C 
BRANCH  10  12
ATOM     12  C   UNL     1       3.404   4.654  17.534  0.00  0.00    +0.000 C 
BRANCH  12  13
ATOM     13  C   UNL     1       2.616   4.186  18.737  0.00  0.00    +0.000 A 
ATOM     14  C   UNL     1       2.924   4.651  20.020  0.00  0.00    +0.000 A 
ATOM     15  C   UNL     1       2.151   4.222  21.086  0.00  0.00    +0.000 A 
ATOM     16  N   UNL     1       1.114   3.370  20.970  0.00  0.00    +0.000 NA
ATOM     17  C   UNL     1       0.839   2.920  19.723  0.00  0.00    +0.000 A 
ATOM     18  C   UNL     1       1.547   3.298  18.595  0.00  0.00    +0.000 A 
ENDBRANCH  12  13
ENDBRANCH  10  12
ENDBRANCH   1  10
TORSDOF 5
ENDMDL
MODEL 3
REMARK VINA RESULT:      -6.7      1.229      1.308
REMARK  Name = 
REMARK  8 active torsions:
REMARK  status: ('A' for Active; 'I' for Inactive)
REMARK    1  A    between atoms: C_1  and  C_2
REMARK    2  A    between atoms: C_2  and  C_3
REMARK    3  A    between atoms: C_2  and  C_4
REMARK    4  A    between atoms: C_6  and  C_7
REMARK    5  A    between atoms: C_7  and  N_8
REMARK    6  A    between atoms: N_8  and  C_9
REMARK    7  A    between atoms: N_8  and  C_10
REMARK    8  A    between atoms: C_10  and  C_11
REMARK                            x       y       z     vdW  Elec       q    Type
REMARK                         _______ _______ _______ _____ _____    ______ ____
ROOT
ATOM      1  C   UNL     1       5.222   5.995  17.245  0.00  0.00    +0.000 C 
ENDROOT
BRANCH   1   4
ATOM      2  C   UNL     1       6.453   4.646  14.227  0.00  0.00    +0.000 A 
ATOM      3  N   UNL     1       5.444   4.821  15.047  0.00  0.00    +0.000 NA
ATOM      4  C   UNL     1       5.997   5.618  16.020  0.00  0.00    +0.000 A 
ATOM      5  N   UNL     1       7.287   5.928  15.828  0.00  0.00    +0.000 NA
ATOM      6  O   UNL     1       7.594   5.284  14.623  0.00  0.00    +0.000 OA
BRANCH   2   8
ATOM      7  C   UNL     1       5.110   3.476  12.532  0.00  0.00    +0.000 C 
ATOM      8  C   UNL     1       6.528   3.787  13.015  0.00  0.00    +0.000 C 
ATOM      9  C   UNL     1       7.327   4.479  11.911  0.00  0.00    +0.000 C 
ENDBRANCH   2   8
ENDBRANCH   1   4
BRANCH   1  10
ATOM     10  N   UNL     1       5.430   5.074  18.393  0.00  0.00    +0.000 NA
ATOM     11  C   UNL     1       6.660   5.418  19.120  0.00  0.00    +0.000 C 
BRANCH  10  12
ATOM     12  C   UNL     1       4.247   5.165  19.271  0.00  0.00    +0.000 C 
BRANCH  12  13
ATOM     13  C   UNL     1       3.143   4.185  18.945  0.00  0.00    +0.000 A 
ATOM     14  C   UNL     1       3.397   3.054  18.162  0.00  0.00    +0.000 A 
ATOM     15  C   UNL     1       2.363   2.165  17.920  0.00  0.00    +0.000 A 
ATOM     16  N   UNL     1       1.110   2.322  18.391  0.00  0.00    +0.000 NA
ATOM     17  C   UNL     1       0.879   3.429  19.136  0.00  0.00    +0.000 A 
ATOM     18  C   UNL     1       1.849   4.369  19.439  0.00  0.00    +0.000 A 
ENDBRANCH  12  13
ENDBRANCH  10  12
ENDBRANCH   1  10
TORSDOF 5
ENDMDL
MODEL 4
REMARK VINA RESULT:      -6.7      1.282      1.544
REMARK  Name = 
REMARK  8 active torsions:
REMARK  status: ('A' for Active; 'I' for Inactive)
REMARK    1  A    between atoms: C_1  and  C_2
REMARK    2  A    between atoms: C_2  and  C_3
REMARK    3  A    between atoms: C_2  and  C_4
REMARK    4  A    between atoms: C_6  and  C_7
REMARK    5  A    between atoms: C_7  and  N_8
REMARK    6  A    between atoms: N_8  and  C_9
REMARK    7  A    between atoms: N_8  and  C_10
REMARK    8  A    between atoms: C_10  and  C_11
REMARK                            x       y       z     vdW  Elec       q    Type
REMARK                         _______ _______ _______ _____ _____    ______ ____
ROOT
ATOM      1  C   UNL     1       5.857   5.566  17.145  0.00  0.00    +0.000 C 
ENDROOT
BRANCH   1   4
ATOM      2  C   UNL     1       6.275   4.244  13.902  0.00  0.00    +0.000 A 
ATOM      3  N   UNL     1       5.552   4.326  14.993  0.00  0.00    +0.000 NA
ATOM      4  C   UNL     1       6.263   5.233  15.742  0.00  0.00    +0.000 A 
ATOM      5  N   UNL     1       7.377   5.696  15.157  0.00  0.00    +0.000 NA
ATOM      6  O   UNL     1       7.383   5.040  13.920  0.00  0.00    +0.000 OA
BRANCH   2   8
ATOM      7  C   UNL     1       4.703   3.581  12.130  0.00  0.00    +0.000 C 
ATOM      8  C   UNL     1       6.090   3.344  12.731  0.00  0.00    +0.000 C 
ATOM      9  C   UNL     1       7.175   3.591  11.685  0.00  0.00    +0.000 C 
ENDBRANCH   2   8
ENDBRANCH   1   4
BRANCH   1  10
ATOM     10  N   UNL     1       4.873   4.615  17.726  0.00  0.00    +0.000 NA
ATOM     11  C   UNL     1       5.353   4.092  19.013  0.00  0.00    +0.000 C 
BRANCH  10  12
ATOM     12  C   UNL     1       3.590   5.327  17.885  0.00  0.00    +0.000 C 
BRANCH  12  13
ATOM     13  C   UNL     1       2.510   4.532  18.585  0.00  0.00    +0.000 A 
ATOM     14  C   UNL     1       1.956   3.396  17.987  0.00  0.00    +0.000 A 
ATOM     15  C   UNL     1       0.996   2.679  18.682  0.00  0.00    +0.000 A 
ATOM     16  N   UNL     1       0.550   3.011  19.909  0.00  0.00    +0.000 NA
ATOM     17  C   UNL     1       1.089   4.121  20.467  0.00  0.00    +0.000 A 
ATOM     18  C   UNL     1       2.058   4.897  19.855  0.00  0.00    +0.000 A 
ENDBRANCH  12  13
ENDBRANCH  10  12
ENDBRANCH   1  10
TORSDOF 5
ENDMDL
MODEL 5
REMARK VINA RESULT:      -6.7      0.863      1.076
REMARK  Name = 
REMARK  8 active torsions:
REMARK  status: ('A' for Active; 'I' for Inactive)
REMARK    1  A    between atoms: C_1  and  C_2
REMARK    2  A    between atoms: C_2  and  C_3
REMARK    3  A    between atoms: C_2  and  C_4
REMARK    4  A    between atoms: C_6  and  C_7
REMARK    5  A    between atoms: C_7  and  N_8
REMARK    6  A    between atoms: N_8  and  C_9
REMARK    7  A    between atoms: N_8  and  C_10
REMARK    8  A    between atoms: C_10  and  C_11
REMARK                            x       y       z     vdW  Elec       q    Type
REMARK                         _______ _______ _______ _____ _____    ______ ____
ROOT
ATOM      1  C   UNL     1       6.232   5.710  16.186  0.00  0.00    +0.000 C 
ENDROOT
BRANCH   1   4
ATOM      2  C   UNL     1       6.094   3.840  13.198  0.00  0.00    +0.000 A 
ATOM      3  N   UNL     1       5.537   4.172  14.339  0.00  0.00    +0.000 NA
ATOM      4  C   UNL     1       6.413   5.113  14.824  0.00  0.00    +0.000 A 
ATOM      5  N   UNL     1       7.469   5.361  14.035  0.00  0.00    +0.000 NA
ATOM      6  O   UNL     1       7.253   4.514  12.941  0.00  0.00    +0.000 OA
BRANCH   2   8
ATOM      7  C   UNL     1       4.499   3.296  11.407  0.00  0.00    +0.000 C 
ATOM      8  C   UNL     1       5.680   2.784  12.236  0.00  0.00    +0.000 C 
ATOM      9  C   UNL     1       6.844   2.399  11.324  0.00  0.00    +0.000 C 
ENDBRANCH   2   8
ENDBRANCH   1   4
BRANCH   1  10
ATOM     10  N   UNL     1       6.299   4.716  17.290  0.00  0.00    +0.000 NA
ATOM     11  C   UNL     1       7.630   4.716  17.911  0.00  0.00    +0.000 C 
BRANCH  10  12
ATOM     12  C   UNL     1       5.251   5.055  18.272  0.00  0.00    +0.000 C 
BRANCH  12  13
ATOM     13  C   UNL     1       4.193   3.991  18.459  0.00  0.00    +0.000 A 
ATOM     14  C   UNL     1       3.918   3.469  19.727  0.00  0.00    +0.000 A 
ATOM     15  C   UNL     1       2.915   2.523  19.855  0.00  0.00    +0.000 A 
ATOM     16  N   UNL     1       2.182   2.060  18.824  0.00  0.00    +0.000 NA
ATOM     17  C   UNL     1       2.471   2.566  17.602  0.00  0.00    +0.000 A 
ATOM     18  C   UNL     1       3.447   3.520  17.376  0.00  0.00    +0.000 A 
ENDBRANCH  12  13
ENDBRANCH  10  12
ENDBRANCH   1  10
TORSDOF 5
ENDMDL
MODEL 6
REMARK VINA RESULT:      -6.6      1.525      1.727
REMARK  Name = 
REMARK  8 active torsions:
REMARK  status: ('A' for Active; 'I' for Inactive)
REMARK    1  A    between atoms: C_1  and  C_2
REMARK    2  A    between atoms: C_2  and  C_3
REMARK    3  A    between atoms: C_2  and  C_4
REMARK    4  A    between atoms: C_6  and  C_7
REMARK    5  A    between atoms: C_7  and  N_8
REMARK    6  A    between atoms: N_8  and  C_9
REMARK    7  A    between atoms: N_8  and  C_10
REMARK    8  A    between atoms: C_10  and  C_11
REMARK                            x       y       z     vdW  Elec       q    Type
REMARK                         _______ _______ _______ _____ _____    ______ ____
ROOT
ATOM      1  C   UNL     1       5.357   6.429  17.244  0.00  0.00    +0.000 C 
ENDROOT
BRANCH   1   4
ATOM      2  C   UNL     1       6.415   4.733  14.338  0.00  0.00    +0.000 A 
ATOM      3  N   UNL     1       5.436   5.078  15.140  0.00  0.00    +0.000 NA
ATOM      4  C   UNL     1       6.079   5.879  16.053  0.00  0.00    +0.000 A 
ATOM      5  N   UNL     1       7.395   6.030  15.843  0.00  0.00    +0.000 NA
ATOM      6  O   UNL     1       7.621   5.268  14.689  0.00  0.00    +0.000 OA
BRANCH   2   8
ATOM      7  C   UNL     1       4.949   3.641  12.694  0.00  0.00    +0.000 C 
ATOM      8  C   UNL     1       6.388   3.783  13.193  0.00  0.00    +0.000 C 
ATOM      9  C   UNL     1       7.298   4.270  12.067  0.00  0.00    +0.000 C 
ENDBRANCH   2   8
ENDBRANCH   1   4
BRANCH   1  10
ATOM     10  N   UNL     1       5.062   5.413  18.289  0.00  0.00    +0.000 NA
ATOM     11  C   UNL     1       6.163   5.330  19.259  0.00  0.00    +0.000 C 
BRANCH  10  12
ATOM     12  C   UNL     1       3.797   5.790  18.948  0.00  0.00    +0.000 C 
BRANCH  12  13
ATOM     13  C   UNL     1       2.824   4.649  19.146  0.00  0.00    +0.000 A 
ATOM     14  C   UNL     1       2.746   3.979  20.371  0.00  0.00    +0.000 A 
ATOM     15  C   UNL     1       1.814   2.964  20.516  0.00  0.00    +0.000 A 
ATOM     16  N   UNL     1       0.972   2.570  19.541  0.00  0.00    +0.000 NA
ATOM     17  C   UNL     1       1.071   3.221  18.358  0.00  0.00    +0.000 A 
ATOM     18  C   UNL     1       1.963   4.252  18.120  0.00  0.00    +0.000 A 
ENDBRANCH  12  13
ENDBRANCH  10  12
ENDBRANCH   1  10
TORSDOF 5
ENDMDL
MODEL 7
REMARK VINA RESULT:      -6.6      1.511      1.804
REMARK  Name = 
REMARK  8 active torsions:
REMARK  status: ('A' for Active; 'I' for Inactive)
REMARK    1  A    between atoms: C_1  and  C_2
REMARK    2  A    between atoms: C_2  and  C_3
REMARK    3  A    between atoms: C_2  and  C_4
REMARK    4  A    between atoms: C_6  and  C_7
REMARK    5  A    between atoms: C_7  and  N_8
REMARK    6  A    between atoms: N_8  and  C_9
REMARK    7  A    between atoms: N_8  and  C_10
REMARK    8  A    between atoms: C_10  and  C_11
REMARK                            x       y       z     vdW  Elec       q    Type
REMARK                         _______ _______ _______ _____ _____    ______ ____
ROOT
ATOM      1  C   UNL     1       5.915   4.545  17.591  0.00  0.00    +0.000 C 
ENDROOT
BRANCH   1   4
ATOM      2  C   UNL     1       6.646   4.299  14.149  0.00  0.00    +0.000 A 
ATOM      3  N   UNL     1       5.906   3.928  15.166  0.00  0.00    +0.000 NA
ATOM      4  C   UNL     1       6.402   4.707  16.184  0.00  0.00    +0.000 A 
ATOM      5  N   UNL     1       7.404   5.525  15.830  0.00  0.00    +0.000 NA
ATOM      6  O   UNL     1       7.565   5.258  14.464  0.00  0.00    +0.000 OA
BRANCH   2   8
ATOM      7  C   UNL     1       5.236   3.460  12.317  0.00  0.00    +0.000 C 
ATOM      8  C   UNL     1       6.670   3.748  12.767  0.00  0.00    +0.000 C 
ATOM      9  C   UNL     1       7.344   4.727  11.807  0.00  0.00    +0.000 C 
ENDBRANCH   2   8
ENDBRANCH   1   4
BRANCH   1  10
ATOM     10  N   UNL     1       4.705   5.350  17.903  0.00  0.00    +0.000 NA
ATOM     11  C   UNL     1       4.851   6.725  17.407  0.00  0.00    +0.000 C 
BRANCH  10  12
ATOM     12  C   UNL     1       3.542   4.681  17.286  0.00  0.00    +0.000 C 
BRANCH  12  13
ATOM     13  C   UNL     1       2.576   4.062  18.271  0.00  0.00    +0.000 A 
ATOM     14  C   UNL     1       2.188   2.724  18.149  0.00  0.00    +0.000 A 
ATOM     15  C   UNL     1       1.330   2.190  19.096  0.00  0.00    +0.000 A 
ATOM     16  N   UNL     1       0.831   2.885  20.137  0.00  0.00    +0.000 NA
ATOM     17  C   UNL     1       1.207   4.182  20.232  0.00  0.00    +0.000 A 
ATOM     18  C   UNL     1       2.066   4.802  19.341  0.00  0.00    +0.000 A 
ENDBRANCH  12  13
ENDBRANCH  10  12
ENDBRANCH   1  10
TORSDOF 5
ENDMDL
MODEL 8
REMARK VINA RESULT:      -6.5      1.132      1.609
REMARK  Name = 
REMARK  8 active torsions:
REMARK  status: ('A' for Active; 'I' for Inactive)
REMARK    1  A    between atoms: C_1  and  C_2
REMARK    2  A    between atoms: C_2  and  C_3
REMARK    3  A    between atoms: C_2  and  C_4
REMARK    4  A    between atoms: C_6  and  C_7
REMARK    5  A    between atoms: C_7  and  N_8
REMARK    6  A    between atoms: N_8  and  C_9
REMARK    7  A    between atoms: N_8  and  C_10
REMARK    8  A    between atoms: C_10  and  C_11
REMARK                            x       y       z     vdW  Elec       q    Type
REMARK                         _______ _______ _______ _____ _____    ______ ____
ROOT
ATOM      1  C   UNL     1       5.864   5.921  16.319  0.00  0.00    +0.000 C 
ENDROOT
BRANCH   1   4
ATOM      2  C   UNL     1       6.098   3.971  13.389  0.00  0.00    +0.000 A 
ATOM      3  N   UNL     1       5.375   4.391  14.400  0.00  0.00    +0.000 NA
ATOM      4  C   UNL     1       6.234   5.264  15.025  0.00  0.00    +0.000 A 
ATOM      5  N   UNL     1       7.436   5.386  14.443  0.00  0.00    +0.000 NA
ATOM      6  O   UNL     1       7.344   4.525  13.342  0.00  0.00    +0.000 OA
BRANCH   2   8
ATOM      7  C   UNL     1       4.526   3.356  11.601  0.00  0.00    +0.000 C 
ATOM      8  C   UNL     1       5.768   2.925  12.384  0.00  0.00    +0.000 C 
ATOM      9  C   UNL     1       6.945   2.698  11.436  0.00  0.00    +0.000 C 
ENDBRANCH   2   8
ENDBRANCH   1   4
BRANCH   1  10
ATOM     10  N   UNL     1       5.036   5.066  17.210  0.00  0.00    +0.000 NA
ATOM     11  C   UNL     1       5.846   4.520  18.307  0.00  0.00    +0.000 C 
BRANCH  10  12
ATOM     12  C   UNL     1       3.924   5.888  17.727  0.00  0.00    +0.000 C 
BRANCH  12  13
ATOM     13  C   UNL     1       2.878   5.119  18.501  0.00  0.00    +0.000 A 
ATOM     14  C   UNL     1       2.527   5.497  19.801  0.00  0.00    +0.000 A 
ATOM     15  C   UNL     1       1.537   4.784  20.458  0.00  0.00    +0.000 A 
ATOM     16  N   UNL     1       0.886   3.733  19.923  0.00  0.00    +0.000 NA
ATOM     17  C   UNL     1       1.248   3.373  18.670  0.00  0.00    +0.000 A 
ATOM     18  C   UNL     1       2.218   4.027  17.930  0.00  0.00    +0.000 A 
ENDBRANCH  12  13
ENDBRANCH  10  12
ENDBRANCH   1  10
TORSDOF 5
ENDMDL
MODEL 9
REMARK VINA RESULT:      -6.5      1.252      1.902
REMARK  Name = 
REMARK  8 active torsions:
REMARK  status: ('A' for Active; 'I' for Inactive)
REMARK    1  A    between atoms: C_1  and  C_2
REMARK    2  A    between atoms: C_2  and  C_3
REMARK    3  A    between atoms: C_2  and  C_4
REMARK    4  A    between atoms: C_6  and  C_7
REMARK    5  A    between atoms: C_7  and  N_8
REMARK    6  A    between atoms: N_8  and  C_9
REMARK    7  A    between atoms: N_8  and  C_10
REMARK    8  A    between atoms: C_10  and  C_11
REMARK                            x       y       z     vdW  Elec       q    Type
REMARK                         _______ _______ _______ _____ _____    ______ ____
ROOT
ATOM      1  C   UNL     1       6.659   4.392  16.767  0.00  0.00    +0.000 C 
ENDROOT
BRANCH   1   4
ATOM      2  C   UNL     1       6.513   4.167  13.250  0.00  0.00    +0.000 A 
ATOM      3  N   UNL     1       6.056   3.780  14.417  0.00  0.00    +0.000 NA
ATOM      4  C   UNL     1       6.776   4.566  15.284  0.00  0.00    +0.000 A 
ATOM      5  N   UNL     1       7.645   5.403  14.697  0.00  0.00    +0.000 NA
ATOM      6  O   UNL     1       7.464   5.142  13.333  0.00  0.00    +0.000 OA
BRANCH   2   8
ATOM      7  C   UNL     1       7.094   2.407  11.634  0.00  0.00    +0.000 C 
ATOM      8  C   UNL     1       6.200   3.619  11.902  0.00  0.00    +0.000 C 
ATOM      9  C   UNL     1       4.727   3.228  11.807  0.00  0.00    +0.000 C 
ENDBRANCH   2   8
ENDBRANCH   1   4
BRANCH   1  10
ATOM     10  N   UNL     1       5.362   4.859  17.325  0.00  0.00    +0.000 NA
ATOM     11  C   UNL     1       5.042   6.208  16.838  0.00  0.00    +0.000 C 
BRANCH  10  12
ATOM     12  C   UNL     1       4.321   3.889  16.932  0.00  0.00    +0.000 C 
BRANCH  12  13
ATOM     13  C   UNL     1       3.382   3.487  18.047  0.00  0.00    +0.000 A 
ATOM     14  C   UNL     1       1.997   3.486  17.851  0.00  0.00    +0.000 A 
ATOM     15  C   UNL     1       1.178   3.075  18.889  0.00  0.00    +0.000 A 
ATOM     16  N   UNL     1       1.632   2.677  20.094  0.00  0.00    +0.000 NA
ATOM     17  C   UNL     1       2.974   2.697  20.270  0.00  0.00    +0.000 A 
ATOM     18  C   UNL     1       3.873   3.083  19.291  0.00  0.00    +0.000 A 
ENDBRANCH  12  13
ENDBRANCH  10  12
ENDBRANCH   1  10
TORSDOF 5
ENDMDL
