MODEL 1
REMARK VINA RESULT:      -7.7      0.000      0.000
REMARK  Name = 
REMARK  15 active torsions:
REMARK  status: ('A' for Active; 'I' for Inactive)
REMARK    1  A    between atoms: C_1  and  C_2
REMARK    2  A    between atoms: C_2  and  C_3
REMARK    3  A    between atoms: C_2  and  C_5
REMARK    4  A    between atoms: C_7  and  C_8
REMARK    5  A    between atoms: C_8  and  O_10
REMARK    6  A    between atoms: O_10  and  C_11
REMARK    7  A    between atoms: C_13  and  C_14
REMARK    8  A    between atoms: C_14  and  O_16
REMARK    9  A    between atoms: C_17  and  O_18
REMARK   10  A    between atoms: C_19  and  O_20
REMARK   11  A    between atoms: C_21  and  O_22
REMARK   12  A    between atoms: C_24  and  C_25
REMARK   13  A    between atoms: C_25  and  C_26
REMARK   14  A    between atoms: C_25  and  C_27
REMARK   15  A    between atoms: C_25  and  C_28
REMARK                            x       y       z     vdW  Elec       q    Type
REMARK                         _______ _______ _______ _____ _____    ______ ____
ROOT
ATOM      1  C   UNL     1       1.508   8.513  20.607  0.00  0.00    +0.000 C 
ATOM      2  O   UNL     1       1.579   8.666  21.814  0.00  0.00    +0.000 OA
ENDROOT
BRANCH   1   5
ATOM      3  C   UNL     1       1.606   4.865  19.862  0.00  0.00    +0.000 A 
ATOM      4  C   UNL     1       1.333   6.064  20.494  0.00  0.00    +0.000 A 
ATOM      5  C   UNL     1       1.885   7.234  19.999  0.00  0.00    +0.000 A 
ATOM      6  C   UNL     1       2.910   7.184  19.053  0.00  0.00    +0.000 A 
ATOM      7  C   UNL     1       3.317   5.947  18.536  0.00  0.00    +0.000 A 
ATOM      8  C   UNL     1       2.521   4.835  18.814  0.00  0.00    +0.000 A 
BRANCH   7   9
ATOM      9  C   UNL     1       4.652   5.778  17.797  0.00  0.00    +0.000 C 
ATOM     10  C   UNL     1       4.645   4.556  16.842  0.00  0.00    +0.000 C 
ATOM     11  C   UNL     1       4.943   7.048  16.996  0.00  0.00    +0.000 C 
BRANCH   9  12
ATOM     12  C   UNL     1       5.748   5.530  18.766  0.00  0.00    +0.000 C 
ATOM     13  N   UNL     1       6.596   5.318  19.541  0.00  0.00    +0.000 NA
ENDBRANCH   9  12
ENDBRANCH   7   9
BRANCH   3  15
ATOM     14  C   UNL     1       0.603   2.668  19.201  0.00  0.00    +0.000 C 
ATOM     15  C   UNL     1       0.951   3.618  20.351  0.00  0.00    +0.000 C 
BRANCH  15  16
ATOM     16  C   UNL     1       1.789   2.876  21.380  0.00  0.00    +0.000 C 
ATOM     17  N   UNL     1       2.485   2.260  22.233  0.00  0.00    +0.000 NA
ENDBRANCH  15  16
ENDBRANCH   3  15
ENDBRANCH   1   5
BRANCH   1  18
ATOM     18  O   UNL     1       0.975   9.329  19.682  0.00  0.00    +0.000 OA
BRANCH  18  19
ATOM     19  C   UNL     1      -0.407   9.765  19.708  0.00  0.00    +0.000 C 
ATOM     20  O   UNL     1      -0.768  10.429  20.916  0.00  0.00    +0.000 OA
ATOM     21  C   UNL     1      -0.206  11.727  21.058  0.00  0.00    +0.000 C 
ATOM     22  C   UNL     1      -0.488  12.631  19.838  0.00  0.00    +0.000 C 
ATOM     23  C   UNL     1      -0.391  11.955  18.440  0.00  0.00    +0.000 C 
ATOM     24  C   UNL     1      -0.921  10.525  18.470  0.00  0.00    +0.000 C 
BRANCH  21  25
ATOM     25  C   UNL     1      -0.622  12.384  22.387  0.00  0.00    +0.000 C 
ATOM     26  O   UNL     1      -0.936  13.563  22.493  0.00  0.00    +0.000 OA
BRANCH  25  27
ATOM     27  O   UNL     1      -0.746  11.523  23.427  0.00  0.00    +0.000 OA
ATOM     28  H   UNL     1      -0.484  11.907  24.300  0.00  0.00    +0.000 HD
ENDBRANCH  25  27
ENDBRANCH  21  25
BRANCH  22  29
ATOM     29  O   UNL     1       0.424  13.745  19.921  0.00  0.00    +0.000 OA
ATOM     30  H   UNL     1      -0.091  14.546  19.667  0.00  0.00    +0.000 HD
ENDBRANCH  22  29
BRANCH  23  31
ATOM     31  O   UNL     1      -1.066  12.755  17.453  0.00  0.00    +0.000 OA
ATOM     32  H   UNL     1      -1.749  12.222  17.015  0.00  0.00    +0.000 HD
ENDBRANCH  23  31
BRANCH  24  33
ATOM     33  O   UNL     1      -0.632   9.802  17.270  0.00  0.00    +0.000 OA
ATOM     34  H   UNL     1      -1.342   9.153  17.120  0.00  0.00    +0.000 HD
ENDBRANCH  24  33
ENDBRANCH  18  19
ENDBRANCH   1  18
TORSDOF 12
ENDMDL
MODEL 2
REMARK VINA RESULT:      -7.6      1.525      1.947
REMARK  Name = 
REMARK  15 active torsions:
REMARK  status: ('A' for Active; 'I' for Inactive)
REMARK    1  A    between atoms: C_1  and  C_2
REMARK    2  A    between atoms: C_2  and  C_3
REMARK    3  A    between atoms: C_2  and  C_5
REMARK    4  A    between atoms: C_7  and  C_8
REMARK    5  A    between atoms: C_8  and  O_10
REMARK    6  A    between atoms: O_10  and  C_11
REMARK    7  A    between atoms: C_13  and  C_14
REMARK    8  A    between atoms: C_14  and  O_16
REMARK    9  A    between atoms: C_17  and  O_18
REMARK   10  A    between atoms: C_19  and  O_20
REMARK   11  A    between atoms: C_21  and  O_22
REMARK   12  A    between atoms: C_24  and  C_25
REMARK   13  A    between atoms: C_25  and  C_26
REMARK   14  A    between atoms: C_25  and  C_27
REMARK   15  A    between atoms: C_25  and  C_28
REMARK                            x       y       z     vdW  Elec       q    Type
REMARK                         _______ _______ _______ _____ _____    ______ ____
ROOT
ATOM      1  C   UNL     1       1.995   9.071  18.286  0.00  0.00    +0.000 C 
ATOM      2  O   UNL     1       2.199   9.813  17.342  0.00  0.00    +0.000 OA
ENDROOT
BRANCH   1   5
ATOM      3  C   UNL     1       2.805   5.601  19.372  0.00  0.00    +0.000 A 
ATOM      4  C   UNL     1       2.300   6.888  19.375  0.00  0.00    +0.000 A 
ATOM      5  C   UNL     1       2.618   7.745  18.334  0.00  0.00    +0.000 A 
ATOM      6  C   UNL     1       3.641   7.419  17.442  0.00  0.00    +0.000 A 
ATOM      7  C   UNL     1       4.284   6.180  17.546  0.00  0.00    +0.000 A 
ATOM      8  C   UNL     1       3.717   5.225  18.391  0.00  0.00    +0.000 A 
BRANCH   7   9
ATOM      9  C   UNL     1       5.632   5.906  16.865  0.00  0.00    +0.000 C 
ATOM     10  C   UNL     1       6.324   4.633  17.418  0.00  0.00    +0.000 C 
ATOM     11  C   UNL     1       5.407   5.750  15.360  0.00  0.00    +0.000 C 
BRANCH   9  12
ATOM     12  C   UNL     1       6.573   7.025  17.121  0.00  0.00    +0.000 C 
ATOM     13  N   UNL     1       7.306   7.917  17.301  0.00  0.00    +0.000 NA
ENDBRANCH   9  12
ENDBRANCH   7   9
BRANCH   3  15
ATOM     14  C   UNL     1       0.915   4.295  20.367  0.00  0.00    +0.000 C 
ATOM     15  C   UNL     1       2.401   4.658  20.454  0.00  0.00    +0.000 C 
BRANCH  15  16
ATOM     16  C   UNL     1       3.229   3.383  20.466  0.00  0.00    +0.000 C 
ATOM     17  N   UNL     1       3.916   2.326  20.477  0.00  0.00    +0.000 NA
ENDBRANCH  15  16
ENDBRANCH   3  15
ENDBRANCH   1   5
BRANCH   1  18
ATOM     18  O   UNL     1       1.361   9.329  19.442  0.00  0.00    +0.000 OA
BRANCH  18  19
ATOM     19  C   UNL     1      -0.083   9.333  19.574  0.00  0.00    +0.000 C 
ATOM     20  O   UNL     1      -0.528   9.340  20.927  0.00  0.00    +0.000 OA
ATOM     21  C   UNL     1      -0.319  10.574  21.603  0.00  0.00    +0.000 C 
ATOM     22  C   UNL     1      -0.906  11.777  20.834  0.00  0.00    +0.000 C 
ATOM     23  C   UNL     1      -0.724  11.765  19.289  0.00  0.00    +0.000 C 
ATOM     24  C   UNL     1      -0.857  10.356  18.720  0.00  0.00    +0.000 C 
BRANCH  21  25
ATOM     25  C   UNL     1      -0.808  10.511  23.062  0.00  0.00    +0.000 C 
ATOM     26  O   UNL     1      -1.771  11.140  23.483  0.00  0.00    +0.000 OA
BRANCH  25  27
ATOM     27  O   UNL     1      -0.170   9.596  23.833  0.00  0.00    +0.000 OA
ATOM     28  H   UNL     1       0.301   9.985  24.611  0.00  0.00    +0.000 HD
ENDBRANCH  25  27
ENDBRANCH  21  25
BRANCH  22  29
ATOM     29  O   UNL     1      -0.316  12.964  21.400  0.00  0.00    +0.000 OA
ATOM     30  H   UNL     1       0.376  13.263  20.764  0.00  0.00    +0.000 HD
ENDBRANCH  22  29
BRANCH  23  31
ATOM     31  O   UNL     1      -1.648  12.680  18.672  0.00  0.00    +0.000 OA
ATOM     32  H   UNL     1      -1.302  13.584  18.738  0.00  0.00    +0.000 HD
ENDBRANCH  23  31
BRANCH  24  33
ATOM     33  O   UNL     1      -0.464  10.275  17.346  0.00  0.00    +0.000 OA
ATOM     34  H   UNL     1      -0.077  11.128  17.083  0.00  0.00    +0.000 HD
ENDBRANCH  24  33
ENDBRANCH  18  19
ENDBRANCH   1  18
TORSDOF 12
ENDMDL
MODEL 3
REMARK VINA RESULT:      -7.6      1.145      1.318
REMARK  Name = 
REMARK  15 active torsions:
REMARK  status: ('A' for Active; 'I' for Inactive)
REMARK    1  A    between atoms: C_1  and  C_2
REMARK    2  A    between atoms: C_2  and  C_3
REMARK    3  A    between atoms: C_2  and  C_5
REMARK    4  A    between atoms: C_7  and  C_8
REMARK    5  A    between atoms: C_8  and  O_10
REMARK    6  A    between atoms: O_10  and  C_11
REMARK    7  A    between atoms: C_13  and  C_14
REMARK    8  A    between atoms: C_14  and  O_16
REMARK    9  A    between atoms: C_17  and  O_18
REMARK   10  A    between atoms: C_19  and  O_20
REMARK   11  A    between atoms: C_21  and  O_22
REMARK   12  A    between atoms: C_24  and  C_25
REMARK   13  A    between atoms: C_25  and  C_26
REMARK   14  A    between atoms: C_25  and  C_27
REMARK   15  A    between atoms: C_25  and  C_28
REMARK                            x       y       z     vdW  Elec       q    Type
REMARK                         _______ _______ _______ _____ _____    ______ ____
ROOT
ATOM      1  C   UNL     1       1.573   8.048  20.715  0.00  0.00    +0.000 C 
ATOM      2  O   UNL     1       1.019   7.958  21.797  0.00  0.00    +0.000 OA
ENDROOT
BRANCH   1   5
ATOM      3  C   UNL     1       1.633   4.514  19.538  0.00  0.00    +0.000 A 
ATOM      4  C   UNL     1       1.351   5.636  20.296  0.00  0.00    +0.000 A 
ATOM      5  C   UNL     1       1.956   6.840  19.978  0.00  0.00    +0.000 A 
ATOM      6  C   UNL     1       3.032   6.874  19.090  0.00  0.00    +0.000 A 
ATOM      7  C   UNL     1       3.441   5.698  18.449  0.00  0.00    +0.000 A 
ATOM      8  C   UNL     1       2.606   4.584  18.546  0.00  0.00    +0.000 A 
BRANCH   7   9
ATOM      9  C   UNL     1       4.812   5.579  17.769  0.00  0.00    +0.000 C 
ATOM     10  C   UNL     1       4.900   4.346  16.833  0.00  0.00    +0.000 C 
ATOM     11  C   UNL     1       5.079   6.850  16.961  0.00  0.00    +0.000 C 
BRANCH   9  12
ATOM     12  C   UNL     1       5.876   5.396  18.786  0.00  0.00    +0.000 C 
ATOM     13  N   UNL     1       6.725   5.273  19.580  0.00  0.00    +0.000 NA
ENDBRANCH   9  12
ENDBRANCH   7   9
BRANCH   3  15
ATOM     14  C   UNL     1       1.186   2.175  18.763  0.00  0.00    +0.000 C 
ATOM     15  C   UNL     1       0.923   3.237  19.836  0.00  0.00    +0.000 C 
BRANCH  15  16
ATOM     16  C   UNL     1       1.277   2.669  21.201  0.00  0.00    +0.000 C 
ATOM     17  N   UNL     1       1.571   2.199  22.334  0.00  0.00    +0.000 NA
ENDBRANCH  15  16
ENDBRANCH   3  15
ENDBRANCH   1   5
BRANCH   1  18
ATOM     18  O   UNL     1       1.786   9.139  19.962  0.00  0.00    +0.000 OA
BRANCH  18  19
ATOM     19  C   UNL     1       0.716   9.953  19.419  0.00  0.00    +0.000 C 
ATOM     20  O   UNL     1      -0.199  10.416  20.408  0.00  0.00    +0.000 OA
ATOM     21  C   UNL     1       0.326  11.424  21.263  0.00  0.00    +0.000 C 
ATOM     22  C   UNL     1       0.923  12.612  20.478  0.00  0.00    +0.000 C 
ATOM     23  C   UNL     1       1.737  12.258  19.200  0.00  0.00    +0.000 C 
ATOM     24  C   UNL     1       1.120  11.080  18.451  0.00  0.00    +0.000 C 
BRANCH  21  25
ATOM     25  C   UNL     1      -0.706  11.871  22.314  0.00  0.00    +0.000 C 
ATOM     26  O   UNL     1      -0.983  11.220  23.314  0.00  0.00    +0.000 OA
BRANCH  25  27
ATOM     27  O   UNL     1      -1.203  13.118  22.123  0.00  0.00    +0.000 OA
ATOM     28  H   UNL     1      -1.599  13.522  22.935  0.00  0.00    +0.000 HD
ENDBRANCH  25  27
ENDBRANCH  21  25
BRANCH  22  29
ATOM     29  O   UNL     1       1.741  13.357  21.403  0.00  0.00    +0.000 OA
ATOM     30  H   UNL     1       2.642  12.960  21.361  0.00  0.00    +0.000 HD
ENDBRANCH  22  29
BRANCH  23  31
ATOM     31  O   UNL     1       1.870  13.417  18.358  0.00  0.00    +0.000 OA
ATOM     32  H   UNL     1       2.564  13.261  17.698  0.00  0.00    +0.000 HD
ENDBRANCH  23  31
BRANCH  24  33
ATOM     33  O   UNL     1       1.966  10.581  17.411  0.00  0.00    +0.000 OA
ATOM     34  H   UNL     1       2.809  11.067  17.438  0.00  0.00    +0.000 HD
ENDBRANCH  24  33
ENDBRANCH  18  19
ENDBRANCH   1  18
TORSDOF 12
ENDMDL
MODEL 4
REMARK VINA RESULT:      -7.5      1.909      3.673
REMARK  Name = 
REMARK  15 active torsions:
REMARK  status: ('A' for Active; 'I' for Inactive)
REMARK    1  A    between atoms: C_1  and  C_2
REMARK    2  A    between atoms: C_2  and  C_3
REMARK    3  A    between atoms: C_2  and  C_5
REMARK    4  A    between atoms: C_7  and  C_8
REMARK    5  A    between atoms: C_8  and  O_10
REMARK    6  A    between atoms: O_10  and  C_11
REMARK    7  A    between atoms: C_13  and  C_14
REMARK    8  A    between atoms: C_14  and  O_16
REMARK    9  A    between atoms: C_17  and  O_18
REMARK   10  A    between atoms: C_19  and  O_20
REMARK   11  A    between atoms: C_21  and  O_22
REMARK   12  A    between atoms: C_24  and  C_25
REMARK   13  A    between atoms: C_25  and  C_26
REMARK   14  A    between atoms: C_25  and  C_27
REMARK   15  A    between atoms: C_25  and  C_28
REMARK                            x       y       z     vdW  Elec       q    Type
REMARK                         _______ _______ _______ _____ _____    ______ ____
ROOT
ATOM      1  C   UNL     1       1.824   7.388  20.337  0.00  0.00    +0.000 C 
ATOM      2  O   UNL     1       1.040   6.977  21.175  0.00  0.00    +0.000 OA
ENDROOT
BRANCH   1   5
ATOM      3  C   UNL     1       4.275   6.046  17.874  0.00  0.00    +0.000 A 
ATOM      4  C   UNL     1       3.366   6.887  18.490  0.00  0.00    +0.000 A 
ATOM      5  C   UNL     1       2.704   6.455  19.627  0.00  0.00    +0.000 A 
ATOM      6  C   UNL     1       2.740   5.109  19.995  0.00  0.00    +0.000 A 
ATOM      7  C   UNL     1       3.524   4.210  19.261  0.00  0.00    +0.000 A 
ATOM      8  C   UNL     1       4.422   4.741  18.334  0.00  0.00    +0.000 A 
BRANCH   7   9
ATOM      9  C   UNL     1       3.328   2.691  19.365  0.00  0.00    +0.000 C 
ATOM     10  C   UNL     1       1.952   2.316  19.975  0.00  0.00    +0.000 C 
ATOM     11  C   UNL     1       3.451   2.077  17.970  0.00  0.00    +0.000 C 
BRANCH   9  12
ATOM     12  C   UNL     1       4.347   2.102  20.267  0.00  0.00    +0.000 C 
ATOM     13  N   UNL     1       5.133   1.636  20.997  0.00  0.00    +0.000 NA
ENDBRANCH   9  12
ENDBRANCH   7   9
BRANCH   3  15
ATOM     14  C   UNL     1       6.378   7.166  17.105  0.00  0.00    +0.000 C 
ATOM     15  C   UNL     1       5.041   6.540  16.694  0.00  0.00    +0.000 C 
BRANCH  15  16
ATOM     16  C   UNL     1       5.290   5.458  15.656  0.00  0.00    +0.000 C 
ATOM     17  N   UNL     1       5.497   4.560  14.795  0.00  0.00    +0.000 NA
ENDBRANCH  15  16
ENDBRANCH   3  15
ENDBRANCH   1   5
BRANCH   1  18
ATOM     18  O   UNL     1       1.933   8.620  19.814  0.00  0.00    +0.000 OA
BRANCH  18  19
ATOM     19  C   UNL     1       0.798   9.385  19.337  0.00  0.00    +0.000 C 
ATOM     20  O   UNL     1      -0.046   9.858  20.384  0.00  0.00    +0.000 OA
ATOM     21  C   UNL     1       0.519  10.908  21.158  0.00  0.00    +0.000 C 
ATOM     22  C   UNL     1       1.014  12.084  20.289  0.00  0.00    +0.000 C 
ATOM     23  C   UNL     1       1.729  11.708  18.959  0.00  0.00    +0.000 C 
ATOM     24  C   UNL     1       1.086  10.489  18.303  0.00  0.00    +0.000 C 
BRANCH  21  25
ATOM     25  C   UNL     1      -0.435  11.363  22.278  0.00  0.00    +0.000 C 
ATOM     26  O   UNL     1      -0.542  10.788  23.354  0.00  0.00    +0.000 OA
BRANCH  25  27
ATOM     27  O   UNL     1      -1.067  12.538  22.039  0.00  0.00    +0.000 OA
ATOM     28  H   UNL     1      -0.522  13.193  21.536  0.00  0.00    +0.000 HD
ENDBRANCH  25  27
ENDBRANCH  21  25
BRANCH  22  29
ATOM     29  O   UNL     1       1.882  12.882  21.118  0.00  0.00    +0.000 OA
ATOM     30  H   UNL     1       2.414  13.443  20.506  0.00  0.00    +0.000 HD
ENDBRANCH  22  29
BRANCH  23  31
ATOM     31  O   UNL     1       1.757  12.841  18.072  0.00  0.00    +0.000 OA
ATOM     32  H   UNL     1       2.373  13.507  18.416  0.00  0.00    +0.000 HD
ENDBRANCH  23  31
BRANCH  24  33
ATOM     33  O   UNL     1       1.858   9.978  17.211  0.00  0.00    +0.000 OA
ATOM     34  H   UNL     1       2.798   9.996  17.462  0.00  0.00    +0.000 HD
ENDBRANCH  24  33
ENDBRANCH  18  19
ENDBRANCH   1  18
TORSDOF 12
ENDMDL
MODEL 5
REMARK VINA RESULT:      -7.5      1.553      2.116
REMARK  Name = 
REMARK  15 active torsions:
REMARK  status: ('A' for Active; 'I' for Inactive)
REMARK    1  A    between atoms: C_1  and  C_2
REMARK    2  A    between atoms: C_2  and  C_3
REMARK    3  A    between atoms: C_2  and  C_5
REMARK    4  A    between atoms: C_7  and  C_8
REMARK    5  A    between atoms: C_8  and  O_10
REMARK    6  A    between atoms: O_10  and  C_11
REMARK    7  A    between atoms: C_13  and  C_14
REMARK    8  A    between atoms: C_14  and  O_16
REMARK    9  A    between atoms: C_17  and  O_18
REMARK   10  A    between atoms: C_19  and  O_20
REMARK   11  A    between atoms: C_21  and  O_22
REMARK   12  A    between atoms: C_24  and  C_25
REMARK   13  A    between atoms: C_25  and  C_26
REMARK   14  A    between atoms: C_25  and  C_27
REMARK   15  A    between atoms: C_25  and  C_28
REMARK                            x       y       z     vdW  Elec       q    Type
REMARK                         _______ _______ _______ _____ _____    ______ ____
ROOT
ATOM      1  C   UNL     1       2.197   8.788  18.124  0.00  0.00    +0.000 C 
ATOM      2  O   UNL     1       2.360   9.666  17.294  0.00  0.00    +0.000 OA
ENDROOT
BRANCH   1   5
ATOM      3  C   UNL     1       2.584   5.087  17.948  0.00  0.00    +0.000 A 
ATOM      4  C   UNL     1       2.056   6.336  18.222  0.00  0.00    +0.000 A 
ATOM      5  C   UNL     1       2.801   7.466  17.931  0.00  0.00    +0.000 A 
ATOM      6  C   UNL     1       4.158   7.355  17.623  0.00  0.00    +0.000 A 
ATOM      7  C   UNL     1       4.745   6.088  17.519  0.00  0.00    +0.000 A 
ATOM      8  C   UNL     1       3.895   4.981  17.496  0.00  0.00    +0.000 A 
BRANCH   7   9
ATOM      9  C   UNL     1       6.267   5.893  17.556  0.00  0.00    +0.000 C 
ATOM     10  C   UNL     1       6.735   4.738  16.633  0.00  0.00    +0.000 C 
ATOM     11  C   UNL     1       6.946   7.195  17.126  0.00  0.00    +0.000 C 
BRANCH   9  12
ATOM     12  C   UNL     1       6.704   5.524  18.924  0.00  0.00    +0.000 C 
ATOM     13  N   UNL     1       7.073   5.228  19.994  0.00  0.00    +0.000 NA
ENDBRANCH   9  12
ENDBRANCH   7   9
BRANCH   3  15
ATOM     14  C   UNL     1       2.424   2.604  17.667  0.00  0.00    +0.000 C 
ATOM     15  C   UNL     1       1.750   3.875  18.192  0.00  0.00    +0.000 C 
BRANCH  15  16
ATOM     16  C   UNL     1       1.397   3.687  19.659  0.00  0.00    +0.000 C 
ATOM     17  N   UNL     1       1.104   3.532  20.875  0.00  0.00    +0.000 NA
ENDBRANCH  15  16
ENDBRANCH   3  15
ENDBRANCH   1   5
BRANCH   1  18
ATOM     18  O   UNL     1       1.633   8.868  19.340  0.00  0.00    +0.000 OA
BRANCH  18  19
ATOM     19  C   UNL     1       0.208   9.040  19.546  0.00  0.00    +0.000 C 
ATOM     20  O   UNL     1      -0.174   8.999  20.918  0.00  0.00    +0.000 OA
ATOM     21  C   UNL     1       0.217  10.144  21.666  0.00  0.00    +0.000 C 
ATOM     22  C   UNL     1      -0.246  11.463  21.013  0.00  0.00    +0.000 C 
ATOM     23  C   UNL     1      -0.134  11.546  19.464  0.00  0.00    +0.000 C 
ATOM     24  C   UNL     1      -0.467  10.210  18.806  0.00  0.00    +0.000 C 
BRANCH  21  25
ATOM     25  C   UNL     1      -0.213  10.032  23.141  0.00  0.00    +0.000 C 
ATOM     26  O   UNL     1       0.480   9.525  24.014  0.00  0.00    +0.000 OA
BRANCH  25  27
ATOM     27  O   UNL     1      -1.378  10.659  23.438  0.00  0.00    +0.000 OA
ATOM     28  H   UNL     1      -2.160  10.056  23.478  0.00  0.00    +0.000 HD
ENDBRANCH  25  27
ENDBRANCH  21  25
BRANCH  22  29
ATOM     29  O   UNL     1       0.511  12.525  21.629  0.00  0.00    +0.000 OA
ATOM     30  H   UNL     1      -0.128  13.049  22.166  0.00  0.00    +0.000 HD
ENDBRANCH  22  29
BRANCH  23  31
ATOM     31  O   UNL     1      -0.961  12.610  18.961  0.00  0.00    +0.000 OA
ATOM     32  H   UNL     1      -0.851  12.681  17.999  0.00  0.00    +0.000 HD
ENDBRANCH  23  31
BRANCH  24  33
ATOM     33  O   UNL     1      -0.147  10.185  17.412  0.00  0.00    +0.000 OA
ATOM     34  H   UNL     1      -0.099  11.101  17.088  0.00  0.00    +0.000 HD
ENDBRANCH  24  33
ENDBRANCH  18  19
ENDBRANCH   1  18
TORSDOF 12
ENDMDL
MODEL 6
REMARK VINA RESULT:      -7.5      1.714      3.925
REMARK  Name = 
REMARK  15 active torsions:
REMARK  status: ('A' for Active; 'I' for Inactive)
REMARK    1  A    between atoms: C_1  and  C_2
REMARK    2  A    between atoms: C_2  and  C_3
REMARK    3  A    between atoms: C_2  and  C_5
REMARK    4  A    between atoms: C_7  and  C_8
REMARK    5  A    between atoms: C_8  and  O_10
REMARK    6  A    between atoms: O_10  and  C_11
REMARK    7  A    between atoms: C_13  and  C_14
REMARK    8  A    between atoms: C_14  and  O_16
REMARK    9  A    between atoms: C_17  and  O_18
REMARK   10  A    between atoms: C_19  and  O_20
REMARK   11  A    between atoms: C_21  and  O_22
REMARK   12  A    between atoms: C_24  and  C_25
REMARK   13  A    between atoms: C_25  and  C_26
REMARK   14  A    between atoms: C_25  and  C_27
REMARK   15  A    between atoms: C_25  and  C_28
REMARK                            x       y       z     vdW  Elec       q    Type
REMARK                         _______ _______ _______ _____ _____    ______ ____
ROOT
ATOM      1  C   UNL     1       2.169   8.343  18.273  0.00  0.00    +0.000 C 
ATOM      2  O   UNL     1       2.202   8.820  17.152  0.00  0.00    +0.000 OA
ENDROOT
BRANCH   1   5
ATOM      3  C   UNL     1       4.843   5.750  18.296  0.00  0.00    +0.000 A 
ATOM      4  C   UNL     1       4.105   6.865  17.943  0.00  0.00    +0.000 A 
ATOM      5  C   UNL     1       2.895   7.106  18.573  0.00  0.00    +0.000 A 
ATOM      6  C   UNL     1       2.295   6.112  19.348  0.00  0.00    +0.000 A 
ATOM      7  C   UNL     1       2.965   4.901  19.564  0.00  0.00    +0.000 A 
ATOM      8  C   UNL     1       4.307   4.827  19.188  0.00  0.00    +0.000 A 
BRANCH   7   9
ATOM      9  C   UNL     1       2.235   3.651  20.074  0.00  0.00    +0.000 C 
ATOM     10  C   UNL     1       2.487   3.397  21.583  0.00  0.00    +0.000 C 
ATOM     11  C   UNL     1       0.735   3.815  19.829  0.00  0.00    +0.000 C 
BRANCH   9  12
ATOM     12  C   UNL     1       2.732   2.443  19.369  0.00  0.00    +0.000 C 
ATOM     13  N   UNL     1       3.105   1.495  18.796  0.00  0.00    +0.000 NA
ENDBRANCH   9  12
ENDBRANCH   7   9
BRANCH   3  15
ATOM     14  C   UNL     1       6.075   4.751  16.357  0.00  0.00    +0.000 C 
ATOM     15  C   UNL     1       6.179   5.534  17.670  0.00  0.00    +0.000 C 
BRANCH  15  16
ATOM     16  C   UNL     1       6.932   6.832  17.422  0.00  0.00    +0.000 C 
ATOM     17  N   UNL     1       7.556   7.908  17.215  0.00  0.00    +0.000 NA
ENDBRANCH  15  16
ENDBRANCH   3  15
ENDBRANCH   1   5
BRANCH   1  18
ATOM     18  O   UNL     1       1.657   8.866  19.400  0.00  0.00    +0.000 OA
BRANCH  18  19
ATOM     19  C   UNL     1       0.237   9.079  19.604  0.00  0.00    +0.000 C 
ATOM     20  O   UNL     1      -0.147   9.048  20.976  0.00  0.00    +0.000 OA
ATOM     21  C   UNL     1       0.276  10.179  21.726  0.00  0.00    +0.000 C 
ATOM     22  C   UNL     1      -0.148  11.513  21.074  0.00  0.00    +0.000 C 
ATOM     23  C   UNL     1      -0.031  11.594  19.525  0.00  0.00    +0.000 C 
ATOM     24  C   UNL     1      -0.402  10.269  18.865  0.00  0.00    +0.000 C 
BRANCH  21  25
ATOM     25  C   UNL     1      -0.159  10.078  23.199  0.00  0.00    +0.000 C 
ATOM     26  O   UNL     1       0.482   9.483  24.058  0.00  0.00    +0.000 OA
BRANCH  25  27
ATOM     27  O   UNL     1      -1.254  10.812  23.517  0.00  0.00    +0.000 OA
ATOM     28  H   UNL     1      -1.056  11.611  24.064  0.00  0.00    +0.000 HD
ENDBRANCH  25  27
ENDBRANCH  21  25
BRANCH  22  29
ATOM     29  O   UNL     1       0.640  12.550  21.692  0.00  0.00    +0.000 OA
ATOM     30  H   UNL     1       1.060  12.146  22.488  0.00  0.00    +0.000 HD
ENDBRANCH  22  29
BRANCH  23  31
ATOM     31  O   UNL     1      -0.826  12.683  19.023  0.00  0.00    +0.000 OA
ATOM     32  H   UNL     1      -1.750  12.399  18.940  0.00  0.00    +0.000 HD
ENDBRANCH  23  31
BRANCH  24  33
ATOM     33  O   UNL     1      -0.082  10.237  17.471  0.00  0.00    +0.000 OA
ATOM     34  H   UNL     1      -0.179   9.323  17.152  0.00  0.00    +0.000 HD
ENDBRANCH  24  33
ENDBRANCH  18  19
ENDBRANCH   1  18
TORSDOF 12
ENDMDL
MODEL 7
REMARK VINA RESULT:      -7.5      1.685      3.773
REMARK  Name = 
REMARK  15 active torsions:
REMARK  status: ('A' for Active; 'I' for Inactive)
REMARK    1  A    between atoms: C_1  and  C_2
REMARK    2  A    between atoms: C_2  and  C_3
REMARK    3  A    between atoms: C_2  and  C_5
REMARK    4  A    between atoms: C_7  and  C_8
REMARK    5  A    between atoms: C_8  and  O_10
REMARK    6  A    between atoms: O_10  and  C_11
REMARK    7  A    between atoms: C_13  and  C_14
REMARK    8  A    between atoms: C_14  and  O_16
REMARK    9  A    between atoms: C_17  and  O_18
REMARK   10  A    between atoms: C_19  and  O_20
REMARK   11  A    between atoms: C_21  and  O_22
REMARK   12  A    between atoms: C_24  and  C_25
REMARK   13  A    between atoms: C_25  and  C_26
REMARK   14  A    between atoms: C_25  and  C_27
REMARK   15  A    between atoms: C_25  and  C_28
REMARK                            x       y       z     vdW  Elec       q    Type
REMARK                         _______ _______ _______ _____ _____    ______ ____
ROOT
ATOM      1  C   UNL     1       2.021   8.803  18.096  0.00  0.00    +0.000 C 
ATOM      2  O   UNL     1       2.022   9.428  17.050  0.00  0.00    +0.000 OA
ENDROOT
BRANCH   1   5
ATOM      3  C   UNL     1       4.702   6.260  17.623  0.00  0.00    +0.000 A 
ATOM      4  C   UNL     1       3.923   7.389  17.444  0.00  0.00    +0.000 A 
ATOM      5  C   UNL     1       2.784   7.556  18.213  0.00  0.00    +0.000 A 
ATOM      6  C   UNL     1       2.275   6.492  18.960  0.00  0.00    +0.000 A 
ATOM      7  C   UNL     1       2.972   5.278  19.002  0.00  0.00    +0.000 A 
ATOM      8  C   UNL     1       4.268   5.257  18.484  0.00  0.00    +0.000 A 
BRANCH   7   9
ATOM      9  C   UNL     1       2.308   3.978  19.476  0.00  0.00    +0.000 C 
ATOM     10  C   UNL     1       1.362   4.207  20.684  0.00  0.00    +0.000 C 
ATOM     11  C   UNL     1       1.516   3.371  18.317  0.00  0.00    +0.000 C 
BRANCH   9  12
ATOM     12  C   UNL     1       3.337   3.016  19.942  0.00  0.00    +0.000 C 
ATOM     13  N   UNL     1       4.129   2.243  20.318  0.00  0.00    +0.000 NA
ENDBRANCH   9  12
ENDBRANCH   7   9
BRANCH   3  15
ATOM     14  C   UNL     1       7.203   6.236  17.745  0.00  0.00    +0.000 C 
ATOM     15  C   UNL     1       5.967   6.118  16.847  0.00  0.00    +0.000 C 
BRANCH  15  16
ATOM     16  C   UNL     1       6.038   4.817  16.064  0.00  0.00    +0.000 C 
ATOM     17  N   UNL     1       6.097   3.737  15.415  0.00  0.00    +0.000 NA
ENDBRANCH  15  16
ENDBRANCH   3  15
ENDBRANCH   1   5
BRANCH   1  18
ATOM     18  O   UNL     1       1.517   9.153  19.291  0.00  0.00    +0.000 OA
BRANCH  18  19
ATOM     19  C   UNL     1       0.095   9.257  19.555  0.00  0.00    +0.000 C 
ATOM     20  O   UNL     1      -0.233   9.150  20.937  0.00  0.00    +0.000 OA
ATOM     21  C   UNL     1       0.139  10.281  21.714  0.00  0.00    +0.000 C 
ATOM     22  C   UNL     1      -0.401  11.604  21.130  0.00  0.00    +0.000 C 
ATOM     23  C   UNL     1      -0.351  11.748  19.582  0.00  0.00    +0.000 C 
ATOM     24  C   UNL     1      -0.654  10.425  18.885  0.00  0.00    +0.000 C 
BRANCH  21  25
ATOM     25  C   UNL     1      -0.230  10.096  23.198  0.00  0.00    +0.000 C 
ATOM     26  O   UNL     1       0.474   9.502  24.004  0.00  0.00    +0.000 OA
BRANCH  25  27
ATOM     27  O   UNL     1      -1.348  10.758  23.588  0.00  0.00    +0.000 OA
ATOM     28  H   UNL     1      -1.176  11.496  24.224  0.00  0.00    +0.000 HD
ENDBRANCH  25  27
ENDBRANCH  21  25
BRANCH  22  29
ATOM     29  O   UNL     1       0.336  12.672  21.759  0.00  0.00    +0.000 OA
ATOM     30  H   UNL     1      -0.311  13.170  22.310  0.00  0.00    +0.000 HD
ENDBRANCH  22  29
BRANCH  23  31
ATOM     31  O   UNL     1      -1.238  12.796  19.151  0.00  0.00    +0.000 OA
ATOM     32  H   UNL     1      -2.145  12.587  19.427  0.00  0.00    +0.000 HD
ENDBRANCH  23  31
BRANCH  24  33
ATOM     33  O   UNL     1      -0.386  10.466  17.480  0.00  0.00    +0.000 OA
ATOM     34  H   UNL     1       0.031   9.626  17.220  0.00  0.00    +0.000 HD
ENDBRANCH  24  33
ENDBRANCH  18  19
ENDBRANCH   1  18
TORSDOF 12
ENDMDL
MODEL 8
REMARK VINA RESULT:      -7.4      1.649      3.779
REMARK  Name = 
REMARK  15 active torsions:
REMARK  status: ('A' for Active; 'I' for Inactive)
REMARK    1  A    between atoms: C_1  and  C_2
REMARK    2  A    between atoms: C_2  and  C_3
REMARK    3  A    between atoms: C_2  and  C_5
REMARK    4  A    between atoms: C_7  and  C_8
REMARK    5  A    between atoms: C_8  and  O_10
REMARK    6  A    between atoms: O_10  and  C_11
REMARK    7  A    between atoms: C_13  and  C_14
REMARK    8  A    between atoms: C_14  and  O_16
REMARK    9  A    between atoms: C_17  and  O_18
REMARK   10  A    between atoms: C_19  and  O_20
REMARK   11  A    between atoms: C_21  and  O_22
REMARK   12  A    between atoms: C_24  and  C_25
REMARK   13  A    between atoms: C_25  and  C_26
REMARK   14  A    between atoms: C_25  and  C_27
REMARK   15  A    between atoms: C_25  and  C_28
REMARK                            x       y       z     vdW  Elec       q    Type
REMARK                         _______ _______ _______ _____ _____    ______ ____
ROOT
ATOM      1  C   UNL     1       2.132   8.451  18.252  0.00  0.00    +0.000 C 
ATOM      2  O   UNL     1       2.162   8.904  17.121  0.00  0.00    +0.000 OA
ENDROOT
BRANCH   1   5
ATOM      3  C   UNL     1       4.912   5.984  18.504  0.00  0.00    +0.000 A 
ATOM      4  C   UNL     1       4.171   7.086  18.115  0.00  0.00    +0.000 A 
ATOM      5  C   UNL     1       2.875   7.232  18.581  0.00  0.00    +0.000 A 
ATOM      6  C   UNL     1       2.228   6.165  19.208  0.00  0.00    +0.000 A 
ATOM      7  C   UNL     1       2.925   4.974  19.447  0.00  0.00    +0.000 A 
ATOM      8  C   UNL     1       4.308   4.985  19.260  0.00  0.00    +0.000 A 
BRANCH   7   9
ATOM      9  C   UNL     1       2.200   3.663  19.779  0.00  0.00    +0.000 C 
ATOM     10  C   UNL     1       2.951   2.829  20.849  0.00  0.00    +0.000 C 
ATOM     11  C   UNL     1       0.792   3.986  20.282  0.00  0.00    +0.000 C 
BRANCH   9  12
ATOM     12  C   UNL     1       2.119   2.801  18.574  0.00  0.00    +0.000 C 
ATOM     13  N   UNL     1       2.050   2.102  17.639  0.00  0.00    +0.000 NA
ENDBRANCH   9  12
ENDBRANCH   7   9
BRANCH   3  15
ATOM     14  C   UNL     1       6.805   7.130  17.332  0.00  0.00    +0.000 C 
ATOM     15  C   UNL     1       6.331   5.868  18.061  0.00  0.00    +0.000 C 
BRANCH  15  16
ATOM     16  C   UNL     1       7.284   5.562  19.206  0.00  0.00    +0.000 C 
ATOM     17  N   UNL     1       8.075   5.308  20.155  0.00  0.00    +0.000 NA
ENDBRANCH  15  16
ENDBRANCH   3  15
ENDBRANCH   1   5
BRANCH   1  18
ATOM     18  O   UNL     1       1.609   8.992  19.366  0.00  0.00    +0.000 OA
BRANCH  18  19
ATOM     19  C   UNL     1       0.184   9.144  19.582  0.00  0.00    +0.000 C 
ATOM     20  O   UNL     1      -0.187   9.107  20.957  0.00  0.00    +0.000 OA
ATOM     21  C   UNL     1       0.193  10.261  21.695  0.00  0.00    +0.000 C 
ATOM     22  C   UNL     1      -0.294  11.570  21.038  0.00  0.00    +0.000 C 
ATOM     23  C   UNL     1      -0.194  11.645  19.487  0.00  0.00    +0.000 C 
ATOM     24  C   UNL     1      -0.513  10.300  18.840  0.00  0.00    +0.000 C 
BRANCH  21  25
ATOM     25  C   UNL     1      -0.224  10.152  23.173  0.00  0.00    +0.000 C 
ATOM     26  O   UNL     1       0.386   9.491  24.004  0.00  0.00    +0.000 OA
BRANCH  25  27
ATOM     27  O   UNL     1      -1.258  10.954  23.529  0.00  0.00    +0.000 OA
ATOM     28  H   UNL     1      -1.134  11.903  23.281  0.00  0.00    +0.000 HD
ENDBRANCH  25  27
ENDBRANCH  21  25
BRANCH  22  29
ATOM     29  O   UNL     1       0.454  12.645  21.641  0.00  0.00    +0.000 OA
ATOM     30  H   UNL     1       0.792  13.200  20.900  0.00  0.00    +0.000 HD
ENDBRANCH  22  29
BRANCH  23  31
ATOM     31  O   UNL     1      -1.040  12.694  18.984  0.00  0.00    +0.000 OA
ATOM     32  H   UNL     1      -1.672  12.960  19.672  0.00  0.00    +0.000 HD
ENDBRANCH  23  31
BRANCH  24  33
ATOM     33  O   UNL     1      -0.204  10.271  17.443  0.00  0.00    +0.000 OA
ATOM     34  H   UNL     1       0.303   9.462  17.255  0.00  0.00    +0.000 HD
ENDBRANCH  24  33
ENDBRANCH  18  19
ENDBRANCH   1  18
TORSDOF 12
ENDMDL
MODEL 9
REMARK VINA RESULT:      -7.4      1.949      2.491
REMARK  Name = 
REMARK  15 active torsions:
REMARK  status: ('A' for Active; 'I' for Inactive)
REMARK    1  A    between atoms: C_1  and  C_2
REMARK    2  A    between atoms: C_2  and  C_3
REMARK    3  A    between atoms: C_2  and  C_5
REMARK    4  A    between atoms: C_7  and  C_8
REMARK    5  A    between atoms: C_8  and  O_10
REMARK    6  A    between atoms: O_10  and  C_11
REMARK    7  A    between atoms: C_13  and  C_14
REMARK    8  A    between atoms: C_14  and  O_16
REMARK    9  A    between atoms: C_17  and  O_18
REMARK   10  A    between atoms: C_19  and  O_20
REMARK   11  A    between atoms: C_21  and  O_22
REMARK   12  A    between atoms: C_24  and  C_25
REMARK   13  A    between atoms: C_25  and  C_26
REMARK   14  A    between atoms: C_25  and  C_27
REMARK   15  A    between atoms: C_25  and  C_28
REMARK                            x       y       z     vdW  Elec       q    Type
REMARK                         _______ _______ _______ _____ _____    ______ ____
ROOT
ATOM      1  C   UNL     1       2.117   7.063  20.108  0.00  0.00    +0.000 C 
ATOM      2  O   UNL     1       1.480   6.559  21.016  0.00  0.00    +0.000 OA
ENDROOT
BRANCH   1   5
ATOM      3  C   UNL     1       3.164   4.165  18.014  0.00  0.00    +0.000 A 
ATOM      4  C   UNL     1       2.483   4.928  18.945  0.00  0.00    +0.000 A 
ATOM      5  C   UNL     1       2.905   6.222  19.201  0.00  0.00    +0.000 A 
ATOM      6  C   UNL     1       4.147   6.662  18.741  0.00  0.00    +0.000 A 
ATOM      7  C   UNL     1       4.928   5.820  17.939  0.00  0.00    +0.000 A 
ATOM      8  C   UNL     1       4.329   4.664  17.439  0.00  0.00    +0.000 A 
BRANCH   7   9
ATOM      9  C   UNL     1       6.424   6.076  17.713  0.00  0.00    +0.000 C 
ATOM     10  C   UNL     1       6.726   7.564  17.397  0.00  0.00    +0.000 C 
ATOM     11  C   UNL     1       7.196   5.655  18.964  0.00  0.00    +0.000 C 
BRANCH   9  12
ATOM     12  C   UNL     1       6.905   5.304  16.540  0.00  0.00    +0.000 C 
ATOM     13  N   UNL     1       7.292   4.719  15.605  0.00  0.00    +0.000 NA
ENDBRANCH   9  12
ENDBRANCH   7   9
BRANCH   3  15
ATOM     14  C   UNL     1       3.691   1.717  18.029  0.00  0.00    +0.000 C 
ATOM     15  C   UNL     1       2.663   2.800  17.686  0.00  0.00    +0.000 C 
BRANCH  15  16
ATOM     16  C   UNL     1       1.344   2.474  18.369  0.00  0.00    +0.000 C 
ATOM     17  N   UNL     1       0.250   2.204  18.935  0.00  0.00    +0.000 NA
ENDBRANCH  15  16
ENDBRANCH   3  15
ENDBRANCH   1   5
BRANCH   1  18
ATOM     18  O   UNL     1       2.113   8.335  19.676  0.00  0.00    +0.000 OA
BRANCH  18  19
ATOM     19  C   UNL     1       0.904   9.045  19.307  0.00  0.00    +0.000 C 
ATOM     20  O   UNL     1       0.117   9.442  20.426  0.00  0.00    +0.000 OA
ATOM     21  C   UNL     1       0.679  10.503  21.188  0.00  0.00    +0.000 C 
ATOM     22  C   UNL     1       1.042  11.727  20.319  0.00  0.00    +0.000 C 
ATOM     23  C   UNL     1       1.675  11.426  18.930  0.00  0.00    +0.000 C 
ATOM     24  C   UNL     1       1.053  10.190  18.287  0.00  0.00    +0.000 C 
BRANCH  21  25
ATOM     25  C   UNL     1      -0.212  10.874  22.387  0.00  0.00    +0.000 C 
ATOM     26  O   UNL     1      -0.237  10.243  23.436  0.00  0.00    +0.000 OA
BRANCH  25  27
ATOM     27  O   UNL     1      -0.886  12.043  22.250  0.00  0.00    +0.000 OA
ATOM     28  H   UNL     1      -0.820  12.640  23.035  0.00  0.00    +0.000 HD
ENDBRANCH  25  27
ENDBRANCH  21  25
BRANCH  22  29
ATOM     29  O   UNL     1       1.925  12.552  21.105  0.00  0.00    +0.000 OA
ATOM     30  H   UNL     1       2.374  13.160  20.473  0.00  0.00    +0.000 HD
ENDBRANCH  22  29
BRANCH  23  31
ATOM     31  O   UNL     1       1.574  12.581  18.077  0.00  0.00    +0.000 OA
ATOM     32  H   UNL     1       1.824  12.338  17.172  0.00  0.00    +0.000 HD
ENDBRANCH  23  31
BRANCH  24  33
ATOM     33  O   UNL     1       1.768   9.751  17.127  0.00  0.00    +0.000 OA
ATOM     34  H   UNL     1       1.124   9.485  16.449  0.00  0.00    +0.000 HD
ENDBRANCH  24  33
ENDBRANCH  18  19
ENDBRANCH   1  18
TORSDOF 12
ENDMDL
