MODEL 1
REMARK VINA RESULT:      -8.1      0.000      0.000
REMARK  Name = 
REMARK  8 active torsions:
REMARK  status: ('A' for Active; 'I' for Inactive)
REMARK    1  A    between atoms: C_2  and  O_3
REMARK    2  A    between atoms: C_2  and  C_4
REMARK    3  A    between atoms: N_6  and  C_7
REMARK    4  A    between atoms: C_12  and  C_14
REMARK    5  A    between atoms: C_14  and  C_15
REMARK    6  A    between atoms: C_14  and  N_21
REMARK    7  A    between atoms: C_15  and  C_16
REMARK    8  A    between atoms: C_24  and  C_25
REMARK                            x       y       z     vdW  Elec       q    Type
REMARK                         _______ _______ _______ _____ _____    ______ ____
ROOT
ATOM      1  C   UNL     1       8.701   9.295  18.761  0.00  0.00    +0.000 A 
ATOM      2  C   UNL     1       7.849   9.533  17.688  0.00  0.00    +0.000 A 
ATOM      3  C   UNL     1       7.149   8.478  17.116  0.00  0.00    +0.000 A 
ATOM      4  C   UNL     1       7.313   7.201  17.638  0.00  0.00    +0.000 A 
ATOM      5  N   UNL     1       6.549   6.185  17.066  0.00  0.00    +0.000 N 
ATOM      6  C   UNL     1       6.476   4.884  17.540  0.00  0.00    +0.000 C 
ATOM      7  O   UNL     1       7.174   4.394  18.419  0.00  0.00    +0.000 OA
ATOM      8  N   UNL     1       8.137   6.946  18.662  0.00  0.00    +0.000 NA
ATOM      9  C   UNL     1       8.823   7.980  19.195  0.00  0.00    +0.000 A 
ATOM     10  H   UNL     1       5.963   6.457  16.292  0.00  0.00    +0.000 HD
ENDROOT
BRANCH   1  13
ATOM     11  C   UNL     1      10.307  11.173  18.821  0.00  0.00    +0.000 C 
ATOM     12  O   UNL     1      10.625  11.286  17.643  0.00  0.00    +0.000 OA
ATOM     13  N   UNL     1       9.425  10.301  19.416  0.00  0.00    +0.000 N 
ATOM     14  H   UNL     1       9.229  10.475  20.400  0.00  0.00    +0.000 HD
BRANCH  11  16
ATOM     15  O   UNL     1      11.489  13.190  19.427  0.00  0.00    +0.000 OA
ATOM     16  C   UNL     1      10.916  12.184  19.801  0.00  0.00    +0.000 C 
BRANCH  16  17
ATOM     17  O   UNL     1      10.738  11.780  21.070  0.00  0.00    +0.000 OA
ATOM     18  H   UNL     1      11.618  11.551  21.454  0.00  0.00    +0.000 HD
ENDBRANCH  16  17
ENDBRANCH  11  16
ENDBRANCH   1  13
BRANCH   6  19
ATOM     19  C   UNL     1       5.371   4.092  16.835  0.00  0.00    +0.000 C 
BRANCH  19  20
ATOM     20  N   UNL     1       4.139   4.050  17.616  0.00  0.00    +0.000 N 
ATOM     21  C   UNL     1       3.011   3.339  17.317  0.00  0.00    +0.000 A 
ATOM     22  N   UNL     1       2.109   3.449  18.265  0.00  0.00    +0.000 NA
ATOM     23  C   UNL     1       2.650   4.310  19.209  0.00  0.00    +0.000 A 
ATOM     24  C   UNL     1       3.926   4.681  18.812  0.00  0.00    +0.000 A 
BRANCH  23  25
ATOM     25  C   UNL     1       1.911   4.729  20.448  0.00  0.00    +0.000 C 
ATOM     26  F   UNL     1       0.601   4.364  20.445  0.00  0.00    +0.000 F 
ATOM     27  F   UNL     1       2.463   4.188  21.567  0.00  0.00    +0.000 F 
ATOM     28  F   UNL     1       1.942   6.077  20.619  0.00  0.00    +0.000 F 
ENDBRANCH  23  25
ENDBRANCH  19  20
BRANCH  19  29
ATOM     29  C   UNL     1       5.150   4.653  15.412  0.00  0.00    +0.000 C 
BRANCH  29  30
ATOM     30  C   UNL     1       5.975   3.962  14.330  0.00  0.00    +0.000 C 
ATOM     31  C   UNL     1       5.125   3.594  13.116  0.00  0.00    +0.000 C 
ATOM     32  C   UNL     1       6.163   3.293  12.047  0.00  0.00    +0.000 C 
ATOM     33  C   UNL     1       7.348   4.209  12.357  0.00  0.00    +0.000 C 
ATOM     34  C   UNL     1       7.053   4.850  13.709  0.00  0.00    +0.000 C 
ENDBRANCH  29  30
ENDBRANCH  19  29
ENDBRANCH   6  19
TORSDOF 8
ENDMDL
MODEL 2
REMARK VINA RESULT:      -8.0      6.473      7.759
REMARK  Name = 
REMARK  8 active torsions:
REMARK  status: ('A' for Active; 'I' for Inactive)
REMARK    1  A    between atoms: C_2  and  O_3
REMARK    2  A    between atoms: C_2  and  C_4
REMARK    3  A    between atoms: N_6  and  C_7
REMARK    4  A    between atoms: C_12  and  C_14
REMARK    5  A    between atoms: C_14  and  C_15
REMARK    6  A    between atoms: C_14  and  N_21
REMARK    7  A    between atoms: C_15  and  C_16
REMARK    8  A    between atoms: C_24  and  C_25
REMARK                            x       y       z     vdW  Elec       q    Type
REMARK                         _______ _______ _______ _____ _____    ______ ____
ROOT
ATOM      1  C   UNL     1      -0.664  11.629  20.441  0.00  0.00    +0.000 A 
ATOM      2  C   UNL     1      -0.385  10.666  21.405  0.00  0.00    +0.000 A 
ATOM      3  C   UNL     1       0.389   9.561  21.072  0.00  0.00    +0.000 A 
ATOM      4  C   UNL     1       0.877   9.448  19.777  0.00  0.00    +0.000 A 
ATOM      5  N   UNL     1       1.693   8.351  19.506  0.00  0.00    +0.000 N 
ATOM      6  C   UNL     1       2.378   8.145  18.318  0.00  0.00    +0.000 C 
ATOM      7  O   UNL     1       2.253   8.796  17.288  0.00  0.00    +0.000 OA
ATOM      8  N   UNL     1       0.611  10.356  18.829  0.00  0.00    +0.000 NA
ATOM      9  C   UNL     1      -0.158  11.414  19.165  0.00  0.00    +0.000 A 
ATOM     10  H   UNL     1       1.835   7.708  20.270  0.00  0.00    +0.000 HD
ENDROOT
BRANCH   1  13
ATOM     11  C   UNL     1      -2.731  12.982  20.351  0.00  0.00    +0.000 C 
ATOM     12  O   UNL     1      -3.519  12.222  19.801  0.00  0.00    +0.000 OA
ATOM     13  N   UNL     1      -1.414  12.786  20.694  0.00  0.00    +0.000 N 
ATOM     14  H   UNL     1      -0.991  13.522  21.257  0.00  0.00    +0.000 HD
BRANCH  11  16
ATOM     15  O   UNL     1      -4.278  14.450  21.483  0.00  0.00    +0.000 OA
ATOM     16  C   UNL     1      -3.280  14.343  20.797  0.00  0.00    +0.000 C 
BRANCH  16  17
ATOM     17  O   UNL     1      -2.525  15.342  20.308  0.00  0.00    +0.000 OA
ATOM     18  H   UNL     1      -2.106  15.819  21.064  0.00  0.00    +0.000 HD
ENDBRANCH  16  17
ENDBRANCH  11  16
ENDBRANCH   1  13
BRANCH   6  19
ATOM     19  C   UNL     1       3.365   6.981  18.435  0.00  0.00    +0.000 C 
BRANCH  19  20
ATOM     20  N   UNL     1       2.693   5.714  18.709  0.00  0.00    +0.000 N 
ATOM     21  C   UNL     1       1.815   5.067  17.886  0.00  0.00    +0.000 A 
ATOM     22  N   UNL     1       1.452   3.909  18.389  0.00  0.00    +0.000 NA
ATOM     23  C   UNL     1       2.083   3.812  19.621  0.00  0.00    +0.000 A 
ATOM     24  C   UNL     1       2.869   4.937  19.821  0.00  0.00    +0.000 A 
BRANCH  23  25
ATOM     25  C   UNL     1       1.898   2.640  20.542  0.00  0.00    +0.000 C 
ATOM     26  F   UNL     1       0.880   2.804  21.428  0.00  0.00    +0.000 F 
ATOM     27  F   UNL     1       1.633   1.499  19.851  0.00  0.00    +0.000 F 
ATOM     28  F   UNL     1       3.018   2.394  21.273  0.00  0.00    +0.000 F 
ENDBRANCH  23  25
ENDBRANCH  19  20
BRANCH  19  29
ATOM     29  C   UNL     1       4.254   6.916  17.173  0.00  0.00    +0.000 C 
BRANCH  29  30
ATOM     30  C   UNL     1       5.111   5.657  17.072  0.00  0.00    +0.000 C 
ATOM     31  C   UNL     1       5.518   5.361  15.631  0.00  0.00    +0.000 C 
ATOM     32  C   UNL     1       6.639   4.347  15.790  0.00  0.00    +0.000 C 
ATOM     33  C   UNL     1       7.332   4.706  17.106  0.00  0.00    +0.000 C 
ATOM     34  C   UNL     1       6.466   5.770  17.770  0.00  0.00    +0.000 C 
ENDBRANCH  29  30
ENDBRANCH  19  29
ENDBRANCH   6  19
TORSDOF 8
ENDMDL
MODEL 3
REMARK VINA RESULT:      -8.0      6.024      7.185
REMARK  Name = 
REMARK  8 active torsions:
REMARK  status: ('A' for Active; 'I' for Inactive)
REMARK    1  A    between atoms: C_2  and  O_3
REMARK    2  A    between atoms: C_2  and  C_4
REMARK    3  A    between atoms: N_6  and  C_7
REMARK    4  A    between atoms: C_12  and  C_14
REMARK    5  A    between atoms: C_14  and  C_15
REMARK    6  A    between atoms: C_14  and  N_21
REMARK    7  A    between atoms: C_15  and  C_16
REMARK    8  A    between atoms: C_24  and  C_25
REMARK                            x       y       z     vdW  Elec       q    Type
REMARK                         _______ _______ _______ _____ _____    ______ ____
ROOT
ATOM      1  C   UNL     1      -0.378  11.344  21.134  0.00  0.00    +0.000 A 
ATOM      2  C   UNL     1      -0.095  10.255  21.953  0.00  0.00    +0.000 A 
ATOM      3  C   UNL     1       0.620   9.178  21.443  0.00  0.00    +0.000 A 
ATOM      4  C   UNL     1       1.043   9.217  20.121  0.00  0.00    +0.000 A 
ATOM      5  N   UNL     1       1.803   8.138  19.672  0.00  0.00    +0.000 N 
ATOM      6  C   UNL     1       2.425   8.065  18.434  0.00  0.00    +0.000 C 
ATOM      7  O   UNL     1       2.279   8.848  17.504  0.00  0.00    +0.000 OA
ATOM      8  N   UNL     1       0.771  10.248  19.311  0.00  0.00    +0.000 NA
ATOM      9  C   UNL     1       0.060  11.279  19.818  0.00  0.00    +0.000 A 
ATOM     10  H   UNL     1       1.953   7.397  20.339  0.00  0.00    +0.000 HD
ENDROOT
BRANCH   1  13
ATOM     11  C   UNL     1      -0.499  13.614  22.106  0.00  0.00    +0.000 C 
ATOM     12  O   UNL     1       0.682  13.885  22.290  0.00  0.00    +0.000 OA
ATOM     13  N   UNL     1      -1.070  12.483  21.570  0.00  0.00    +0.000 N 
ATOM     14  H   UNL     1      -2.074  12.532  21.403  0.00  0.00    +0.000 HD
BRANCH  11  16
ATOM     15  O   UNL     1      -1.321  15.881  22.225  0.00  0.00    +0.000 OA
ATOM     16  C   UNL     1      -1.520  14.703  22.455  0.00  0.00    +0.000 C 
BRANCH  16  17
ATOM     17  O   UNL     1      -2.603  14.167  23.046  0.00  0.00    +0.000 OA
ATOM     18  H   UNL     1      -3.329  14.110  22.380  0.00  0.00    +0.000 HD
ENDBRANCH  16  17
ENDBRANCH  11  16
ENDBRANCH   1  13
BRANCH   6  19
ATOM     19  C   UNL     1       3.370   6.863  18.352  0.00  0.00    +0.000 C 
BRANCH  19  20
ATOM     20  N   UNL     1       2.692   5.608  18.664  0.00  0.00    +0.000 N 
ATOM     21  C   UNL     1       1.791   4.954  17.872  0.00  0.00    +0.000 A 
ATOM     22  N   UNL     1       1.428   3.808  18.403  0.00  0.00    +0.000 NA
ATOM     23  C   UNL     1       2.085   3.729  19.623  0.00  0.00    +0.000 A 
ATOM     24  C   UNL     1       2.886   4.849  19.785  0.00  0.00    +0.000 A 
BRANCH  23  25
ATOM     25  C   UNL     1       1.910   2.575  20.569  0.00  0.00    +0.000 C 
ATOM     26  F   UNL     1       0.887   2.747  21.447  0.00  0.00    +0.000 F 
ATOM     27  F   UNL     1       1.660   1.416  19.902  0.00  0.00    +0.000 F 
ATOM     28  F   UNL     1       3.029   2.357  21.309  0.00  0.00    +0.000 F 
ENDBRANCH  23  25
ENDBRANCH  19  20
BRANCH  19  29
ATOM     29  C   UNL     1       4.063   6.833  16.972  0.00  0.00    +0.000 C 
BRANCH  29  30
ATOM     30  C   UNL     1       4.954   5.615  16.743  0.00  0.00    +0.000 C 
ATOM     31  C   UNL     1       5.574   5.619  15.348  0.00  0.00    +0.000 C 
ATOM     32  C   UNL     1       6.682   4.585  15.461  0.00  0.00    +0.000 C 
ATOM     33  C   UNL     1       7.168   4.660  16.909  0.00  0.00    +0.000 C 
ATOM     34  C   UNL     1       6.190   5.572  17.642  0.00  0.00    +0.000 C 
ENDBRANCH  29  30
ENDBRANCH  19  29
ENDBRANCH   6  19
TORSDOF 8
ENDMDL
MODEL 4
REMARK VINA RESULT:      -8.0      6.162      7.939
REMARK  Name = 
REMARK  8 active torsions:
REMARK  status: ('A' for Active; 'I' for Inactive)
REMARK    1  A    between atoms: C_2  and  O_3
REMARK    2  A    between atoms: C_2  and  C_4
REMARK    3  A    between atoms: N_6  and  C_7
REMARK    4  A    between atoms: C_12  and  C_14
REMARK    5  A    between atoms: C_14  and  C_15
REMARK    6  A    between atoms: C_14  and  N_21
REMARK    7  A    between atoms: C_15  and  C_16
REMARK    8  A    between atoms: C_24  and  C_25
REMARK                            x       y       z     vdW  Elec       q    Type
REMARK                         _______ _______ _______ _____ _____    ______ ____
ROOT
ATOM      1  C   UNL     1       0.411  11.852  20.548  0.00  0.00    +0.000 A 
ATOM      2  C   UNL     1       0.322  10.772  21.421  0.00  0.00    +0.000 A 
ATOM      3  C   UNL     1       0.728   9.511  21.000  0.00  0.00    +0.000 A 
ATOM      4  C   UNL     1       1.223   9.360  19.711  0.00  0.00    +0.000 A 
ATOM      5  N   UNL     1       1.668   8.088  19.354  0.00  0.00    +0.000 N 
ATOM      6  C   UNL     1       2.317   7.777  18.168  0.00  0.00    +0.000 C 
ATOM      7  O   UNL     1       2.457   8.520  17.205  0.00  0.00    +0.000 OA
ATOM      8  N   UNL     1       1.307  10.382  18.851  0.00  0.00    +0.000 NA
ATOM      9  C   UNL     1       0.892  11.597  19.270  0.00  0.00    +0.000 A 
ATOM     10  H   UNL     1       1.560   7.370  20.055  0.00  0.00    +0.000 HD
ENDROOT
BRANCH   1  13
ATOM     11  C   UNL     1       0.849  14.069  21.552  0.00  0.00    +0.000 C 
ATOM     12  O   UNL     1       2.006  13.959  21.939  0.00  0.00    +0.000 OA
ATOM     13  N   UNL     1       0.050  13.161  20.896  0.00  0.00    +0.000 N 
ATOM     14  H   UNL     1      -0.844  13.520  20.564  0.00  0.00    +0.000 HD
BRANCH  11  16
ATOM     15  O   UNL     1      -0.324  15.760  22.815  0.00  0.00    +0.000 OA
ATOM     16  C   UNL     1       0.178  15.432  21.757  0.00  0.00    +0.000 C 
BRANCH  16  17
ATOM     17  O   UNL     1       0.216  16.155  20.624  0.00  0.00    +0.000 OA
ATOM     18  H   UNL     1      -0.205  15.630  19.901  0.00  0.00    +0.000 HD
ENDBRANCH  16  17
ENDBRANCH  11  16
ENDBRANCH   1  13
BRANCH   6  19
ATOM     19  C   UNL     1       2.881   6.354  18.195  0.00  0.00    +0.000 C 
BRANCH  19  20
ATOM     20  N   UNL     1       4.118   6.238  17.428  0.00  0.00    +0.000 N 
ATOM     21  C   UNL     1       5.048   7.220  17.236  0.00  0.00    +0.000 A 
ATOM     22  N   UNL     1       6.088   6.772  16.569  0.00  0.00    +0.000 NA
ATOM     23  C   UNL     1       5.806   5.446  16.269  0.00  0.00    +0.000 A 
ATOM     24  C   UNL     1       4.577   5.105  16.814  0.00  0.00    +0.000 A 
BRANCH  23  25
ATOM     25  C   UNL     1       6.736   4.576  15.474  0.00  0.00    +0.000 C 
ATOM     26  F   UNL     1       7.269   5.201  14.391  0.00  0.00    +0.000 F 
ATOM     27  F   UNL     1       7.783   4.144  16.228  0.00  0.00    +0.000 F 
ATOM     28  F   UNL     1       6.111   3.460  15.014  0.00  0.00    +0.000 F 
ENDBRANCH  23  25
ENDBRANCH  19  20
BRANCH  19  29
ATOM     29  C   UNL     1       3.045   5.881  19.656  0.00  0.00    +0.000 C 
BRANCH  29  30
ATOM     30  C   UNL     1       2.623   4.434  19.899  0.00  0.00    +0.000 C 
ATOM     31  C   UNL     1       2.106   4.224  21.319  0.00  0.00    +0.000 C 
ATOM     32  C   UNL     1       1.402   2.880  21.234  0.00  0.00    +0.000 C 
ATOM     33  C   UNL     1       0.850   2.795  19.811  0.00  0.00    +0.000 C 
ATOM     34  C   UNL     1       1.431   3.984  19.054  0.00  0.00    +0.000 C 
ENDBRANCH  29  30
ENDBRANCH  19  29
ENDBRANCH   6  19
TORSDOF 8
ENDMDL
MODEL 5
REMARK VINA RESULT:      -7.9      6.037      7.882
REMARK  Name = 
REMARK  8 active torsions:
REMARK  status: ('A' for Active; 'I' for Inactive)
REMARK    1  A    between atoms: C_2  and  O_3
REMARK    2  A    between atoms: C_2  and  C_4
REMARK    3  A    between atoms: N_6  and  C_7
REMARK    4  A    between atoms: C_12  and  C_14
REMARK    5  A    between atoms: C_14  and  C_15
REMARK    6  A    between atoms: C_14  and  N_21
REMARK    7  A    between atoms: C_15  and  C_16
REMARK    8  A    between atoms: C_24  and  C_25
REMARK                            x       y       z     vdW  Elec       q    Type
REMARK                         _______ _______ _______ _____ _____    ______ ____
ROOT
ATOM      1  C   UNL     1       0.442  11.232  20.964  0.00  0.00    +0.000 A 
ATOM      2  C   UNL     1       0.490  10.117  21.794  0.00  0.00    +0.000 A 
ATOM      3  C   UNL     1       0.948   8.904  21.292  0.00  0.00    +0.000 A 
ATOM      4  C   UNL     1       1.356   8.837  19.966  0.00  0.00    +0.000 A 
ATOM      5  N   UNL     1       1.858   7.614  19.525  0.00  0.00    +0.000 N 
ATOM      6  C   UNL     1       2.437   7.394  18.283  0.00  0.00    +0.000 C 
ATOM      7  O   UNL     1       2.455   8.180  17.345  0.00  0.00    +0.000 OA
ATOM      8  N   UNL     1       1.307   9.894  19.146  0.00  0.00    +0.000 NA
ATOM      9  C   UNL     1       0.843  11.060  19.645  0.00  0.00    +0.000 A 
ATOM     10  H   UNL     1       1.850   6.865  20.200  0.00  0.00    +0.000 HD
ENDROOT
BRANCH   1  13
ATOM     11  C   UNL     1       0.837  13.575  21.646  0.00  0.00    +0.000 C 
ATOM     12  O   UNL     1       2.053  13.680  21.538  0.00  0.00    +0.000 OA
ATOM     13  N   UNL     1       0.019  12.499  21.391  0.00  0.00    +0.000 N 
ATOM     14  H   UNL     1      -0.981  12.685  21.437  0.00  0.00    +0.000 HD
BRANCH  11  16
ATOM     15  O   UNL     1       0.044  15.840  21.382  0.00  0.00    +0.000 OA
ATOM     16  C   UNL     1       0.069  14.835  22.066  0.00  0.00    +0.000 C 
BRANCH  16  17
ATOM     17  O   UNL     1      -0.518  14.657  23.262  0.00  0.00    +0.000 OA
ATOM     18  H   UNL     1       0.184  14.500  23.937  0.00  0.00    +0.000 HD
ENDBRANCH  16  17
ENDBRANCH  11  16
ENDBRANCH   1  13
BRANCH   6  19
ATOM     19  C   UNL     1       3.097   6.014  18.209  0.00  0.00    +0.000 C 
BRANCH  19  20
ATOM     20  N   UNL     1       4.189   5.977  17.241  0.00  0.00    +0.000 N 
ATOM     21  C   UNL     1       5.173   6.913  17.091  0.00  0.00    +0.000 A 
ATOM     22  N   UNL     1       6.052   6.544  16.187  0.00  0.00    +0.000 NA
ATOM     23  C   UNL     1       5.598   5.332  15.686  0.00  0.00    +0.000 A 
ATOM     24  C   UNL     1       4.437   4.969  16.350  0.00  0.00    +0.000 A 
BRANCH  23  25
ATOM     25  C   UNL     1       6.309   4.585  14.594  0.00  0.00    +0.000 C 
ATOM     26  F   UNL     1       6.918   3.448  15.024  0.00  0.00    +0.000 F 
ATOM     27  F   UNL     1       5.454   4.217  13.602  0.00  0.00    +0.000 F 
ATOM     28  F   UNL     1       7.270   5.347  14.008  0.00  0.00    +0.000 F 
ENDBRANCH  23  25
ENDBRANCH  19  20
BRANCH  19  29
ATOM     29  C   UNL     1       3.543   5.569  19.620  0.00  0.00    +0.000 C 
BRANCH  29  30
ATOM     30  C   UNL     1       2.999   4.209  20.050  0.00  0.00    +0.000 C 
ATOM     31  C   UNL     1       1.990   4.335  21.188  0.00  0.00    +0.000 C 
ATOM     32  C   UNL     1       1.308   2.977  21.197  0.00  0.00    +0.000 C 
ATOM     33  C   UNL     1       1.311   2.508  19.741  0.00  0.00    +0.000 C 
ATOM     34  C   UNL     1       2.179   3.498  18.973  0.00  0.00    +0.000 C 
ENDBRANCH  29  30
ENDBRANCH  19  29
ENDBRANCH   6  19
TORSDOF 8
ENDMDL
MODEL 6
REMARK VINA RESULT:      -7.9      6.339      8.343
REMARK  Name = 
REMARK  8 active torsions:
REMARK  status: ('A' for Active; 'I' for Inactive)
REMARK    1  A    between atoms: C_2  and  O_3
REMARK    2  A    between atoms: C_2  and  C_4
REMARK    3  A    between atoms: N_6  and  C_7
REMARK    4  A    between atoms: C_12  and  C_14
REMARK    5  A    between atoms: C_14  and  C_15
REMARK    6  A    between atoms: C_14  and  N_21
REMARK    7  A    between atoms: C_15  and  C_16
REMARK    8  A    between atoms: C_24  and  C_25
REMARK                            x       y       z     vdW  Elec       q    Type
REMARK                         _______ _______ _______ _____ _____    ______ ____
ROOT
ATOM      1  C   UNL     1       0.449  11.064  21.273  0.00  0.00    +0.000 A 
ATOM      2  C   UNL     1       0.490   9.918  22.061  0.00  0.00    +0.000 A 
ATOM      3  C   UNL     1       0.942   8.723  21.514  0.00  0.00    +0.000 A 
ATOM      4  C   UNL     1       1.351   8.702  20.187  0.00  0.00    +0.000 A 
ATOM      5  N   UNL     1       1.847   7.494  19.701  0.00  0.00    +0.000 N 
ATOM      6  C   UNL     1       2.426   7.318  18.453  0.00  0.00    +0.000 C 
ATOM      7  O   UNL     1       2.450   8.138  17.544  0.00  0.00    +0.000 OA
ATOM      8  N   UNL     1       1.308   9.790  19.407  0.00  0.00    +0.000 NA
ATOM      9  C   UNL     1       0.850  10.939  19.949  0.00  0.00    +0.000 A 
ATOM     10  H   UNL     1       1.834   6.720  20.348  0.00  0.00    +0.000 HD
ENDROOT
BRANCH   1  13
ATOM     11  C   UNL     1      -1.247  12.816  21.682  0.00  0.00    +0.000 C 
ATOM     12  O   UNL     1      -2.269  12.300  21.245  0.00  0.00    +0.000 OA
ATOM     13  N   UNL     1       0.033  12.316  21.747  0.00  0.00    +0.000 N 
ATOM     14  H   UNL     1       0.702  12.883  22.267  0.00  0.00    +0.000 HD
BRANCH  11  16
ATOM     15  O   UNL     1      -0.450  14.792  22.817  0.00  0.00    +0.000 OA
ATOM     16  C   UNL     1      -1.391  14.203  22.319  0.00  0.00    +0.000 C 
BRANCH  16  17
ATOM     17  O   UNL     1      -2.666  14.624  22.259  0.00  0.00    +0.000 OA
ATOM     18  H   UNL     1      -2.680  15.604  22.376  0.00  0.00    +0.000 HD
ENDBRANCH  16  17
ENDBRANCH  11  16
ENDBRANCH   1  13
BRANCH   6  19
ATOM     19  C   UNL     1       3.078   5.938  18.327  0.00  0.00    +0.000 C 
BRANCH  19  20
ATOM     20  N   UNL     1       4.168   5.931  17.357  0.00  0.00    +0.000 N 
ATOM     21  C   UNL     1       5.117   6.900  17.195  0.00  0.00    +0.000 A 
ATOM     22  N   UNL     1       6.008   6.554  16.293  0.00  0.00    +0.000 NA
ATOM     23  C   UNL     1       5.598   5.320  15.806  0.00  0.00    +0.000 A 
ATOM     24  C   UNL     1       4.452   4.922  16.477  0.00  0.00    +0.000 A 
BRANCH  23  25
ATOM     25  C   UNL     1       6.333   4.588  14.720  0.00  0.00    +0.000 C 
ATOM     26  F   UNL     1       5.594   4.407  13.594  0.00  0.00    +0.000 F 
ATOM     27  F   UNL     1       7.460   5.252  14.345  0.00  0.00    +0.000 F 
ATOM     28  F   UNL     1       6.734   3.355  15.129  0.00  0.00    +0.000 F 
ENDBRANCH  23  25
ENDBRANCH  19  20
BRANCH  19  29
ATOM     29  C   UNL     1       3.523   5.439  19.720  0.00  0.00    +0.000 C 
BRANCH  29  30
ATOM     30  C   UNL     1       2.979   4.064  20.098  0.00  0.00    +0.000 C 
ATOM     31  C   UNL     1       2.147   4.115  21.376  0.00  0.00    +0.000 C 
ATOM     32  C   UNL     1       1.406   2.787  21.358  0.00  0.00    +0.000 C 
ATOM     33  C   UNL     1       1.182   2.462  19.881  0.00  0.00    +0.000 C 
ATOM     34  C   UNL     1       1.983   3.491  19.090  0.00  0.00    +0.000 C 
ENDBRANCH  29  30
ENDBRANCH  19  29
ENDBRANCH   6  19
TORSDOF 8
ENDMDL
MODEL 7
REMARK VINA RESULT:      -7.8      6.615     10.001
REMARK  Name = 
REMARK  8 active torsions:
REMARK  status: ('A' for Active; 'I' for Inactive)
REMARK    1  A    between atoms: C_2  and  O_3
REMARK    2  A    between atoms: C_2  and  C_4
REMARK    3  A    between atoms: N_6  and  C_7
REMARK    4  A    between atoms: C_12  and  C_14
REMARK    5  A    between atoms: C_14  and  C_15
REMARK    6  A    between atoms: C_14  and  N_21
REMARK    7  A    between atoms: C_15  and  C_16
REMARK    8  A    between atoms: C_24  and  C_25
REMARK                            x       y       z     vdW  Elec       q    Type
REMARK                         _______ _______ _______ _____ _____    ______ ____
ROOT
ATOM      1  C   UNL     1       3.100   6.208  19.059  0.00  0.00    +0.000 A 
ATOM      2  C   UNL     1       3.147   7.000  17.916  0.00  0.00    +0.000 A 
ATOM      3  C   UNL     1       2.471   8.214  17.892  0.00  0.00    +0.000 A 
ATOM      4  C   UNL     1       1.766   8.614  19.020  0.00  0.00    +0.000 A 
ATOM      5  N   UNL     1       1.150   9.863  18.966  0.00  0.00    +0.000 N 
ATOM      6  C   UNL     1       0.523  10.487  20.035  0.00  0.00    +0.000 C 
ATOM      7  O   UNL     1       0.279   9.983  21.124  0.00  0.00    +0.000 OA
ATOM      8  N   UNL     1       1.697   7.863  20.126  0.00  0.00    +0.000 NA
ATOM      9  C   UNL     1       2.345   6.678  20.127  0.00  0.00    +0.000 A 
ATOM     10  H   UNL     1       1.239  10.362  18.093  0.00  0.00    +0.000 HD
ENDROOT
BRANCH   1  13
ATOM     11  C   UNL     1       3.190   3.738  19.122  0.00  0.00    +0.000 C 
ATOM     12  O   UNL     1       2.021   3.427  18.929  0.00  0.00    +0.000 OA
ATOM     13  N   UNL     1       3.771   4.983  19.182  0.00  0.00    +0.000 N 
ATOM     14  H   UNL     1       4.789   4.993  19.232  0.00  0.00    +0.000 HD
BRANCH  11  16
ATOM     15  O   UNL     1       4.797   2.367  20.291  0.00  0.00    +0.000 OA
ATOM     16  C   UNL     1       4.197   2.590  19.256  0.00  0.00    +0.000 C 
BRANCH  16  17
ATOM     17  O   UNL     1       4.316   1.924  18.095  0.00  0.00    +0.000 OA
ATOM     18  H   UNL     1       5.271   1.893  17.846  0.00  0.00    +0.000 HD
ENDBRANCH  16  17
ENDBRANCH  11  16
ENDBRANCH   1  13
BRANCH   6  19
ATOM     19  C   UNL     1       0.167  11.939  19.706  0.00  0.00    +0.000 C 
BRANCH  19  20
ATOM     20  N   UNL     1       1.346  12.798  19.659  0.00  0.00    +0.000 N 
ATOM     21  C   UNL     1       2.097  13.205  20.725  0.00  0.00    +0.000 A 
ATOM     22  N   UNL     1       3.141  13.903  20.339  0.00  0.00    +0.000 NA
ATOM     23  C   UNL     1       3.044  14.000  18.957  0.00  0.00    +0.000 A 
ATOM     24  C   UNL     1       1.927  13.301  18.527  0.00  0.00    +0.000 A 
BRANCH  23  25
ATOM     25  C   UNL     1       4.036  14.760  18.124  0.00  0.00    +0.000 C 
ATOM     26  F   UNL     1       3.492  15.310  17.005  0.00  0.00    +0.000 F 
ATOM     27  F   UNL     1       4.600  15.780  18.825  0.00  0.00    +0.000 F 
ATOM     28  F   UNL     1       5.060  13.966  17.712  0.00  0.00    +0.000 F 
ENDBRANCH  23  25
ENDBRANCH  19  20
BRANCH  19  29
ATOM     29  C   UNL     1      -0.657  11.995  18.401  0.00  0.00    +0.000 C 
BRANCH  29  30
ATOM     30  C   UNL     1      -1.849  11.042  18.369  0.00  0.00    +0.000 C 
ATOM     31  C   UNL     1      -3.174  11.792  18.263  0.00  0.00    +0.000 C 
ATOM     32  C   UNL     1      -4.156  10.703  17.863  0.00  0.00    +0.000 C 
ATOM     33  C   UNL     1      -3.351   9.715  17.019  0.00  0.00    +0.000 C 
ATOM     34  C   UNL     1      -1.891  10.141  17.134  0.00  0.00    +0.000 C 
ENDBRANCH  29  30
ENDBRANCH  19  29
ENDBRANCH   6  19
TORSDOF 8
ENDMDL
MODEL 8
REMARK VINA RESULT:      -7.8      6.390      7.826
REMARK  Name = 
REMARK  8 active torsions:
REMARK  status: ('A' for Active; 'I' for Inactive)
REMARK    1  A    between atoms: C_2  and  O_3
REMARK    2  A    between atoms: C_2  and  C_4
REMARK    3  A    between atoms: N_6  and  C_7
REMARK    4  A    between atoms: C_12  and  C_14
REMARK    5  A    between atoms: C_14  and  C_15
REMARK    6  A    between atoms: C_14  and  N_21
REMARK    7  A    between atoms: C_15  and  C_16
REMARK    8  A    between atoms: C_24  and  C_25
REMARK                            x       y       z     vdW  Elec       q    Type
REMARK                         _______ _______ _______ _____ _____    ______ ____
ROOT
ATOM      1  C   UNL     1      -0.397  11.263  21.803  0.00  0.00    +0.000 A 
ATOM      2  C   UNL     1       0.015  10.202  22.602  0.00  0.00    +0.000 A 
ATOM      3  C   UNL     1       0.700   9.136  22.031  0.00  0.00    +0.000 A 
ATOM      4  C   UNL     1       0.963   9.159  20.667  0.00  0.00    +0.000 A 
ATOM      5  N   UNL     1       1.699   8.094  20.152  0.00  0.00    +0.000 N 
ATOM      6  C   UNL     1       2.174   8.012  18.851  0.00  0.00    +0.000 C 
ATOM      7  O   UNL     1       1.894   8.770  17.930  0.00  0.00    +0.000 OA
ATOM      8  N   UNL     1       0.565  10.164  19.877  0.00  0.00    +0.000 NA
ATOM      9  C   UNL     1      -0.114  11.184  20.445  0.00  0.00    +0.000 A 
ATOM     10  H   UNL     1       1.950   7.372  20.810  0.00  0.00    +0.000 HD
ENDROOT
BRANCH   1  13
ATOM     11  C   UNL     1      -2.201  12.374  23.078  0.00  0.00    +0.000 C 
ATOM     12  O   UNL     1      -2.833  11.423  23.523  0.00  0.00    +0.000 OA
ATOM     13  N   UNL     1      -1.069  12.391  22.297  0.00  0.00    +0.000 N 
ATOM     14  H   UNL     1      -0.648  13.307  22.149  0.00  0.00    +0.000 HD
BRANCH  11  16
ATOM     15  O   UNL     1      -2.228  14.357  24.455  0.00  0.00    +0.000 OA
ATOM     16  C   UNL     1      -2.677  13.773  23.488  0.00  0.00    +0.000 C 
BRANCH  16  17
ATOM     17  O   UNL     1      -3.638  14.210  22.655  0.00  0.00    +0.000 OA
ATOM     18  H   UNL     1      -4.517  13.963  23.032  0.00  0.00    +0.000 HD
ENDBRANCH  16  17
ENDBRANCH  11  16
ENDBRANCH   1  13
BRANCH   6  19
ATOM     19  C   UNL     1       3.140   6.837  18.680  0.00  0.00    +0.000 C 
BRANCH  19  20
ATOM     20  N   UNL     1       2.440   5.566  18.523  0.00  0.00    +0.000 N 
ATOM     21  C   UNL     1       1.573   5.236  17.521  0.00  0.00    +0.000 A 
ATOM     22  N   UNL     1       1.177   3.987  17.621  0.00  0.00    +0.000 NA
ATOM     23  C   UNL     1       1.775   3.488  18.770  0.00  0.00    +0.000 A 
ATOM     24  C   UNL     1       2.575   4.471  19.332  0.00  0.00    +0.000 A 
BRANCH  23  25
ATOM     25  C   UNL     1       1.547   2.089  19.265  0.00  0.00    +0.000 C 
ATOM     26  F   UNL     1       0.421   1.515  18.763  0.00  0.00    +0.000 F 
ATOM     27  F   UNL     1       2.581   1.268  18.938  0.00  0.00    +0.000 F 
ATOM     28  F   UNL     1       1.439   2.046  20.619  0.00  0.00    +0.000 F 
ENDBRANCH  23  25
ENDBRANCH  19  20
BRANCH  19  29
ATOM     29  C   UNL     1       4.113   7.123  17.514  0.00  0.00    +0.000 C 
BRANCH  29  30
ATOM     30  C   UNL     1       5.034   5.957  17.164  0.00  0.00    +0.000 C 
ATOM     31  C   UNL     1       5.377   5.931  15.677  0.00  0.00    +0.000 C 
ATOM     32  C   UNL     1       6.561   4.980  15.614  0.00  0.00    +0.000 C 
ATOM     33  C   UNL     1       7.304   5.160  16.938  0.00  0.00    +0.000 C 
ATOM     34  C   UNL     1       6.417   6.041  17.811  0.00  0.00    +0.000 C 
ENDBRANCH  29  30
ENDBRANCH  19  29
ENDBRANCH   6  19
TORSDOF 8
ENDMDL
MODEL 9
REMARK VINA RESULT:      -7.7      6.156      7.576
REMARK  Name = 
REMARK  8 active torsions:
REMARK  status: ('A' for Active; 'I' for Inactive)
REMARK    1  A    between atoms: C_2  and  O_3
REMARK    2  A    between atoms: C_2  and  C_4
REMARK    3  A    between atoms: N_6  and  C_7
REMARK    4  A    between atoms: C_12  and  C_14
REMARK    5  A    between atoms: C_14  and  C_15
REMARK    6  A    between atoms: C_14  and  N_21
REMARK    7  A    between atoms: C_15  and  C_16
REMARK    8  A    between atoms: C_24  and  C_25
REMARK                            x       y       z     vdW  Elec       q    Type
REMARK                         _______ _______ _______ _____ _____    ______ ____
ROOT
ATOM      1  C   UNL     1      -0.751  10.868  21.262  0.00  0.00    +0.000 A 
ATOM      2  C   UNL     1      -0.132   9.996  22.152  0.00  0.00    +0.000 A 
ATOM      3  C   UNL     1       0.745   9.030  21.672  0.00  0.00    +0.000 A 
ATOM      4  C   UNL     1       0.989   8.963  20.307  0.00  0.00    +0.000 A 
ATOM      5  N   UNL     1       1.917   8.014  19.881  0.00  0.00    +0.000 N 
ATOM      6  C   UNL     1       2.389   7.893  18.582  0.00  0.00    +0.000 C 
ATOM      7  O   UNL     1       1.960   8.482  17.598  0.00  0.00    +0.000 OA
ATOM      8  N   UNL     1       0.395   9.783  19.431  0.00  0.00    +0.000 NA
ATOM      9  C   UNL     1      -0.467  10.705  19.912  0.00  0.00    +0.000 A 
ATOM     10  H   UNL     1       2.310   7.427  20.601  0.00  0.00    +0.000 HD
ENDROOT
BRANCH   1  13
ATOM     11  C   UNL     1      -1.336  12.901  22.541  0.00  0.00    +0.000 C 
ATOM     12  O   UNL     1      -0.291  13.152  23.130  0.00  0.00    +0.000 OA
ATOM     13  N   UNL     1      -1.628  11.888  21.659  0.00  0.00    +0.000 N 
ATOM     14  H   UNL     1      -2.535  11.951  21.198  0.00  0.00    +0.000 HD
BRANCH  11  16
ATOM     15  O   UNL     1      -2.322  15.081  22.866  0.00  0.00    +0.000 OA
ATOM     16  C   UNL     1      -2.496  13.883  22.744  0.00  0.00    +0.000 C 
BRANCH  16  17
ATOM     17  O   UNL     1      -3.670  13.230  22.786  0.00  0.00    +0.000 OA
ATOM     18  H   UNL     1      -4.276  13.709  23.399  0.00  0.00    +0.000 HD
ENDBRANCH  16  17
ENDBRANCH  11  16
ENDBRANCH   1  13
BRANCH   6  19
ATOM     19  C   UNL     1       3.567   6.918  18.503  0.00  0.00    +0.000 C 
BRANCH  19  20
ATOM     20  N   UNL     1       3.187   5.562  18.891  0.00  0.00    +0.000 N 
ATOM     21  C   UNL     1       3.502   4.934  20.062  0.00  0.00    +0.000 A 
ATOM     22  N   UNL     1       2.938   3.750  20.138  0.00  0.00    +0.000 NA
ATOM     23  C   UNL     1       2.260   3.572  18.940  0.00  0.00    +0.000 A 
ATOM     24  C   UNL     1       2.405   4.709  18.160  0.00  0.00    +0.000 A 
BRANCH  23  25
ATOM     25  C   UNL     1       1.506   2.316  18.610  0.00  0.00    +0.000 C 
ATOM     26  F   UNL     1       0.170   2.514  18.449  0.00  0.00    +0.000 F 
ATOM     27  F   UNL     1       1.957   1.750  17.459  0.00  0.00    +0.000 F 
ATOM     28  F   UNL     1       1.648   1.375  19.581  0.00  0.00    +0.000 F 
ENDBRANCH  23  25
ENDBRANCH  19  20
BRANCH  19  29
ATOM     29  C   UNL     1       4.202   6.974  17.096  0.00  0.00    +0.000 C 
BRANCH  29  30
ATOM     30  C   UNL     1       5.056   5.759  16.744  0.00  0.00    +0.000 C 
ATOM     31  C   UNL     1       5.411   5.725  15.260  0.00  0.00    +0.000 C 
ATOM     32  C   UNL     1       6.539   4.707  15.198  0.00  0.00    +0.000 C 
ATOM     33  C   UNL     1       7.278   4.833  16.531  0.00  0.00    +0.000 C 
ATOM     34  C   UNL     1       6.435   5.757  17.404  0.00  0.00    +0.000 C 
ENDBRANCH  29  30
ENDBRANCH  19  29
ENDBRANCH   6  19
TORSDOF 8
ENDMDL
