MODEL 1
REMARK VINA RESULT:      -7.6      0.000      0.000
REMARK  Name = 
REMARK  4 active torsions:
REMARK  status: ('A' for Active; 'I' for Inactive)
REMARK    1  A    between atoms: C_1  and  C_2
REMARK    2  A    between atoms: C_3  and  N_4
REMARK    3  A    between atoms: N_17  and  C_18
REMARK    4  A    between atoms: N_24  and  C_25
REMARK                            x       y       z     vdW  Elec       q    Type
REMARK                         _______ _______ _______ _____ _____    ______ ____
ROOT
ATOM      1  C   UNL     1      -1.271   9.995  17.749  0.00  0.00    +0.000 C 
ATOM      2  C   UNL     1      -0.731  10.385  19.089  0.00  0.00    +0.000 A 
ATOM      3  C   UNL     1       0.395   9.955  19.695  0.00  0.00    +0.000 A 
ATOM      4  C   UNL     1       0.554  10.840  20.907  0.00  0.00    +0.000 A 
ATOM      5  O   UNL     1       1.436  10.730  21.741  0.00  0.00    +0.000 OA
ATOM      6  N   UNL     1      -0.541  11.716  20.893  0.00  0.00    +0.000 N 
ATOM      7  N   UNL     1      -1.402  11.349  19.849  0.00  0.00    +0.000 N 
ATOM      8  C   UNL     1      -2.394  12.283  19.332  0.00  0.00    +0.000 C 
ENDROOT
BRANCH   3   9
ATOM      9  N   UNL     1       1.280   8.958  19.374  0.00  0.00    +0.000 N 
ATOM     10  C   UNL     1       1.488   7.819  20.127  0.00  0.00    +0.000 C 
ATOM     11  O   UNL     1       1.071   7.498  21.212  0.00  0.00    +0.000 OA
ATOM     12  C   UNL     1       2.482   7.013  19.398  0.00  0.00    +0.000 A 
ATOM     13  C   UNL     1       3.030   5.776  19.691  0.00  0.00    +0.000 A 
ATOM     14  C   UNL     1       3.982   5.257  18.802  0.00  0.00    +0.000 A 
ATOM     15  C   UNL     1       4.375   5.985  17.663  0.00  0.00    +0.000 A 
ATOM     16  C   UNL     1       3.798   7.228  17.381  0.00  0.00    +0.000 A 
ATOM     17  C   UNL     1       2.844   7.711  18.265  0.00  0.00    +0.000 A 
ATOM     18  C   UNL     1       2.078   8.954  18.248  0.00  0.00    +0.000 C 
ATOM     19  O   UNL     1       2.184   9.772  17.349  0.00  0.00    +0.000 OA
ENDBRANCH   3   9
BRANCH   6  20
ATOM     20  C   UNL     1      -0.911  12.580  21.940  0.00  0.00    +0.000 A 
ATOM     21  C   UNL     1      -0.281  13.825  22.060  0.00  0.00    +0.000 A 
ATOM     22  C   UNL     1      -0.706  14.740  23.029  0.00  0.00    +0.000 A 
ATOM     23  C   UNL     1      -1.739  14.406  23.905  0.00  0.00    +0.000 A 
ATOM     24  C   UNL     1      -2.356  13.161  23.807  0.00  0.00    +0.000 A 
ATOM     25  C   UNL     1      -1.947  12.255  22.826  0.00  0.00    +0.000 A 
ENDBRANCH   6  20
TORSDOF 2
ENDMDL
MODEL 2
REMARK VINA RESULT:      -7.5      0.109      1.756
REMARK  Name = 
REMARK  4 active torsions:
REMARK  status: ('A' for Active; 'I' for Inactive)
REMARK    1  A    between atoms: C_1  and  C_2
REMARK    2  A    between atoms: C_3  and  N_4
REMARK    3  A    between atoms: N_17  and  C_18
REMARK    4  A    between atoms: N_24  and  C_25
REMARK                            x       y       z     vdW  Elec       q    Type
REMARK                         _______ _______ _______ _____ _____    ______ ____
ROOT
ATOM      1  C   UNL     1      -1.214   9.974  17.730  0.00  0.00    +0.000 C 
ATOM      2  C   UNL     1      -0.678  10.351  19.075  0.00  0.00    +0.000 A 
ATOM      3  C   UNL     1       0.435   9.900  19.689  0.00  0.00    +0.000 A 
ATOM      4  C   UNL     1       0.600  10.779  20.904  0.00  0.00    +0.000 A 
ATOM      5  O   UNL     1       1.473  10.651  21.745  0.00  0.00    +0.000 OA
ATOM      6  N   UNL     1      -0.479  11.674  20.884  0.00  0.00    +0.000 N 
ATOM      7  N   UNL     1      -1.338  11.325  19.832  0.00  0.00    +0.000 N 
ATOM      8  C   UNL     1      -2.309  12.278  19.310  0.00  0.00    +0.000 C 
ENDROOT
BRANCH   3   9
ATOM      9  N   UNL     1       1.305   8.888  19.372  0.00  0.00    +0.000 N 
ATOM     10  C   UNL     1       2.112   8.868  18.251  0.00  0.00    +0.000 C 
ATOM     11  O   UNL     1       2.167   9.607  17.300  0.00  0.00    +0.000 OA
ATOM     12  C   UNL     1       2.904   7.629  18.330  0.00  0.00    +0.000 A 
ATOM     13  C   UNL     1       3.878   7.126  17.484  0.00  0.00    +0.000 A 
ATOM     14  C   UNL     1       4.455   5.891  17.816  0.00  0.00    +0.000 A 
ATOM     15  C   UNL     1       4.039   5.187  18.962  0.00  0.00    +0.000 A 
ATOM     16  C   UNL     1       3.062   5.722  19.808  0.00  0.00    +0.000 A 
ATOM     17  C   UNL     1       2.520   6.953  19.470  0.00  0.00    +0.000 A 
ATOM     18  C   UNL     1       1.498   7.755  20.136  0.00  0.00    +0.000 C 
ATOM     19  O   UNL     1       0.979   7.408  21.184  0.00  0.00    +0.000 OA
ENDBRANCH   3   9
BRANCH   6  20
ATOM     20  C   UNL     1      -0.842  12.542  21.930  0.00  0.00    +0.000 A 
ATOM     21  C   UNL     1      -0.193  13.776  22.057  0.00  0.00    +0.000 A 
ATOM     22  C   UNL     1      -0.609  14.697  23.025  0.00  0.00    +0.000 A 
ATOM     23  C   UNL     1      -1.653  14.377  23.893  0.00  0.00    +0.000 A 
ATOM     24  C   UNL     1      -2.290  13.143  23.788  0.00  0.00    +0.000 A 
ATOM     25  C   UNL     1      -1.889  12.232  22.808  0.00  0.00    +0.000 A 
ENDBRANCH   6  20
TORSDOF 2
ENDMDL
MODEL 3
REMARK VINA RESULT:      -7.1      2.236      8.430
REMARK  Name = 
REMARK  4 active torsions:
REMARK  status: ('A' for Active; 'I' for Inactive)
REMARK    1  A    between atoms: C_1  and  C_2
REMARK    2  A    between atoms: C_3  and  N_4
REMARK    3  A    between atoms: N_17  and  C_18
REMARK    4  A    between atoms: N_24  and  C_25
REMARK                            x       y       z     vdW  Elec       q    Type
REMARK                         _______ _______ _______ _____ _____    ______ ____
ROOT
ATOM      1  C   UNL     1       1.217   5.072  20.467  0.00  0.00    +0.000 C 
ATOM      2  C   UNL     1       2.220   5.618  19.500  0.00  0.00    +0.000 A 
ATOM      3  C   UNL     1       2.431   6.903  19.149  0.00  0.00    +0.000 A 
ATOM      4  C   UNL     1       3.696   6.884  18.326  0.00  0.00    +0.000 A 
ATOM      5  O   UNL     1       4.190   7.858  17.784  0.00  0.00    +0.000 OA
ATOM      6  N   UNL     1       4.099   5.543  18.265  0.00  0.00    +0.000 N 
ATOM      7  N   UNL     1       3.119   4.747  18.875  0.00  0.00    +0.000 N 
ATOM      8  C   UNL     1       3.424   3.393  19.321  0.00  0.00    +0.000 C 
ENDROOT
BRANCH   3   9
ATOM      9  N   UNL     1       1.733   8.049  19.424  0.00  0.00    +0.000 N 
ATOM     10  C   UNL     1       1.225   8.909  18.468  0.00  0.00    +0.000 C 
ATOM     11  O   UNL     1       1.354   8.928  17.269  0.00  0.00    +0.000 OA
ATOM     12  C   UNL     1       0.520   9.976  19.200  0.00  0.00    +0.000 A 
ATOM     13  C   UNL     1      -0.185  11.073  18.735  0.00  0.00    +0.000 A 
ATOM     14  C   UNL     1      -0.743  11.939  19.686  0.00  0.00    +0.000 A 
ATOM     15  C   UNL     1      -0.573  11.702  21.063  0.00  0.00    +0.000 A 
ATOM     16  C   UNL     1       0.133  10.579  21.509  0.00  0.00    +0.000 A 
ATOM     17  C   UNL     1       0.659   9.727  20.549  0.00  0.00    +0.000 A 
ATOM     18  C   UNL     1       1.434   8.499  20.694  0.00  0.00    +0.000 C 
ATOM     19  O   UNL     1       1.705   8.025  21.786  0.00  0.00    +0.000 OA
ENDBRANCH   3   9
BRANCH   6  20
ATOM     20  C   UNL     1       5.114   5.030  17.436  0.00  0.00    +0.000 A 
ATOM     21  C   UNL     1       4.797   4.612  16.138  0.00  0.00    +0.000 A 
ATOM     22  C   UNL     1       5.807   4.198  15.263  0.00  0.00    +0.000 A 
ATOM     23  C   UNL     1       7.134   4.168  15.689  0.00  0.00    +0.000 A 
ATOM     24  C   UNL     1       7.457   4.561  16.986  0.00  0.00    +0.000 A 
ATOM     25  C   UNL     1       6.451   4.995  17.853  0.00  0.00    +0.000 A 
ENDBRANCH   6  20
TORSDOF 2
ENDMDL
MODEL 4
REMARK VINA RESULT:      -7.0      2.252      8.270
REMARK  Name = 
REMARK  4 active torsions:
REMARK  status: ('A' for Active; 'I' for Inactive)
REMARK    1  A    between atoms: C_1  and  C_2
REMARK    2  A    between atoms: C_3  and  N_4
REMARK    3  A    between atoms: N_17  and  C_18
REMARK    4  A    between atoms: N_24  and  C_25
REMARK                            x       y       z     vdW  Elec       q    Type
REMARK                         _______ _______ _______ _____ _____    ______ ____
ROOT
ATOM      1  C   UNL     1       1.223   5.073  20.457  0.00  0.00    +0.000 C 
ATOM      2  C   UNL     1       2.226   5.619  19.491  0.00  0.00    +0.000 A 
ATOM      3  C   UNL     1       2.443   6.904  19.144  0.00  0.00    +0.000 A 
ATOM      4  C   UNL     1       3.706   6.884  18.319  0.00  0.00    +0.000 A 
ATOM      5  O   UNL     1       4.203   7.858  17.780  0.00  0.00    +0.000 OA
ATOM      6  N   UNL     1       4.103   5.541  18.252  0.00  0.00    +0.000 N 
ATOM      7  N   UNL     1       3.121   4.746  18.860  0.00  0.00    +0.000 N 
ATOM      8  C   UNL     1       3.420   3.390  19.300  0.00  0.00    +0.000 C 
ENDROOT
BRANCH   3   9
ATOM      9  N   UNL     1       1.749   8.053  19.425  0.00  0.00    +0.000 N 
ATOM     10  C   UNL     1       1.474   8.513  20.699  0.00  0.00    +0.000 C 
ATOM     11  O   UNL     1       1.654   8.011  21.780  0.00  0.00    +0.000 OA
ATOM     12  C   UNL     1       0.753   9.787  20.534  0.00  0.00    +0.000 A 
ATOM     13  C   UNL     1       0.265  10.675  21.479  0.00  0.00    +0.000 A 
ATOM     14  C   UNL     1      -0.405  11.817  21.014  0.00  0.00    +0.000 A 
ATOM     15  C   UNL     1      -0.584  12.035  19.635  0.00  0.00    +0.000 A 
ATOM     16  C   UNL     1      -0.071  11.130  18.700  0.00  0.00    +0.000 A 
ATOM     17  C   UNL     1       0.604  10.018  19.183  0.00  0.00    +0.000 A 
ATOM     18  C   UNL     1       1.238   8.911  18.473  0.00  0.00    +0.000 C 
ATOM     19  O   UNL     1       1.272   8.853  17.255  0.00  0.00    +0.000 OA
ENDBRANCH   3   9
BRANCH   6  20
ATOM     20  C   UNL     1       5.114   5.027  17.419  0.00  0.00    +0.000 A 
ATOM     21  C   UNL     1       4.791   4.610  16.121  0.00  0.00    +0.000 A 
ATOM     22  C   UNL     1       5.798   4.195  15.243  0.00  0.00    +0.000 A 
ATOM     23  C   UNL     1       7.127   4.163  15.664  0.00  0.00    +0.000 A 
ATOM     24  C   UNL     1       7.454   4.555  16.959  0.00  0.00    +0.000 A 
ATOM     25  C   UNL     1       6.453   4.991  17.831  0.00  0.00    +0.000 A 
ENDBRANCH   6  20
TORSDOF 2
ENDMDL
MODEL 5
REMARK VINA RESULT:      -6.9      2.773      8.766
REMARK  Name = 
REMARK  4 active torsions:
REMARK  status: ('A' for Active; 'I' for Inactive)
REMARK    1  A    between atoms: C_1  and  C_2
REMARK    2  A    between atoms: C_3  and  N_4
REMARK    3  A    between atoms: N_17  and  C_18
REMARK    4  A    between atoms: N_24  and  C_25
REMARK                            x       y       z     vdW  Elec       q    Type
REMARK                         _______ _______ _______ _____ _____    ______ ____
ROOT
ATOM      1  C   UNL     1       1.325   4.232  19.101  0.00  0.00    +0.000 C 
ATOM      2  C   UNL     1       2.390   4.982  18.363  0.00  0.00    +0.000 A 
ATOM      3  C   UNL     1       2.713   6.287  18.459  0.00  0.00    +0.000 A 
ATOM      4  C   UNL     1       3.989   6.437  17.666  0.00  0.00    +0.000 A 
ATOM      5  O   UNL     1       4.572   7.491  17.476  0.00  0.00    +0.000 OA
ATOM      6  N   UNL     1       4.281   5.164  17.158  0.00  0.00    +0.000 N 
ATOM      7  N   UNL     1       3.227   4.296  17.476  0.00  0.00    +0.000 N 
ATOM      8  C   UNL     1       3.409   2.851  17.443  0.00  0.00    +0.000 C 
ENDROOT
BRANCH   3   9
ATOM      9  N   UNL     1       2.106   7.332  19.106  0.00  0.00    +0.000 N 
ATOM     10  C   UNL     1       1.693   8.501  18.497  0.00  0.00    +0.000 C 
ATOM     11  O   UNL     1       1.850   8.909  17.373  0.00  0.00    +0.000 OA
ATOM     12  C   UNL     1       1.063   9.319  19.548  0.00  0.00    +0.000 A 
ATOM     13  C   UNL     1       0.462  10.565  19.482  0.00  0.00    +0.000 A 
ATOM     14  C   UNL     1      -0.044  11.108  20.672  0.00  0.00    +0.000 A 
ATOM     15  C   UNL     1       0.076  10.411  21.889  0.00  0.00    +0.000 A 
ATOM     16  C   UNL     1       0.676   9.148  21.928  0.00  0.00    +0.000 A 
ATOM     17  C   UNL     1       1.150   8.623  20.735  0.00  0.00    +0.000 A 
ATOM     18  C   UNL     1       1.818   7.355  20.456  0.00  0.00    +0.000 C 
ATOM     19  O   UNL     1       2.025   6.523  21.324  0.00  0.00    +0.000 OA
ENDBRANCH   3   9
BRANCH   6  20
ATOM     20  C   UNL     1       5.267   4.873  16.197  0.00  0.00    +0.000 A 
ATOM     21  C   UNL     1       4.879   4.472  14.913  0.00  0.00    +0.000 A 
ATOM     22  C   UNL     1       5.840   4.279  13.914  0.00  0.00    +0.000 A 
ATOM     23  C   UNL     1       7.193   4.454  14.199  0.00  0.00    +0.000 A 
ATOM     24  C   UNL     1       7.590   4.831  15.480  0.00  0.00    +0.000 A 
ATOM     25  C   UNL     1       6.630   5.045  16.473  0.00  0.00    +0.000 A 
ENDBRANCH   6  20
TORSDOF 2
ENDMDL
MODEL 6
REMARK VINA RESULT:      -6.9      2.780      8.595
REMARK  Name = 
REMARK  4 active torsions:
REMARK  status: ('A' for Active; 'I' for Inactive)
REMARK    1  A    between atoms: C_1  and  C_2
REMARK    2  A    between atoms: C_3  and  N_4
REMARK    3  A    between atoms: N_17  and  C_18
REMARK    4  A    between atoms: N_24  and  C_25
REMARK                            x       y       z     vdW  Elec       q    Type
REMARK                         _______ _______ _______ _____ _____    ______ ____
ROOT
ATOM      1  C   UNL     1       1.354   4.206  19.108  0.00  0.00    +0.000 C 
ATOM      2  C   UNL     1       2.410   4.967  18.370  0.00  0.00    +0.000 A 
ATOM      3  C   UNL     1       2.717   6.277  18.463  0.00  0.00    +0.000 A 
ATOM      4  C   UNL     1       3.992   6.442  17.672  0.00  0.00    +0.000 A 
ATOM      5  O   UNL     1       4.562   7.502  17.480  0.00  0.00    +0.000 OA
ATOM      6  N   UNL     1       4.300   5.171  17.167  0.00  0.00    +0.000 N 
ATOM      7  N   UNL     1       3.257   4.290  17.485  0.00  0.00    +0.000 N 
ATOM      8  C   UNL     1       3.457   2.848  17.455  0.00  0.00    +0.000 C 
ENDROOT
BRANCH   3   9
ATOM      9  N   UNL     1       2.096   7.315  19.108  0.00  0.00    +0.000 N 
ATOM     10  C   UNL     1       1.779   7.328  20.453  0.00  0.00    +0.000 C 
ATOM     11  O   UNL     1       1.855   6.468  21.295  0.00  0.00    +0.000 OA
ATOM     12  C   UNL     1       1.167   8.640  20.724  0.00  0.00    +0.000 A 
ATOM     13  C   UNL     1       0.690   9.186  21.904  0.00  0.00    +0.000 A 
ATOM     14  C   UNL     1       0.138  10.474  21.850  0.00  0.00    +0.000 A 
ATOM     15  C   UNL     1       0.059  11.173  20.630  0.00  0.00    +0.000 A 
ATOM     16  C   UNL     1       0.559  10.606  19.453  0.00  0.00    +0.000 A 
ATOM     17  C   UNL     1       1.119   9.339  19.536  0.00  0.00    +0.000 A 
ATOM     18  C   UNL     1       1.710   8.494  18.503  0.00  0.00    +0.000 C 
ATOM     19  O   UNL     1       1.814   8.860  17.343  0.00  0.00    +0.000 OA
ENDBRANCH   3   9
BRANCH   6  20
ATOM     20  C   UNL     1       5.291   4.891  16.207  0.00  0.00    +0.000 A 
ATOM     21  C   UNL     1       4.910   4.473  14.926  0.00  0.00    +0.000 A 
ATOM     22  C   UNL     1       5.873   4.290  13.928  0.00  0.00    +0.000 A 
ATOM     23  C   UNL     1       7.224   4.491  14.212  0.00  0.00    +0.000 A 
ATOM     24  C   UNL     1       7.614   4.885  15.489  0.00  0.00    +0.000 A 
ATOM     25  C   UNL     1       6.651   5.089  16.481  0.00  0.00    +0.000 A 
ENDBRANCH   6  20
TORSDOF 2
ENDMDL
MODEL 7
REMARK VINA RESULT:      -6.9      2.614      4.380
REMARK  Name = 
REMARK  4 active torsions:
REMARK  status: ('A' for Active; 'I' for Inactive)
REMARK    1  A    between atoms: C_1  and  C_2
REMARK    2  A    between atoms: C_3  and  N_4
REMARK    3  A    between atoms: N_17  and  C_18
REMARK    4  A    between atoms: N_24  and  C_25
REMARK                            x       y       z     vdW  Elec       q    Type
REMARK                         _______ _______ _______ _____ _____    ______ ____
ROOT
ATOM      1  C   UNL     1       2.350   5.899  20.839  0.00  0.00    +0.000 C 
ATOM      2  C   UNL     1       2.204   7.082  19.935  0.00  0.00    +0.000 A 
ATOM      3  C   UNL     1       2.699   7.252  18.691  0.00  0.00    +0.000 A 
ATOM      4  C   UNL     1       2.058   8.519  18.181  0.00  0.00    +0.000 A 
ATOM      5  O   UNL     1       2.292   9.034  17.101  0.00  0.00    +0.000 OA
ATOM      6  N   UNL     1       1.240   8.985  19.220  0.00  0.00    +0.000 N 
ATOM      7  N   UNL     1       1.432   8.174  20.347  0.00  0.00    +0.000 N 
ATOM      8  C   UNL     1       0.456   8.150  21.428  0.00  0.00    +0.000 C 
ENDROOT
BRANCH   3   9
ATOM      9  N   UNL     1       3.579   6.506  17.951  0.00  0.00    +0.000 N 
ATOM     10  C   UNL     1       3.332   5.228  17.489  0.00  0.00    +0.000 C 
ATOM     11  O   UNL     1       2.415   4.472  17.697  0.00  0.00    +0.000 OA
ATOM     12  C   UNL     1       4.518   4.828  16.714  0.00  0.00    +0.000 A 
ATOM     13  C   UNL     1       4.789   3.662  16.017  0.00  0.00    +0.000 A 
ATOM     14  C   UNL     1       6.034   3.559  15.378  0.00  0.00    +0.000 A 
ATOM     15  C   UNL     1       6.974   4.603  15.462  0.00  0.00    +0.000 A 
ATOM     16  C   UNL     1       6.673   5.777  16.161  0.00  0.00    +0.000 A 
ATOM     17  C   UNL     1       5.428   5.863  16.768  0.00  0.00    +0.000 A 
ATOM     18  C   UNL     1       4.831   6.935  17.559  0.00  0.00    +0.000 C 
ATOM     19  O   UNL     1       5.408   7.989  17.767  0.00  0.00    +0.000 OA
ENDBRANCH   3   9
BRANCH   6  20
ATOM     20  C   UNL     1       0.609  10.242  19.263  0.00  0.00    +0.000 A 
ATOM     21  C   UNL     1      -0.640  10.407  18.651  0.00  0.00    +0.000 A 
ATOM     22  C   UNL     1      -1.330  11.618  18.773  0.00  0.00    +0.000 A 
ATOM     23  C   UNL     1      -0.765  12.680  19.476  0.00  0.00    +0.000 A 
ATOM     24  C   UNL     1       0.487  12.533  20.069  0.00  0.00    +0.000 A 
ATOM     25  C   UNL     1       1.168  11.317  19.967  0.00  0.00    +0.000 A 
ENDBRANCH   6  20
TORSDOF 2
ENDMDL
MODEL 8
REMARK VINA RESULT:      -6.9      2.579      4.496
REMARK  Name = 
REMARK  4 active torsions:
REMARK  status: ('A' for Active; 'I' for Inactive)
REMARK    1  A    between atoms: C_1  and  C_2
REMARK    2  A    between atoms: C_3  and  N_4
REMARK    3  A    between atoms: N_17  and  C_18
REMARK    4  A    between atoms: N_24  and  C_25
REMARK                            x       y       z     vdW  Elec       q    Type
REMARK                         _______ _______ _______ _____ _____    ______ ____
ROOT
ATOM      1  C   UNL     1       2.297   5.927  20.850  0.00  0.00    +0.000 C 
ATOM      2  C   UNL     1       2.153   7.117  19.955  0.00  0.00    +0.000 A 
ATOM      3  C   UNL     1       2.651   7.297  18.714  0.00  0.00    +0.000 A 
ATOM      4  C   UNL     1       2.011   8.568  18.212  0.00  0.00    +0.000 A 
ATOM      5  O   UNL     1       2.248   9.091  17.136  0.00  0.00    +0.000 OA
ATOM      6  N   UNL     1       1.189   9.024  19.252  0.00  0.00    +0.000 N 
ATOM      7  N   UNL     1       1.378   8.205  20.373  0.00  0.00    +0.000 N 
ATOM      8  C   UNL     1       0.399   8.171  21.451  0.00  0.00    +0.000 C 
ENDROOT
BRANCH   3   9
ATOM      9  N   UNL     1       3.535   6.558  17.971  0.00  0.00    +0.000 N 
ATOM     10  C   UNL     1       4.795   6.984  17.596  0.00  0.00    +0.000 C 
ATOM     11  O   UNL     1       5.340   8.052  17.717  0.00  0.00    +0.000 OA
ATOM     12  C   UNL     1       5.406   5.870  16.851  0.00  0.00    +0.000 A 
ATOM     13  C   UNL     1       6.660   5.752  16.275  0.00  0.00    +0.000 A 
ATOM     14  C   UNL     1       6.959   4.556  15.605  0.00  0.00    +0.000 A 
ATOM     15  C   UNL     1       6.005   3.524  15.514  0.00  0.00    +0.000 A 
ATOM     16  C   UNL     1       4.750   3.662  16.115  0.00  0.00    +0.000 A 
ATOM     17  C   UNL     1       4.485   4.846  16.788  0.00  0.00    +0.000 A 
ATOM     18  C   UNL     1       3.288   5.285  17.500  0.00  0.00    +0.000 C 
ATOM     19  O   UNL     1       2.304   4.573  17.619  0.00  0.00    +0.000 OA
ENDBRANCH   3   9
BRANCH   6  20
ATOM     20  C   UNL     1       0.556  10.280  19.303  0.00  0.00    +0.000 A 
ATOM     21  C   UNL     1      -0.716  10.434  18.739  0.00  0.00    +0.000 A 
ATOM     22  C   UNL     1      -1.405  11.645  18.871  0.00  0.00    +0.000 A 
ATOM     23  C   UNL     1      -0.815  12.718  19.537  0.00  0.00    +0.000 A 
ATOM     24  C   UNL     1       0.459  12.581  20.082  0.00  0.00    +0.000 A 
ATOM     25  C   UNL     1       1.139  11.366  19.970  0.00  0.00    +0.000 A 
ENDBRANCH   6  20
TORSDOF 2
ENDMDL
MODEL 9
REMARK VINA RESULT:      -6.8      5.010      8.943
REMARK  Name = 
REMARK  4 active torsions:
REMARK  status: ('A' for Active; 'I' for Inactive)
REMARK    1  A    between atoms: C_1  and  C_2
REMARK    2  A    between atoms: C_3  and  N_4
REMARK    3  A    between atoms: N_17  and  C_18
REMARK    4  A    between atoms: N_24  and  C_25
REMARK                            x       y       z     vdW  Elec       q    Type
REMARK                         _______ _______ _______ _____ _____    ______ ____
ROOT
ATOM      1  C   UNL     1      -7.245  12.043  21.198  0.00  0.00    +0.000 C 
ATOM      2  C   UNL     1      -5.959  12.097  20.434  0.00  0.00    +0.000 A 
ATOM      3  C   UNL     1      -4.807  12.709  20.777  0.00  0.00    +0.000 A 
ATOM      4  C   UNL     1      -3.796  12.248  19.755  0.00  0.00    +0.000 A 
ATOM      5  O   UNL     1      -2.638  12.624  19.701  0.00  0.00    +0.000 OA
ATOM      6  N   UNL     1      -4.489  11.398  18.882  0.00  0.00    +0.000 N 
ATOM      7  N   UNL     1      -5.849  11.409  19.220  0.00  0.00    +0.000 N 
ATOM      8  C   UNL     1      -6.742  10.349  18.774  0.00  0.00    +0.000 C 
ENDROOT
BRANCH   3   9
ATOM      9  N   UNL     1      -4.500  13.567  21.801  0.00  0.00    +0.000 N 
ATOM     10  C   UNL     1      -3.874  13.196  22.975  0.00  0.00    +0.000 C 
ATOM     11  O   UNL     1      -3.572  12.111  23.406  0.00  0.00    +0.000 OA
ATOM     12  C   UNL     1      -3.705  14.428  23.765  0.00  0.00    +0.000 A 
ATOM     13  C   UNL     1      -3.121  14.633  25.004  0.00  0.00    +0.000 A 
ATOM     14  C   UNL     1      -3.124  15.938  25.518  0.00  0.00    +0.000 A 
ATOM     15  C   UNL     1      -3.718  16.993  24.800  0.00  0.00    +0.000 A 
ATOM     16  C   UNL     1      -4.291  16.764  23.544  0.00  0.00    +0.000 A 
ATOM     17  C   UNL     1      -4.258  15.469  23.049  0.00  0.00    +0.000 A 
ATOM     18  C   UNL     1      -4.768  14.921  21.795  0.00  0.00    +0.000 C 
ATOM     19  O   UNL     1      -5.304  15.618  20.949  0.00  0.00    +0.000 OA
ENDBRANCH   3   9
BRANCH   6  20
ATOM     20  C   UNL     1      -3.994  10.898  17.663  0.00  0.00    +0.000 A 
ATOM     21  C   UNL     1      -4.378  11.508  16.462  0.00  0.00    +0.000 A 
ATOM     22  C   UNL     1      -3.817  11.094  15.249  0.00  0.00    +0.000 A 
ATOM     23  C   UNL     1      -2.894  10.048  15.224  0.00  0.00    +0.000 A 
ATOM     24  C   UNL     1      -2.523   9.422  16.411  0.00  0.00    +0.000 A 
ATOM     25  C   UNL     1      -3.066   9.849  17.625  0.00  0.00    +0.000 A 
ENDBRANCH   6  20
TORSDOF 2
ENDMDL
