MODEL 1
REMARK VINA RESULT:      -6.4      0.000      0.000
REMARK  Name = 
REMARK  10 active torsions:
REMARK  status: ('A' for Active; 'I' for Inactive)
REMARK    1  A    between atoms: C_1  and  C_2
REMARK    2  A    between atoms: C_2  and  C_3
REMARK    3  A    between atoms: C_3  and  C_4
REMARK    4  A    between atoms: C_3  and  C_17
REMARK    5  A    between atoms: N_6  and  C_7
REMARK    6  A    between atoms: C_10  and  S_11
REMARK    7  A    between atoms: S_11  and  N_12
REMARK    8  A    between atoms: C_17  and  C_18
REMARK    9  A    between atoms: C_17  and  C_19
REMARK   10  A    between atoms: C_17  and  C_20
REMARK                            x       y       z     vdW  Elec       q    Type
REMARK                         _______ _______ _______ _____ _____    ______ ____
ROOT
ATOM      1  C   UNL     1       2.360   7.568  18.992  0.00  0.00    +0.000 A 
ATOM      2  C   UNL     1       2.142   8.391  17.883  0.00  0.00    +0.000 A 
ATOM      3  C   UNL     1       1.375   9.551  17.983  0.00  0.00    +0.000 A 
ATOM      4  C   UNL     1       0.793   9.885  19.201  0.00  0.00    +0.000 A 
ATOM      5  C   UNL     1       0.967   9.064  20.318  0.00  0.00    +0.000 A 
ATOM      6  C   UNL     1       1.740   7.895  20.206  0.00  0.00    +0.000 A 
ENDROOT
BRANCH   1   9
ATOM      7  C   UNL     1       2.795   5.198  18.372  0.00  0.00    +0.000 C 
ATOM      8  O   UNL     1       1.735   4.994  17.780  0.00  0.00    +0.000 OA
ATOM      9  N   UNL     1       3.177   6.411  18.929  0.00  0.00    +0.000 N 
ATOM     10  H   UNL     1       4.141   6.516  19.216  0.00  0.00    +0.000 HD
BRANCH   7  11
ATOM     11  C   UNL     1       3.799   4.053  18.566  0.00  0.00    +0.000 C 
BRANCH  11  12
ATOM     12  C   UNL     1       3.248   2.988  19.598  0.00  0.00    +0.000 C 
ATOM     13  C   UNL     1       2.310   1.985  18.889  0.00  0.00    +0.000 C 
ATOM     14  C   UNL     1       4.390   2.158  20.224  0.00  0.00    +0.000 C 
ATOM     15  C   UNL     1       2.461   3.648  20.750  0.00  0.00    +0.000 C 
ENDBRANCH  11  12
BRANCH  11  17
ATOM     16  C   UNL     1       4.927   4.327  16.248  0.00  0.00    +0.000 C 
ATOM     17  C   UNL     1       4.120   3.427  17.178  0.00  0.00    +0.000 C 
ENDBRANCH  11  17
ENDBRANCH   7  11
ENDBRANCH   1   9
BRANCH   4  18
ATOM     18  S   UNL     1      -0.121  11.394  19.311  0.00  0.00    +0.000 S 
ATOM     19  O   UNL     1      -1.148  11.256  20.319  0.00  0.00    +0.000 OA
ATOM     20  O   UNL     1       0.790  12.510  19.282  0.00  0.00    +0.000 OA
BRANCH  18  21
ATOM     21  N   UNL     1      -0.921  11.414  17.834  0.00  0.00    +0.000 NA
ATOM     22  H   UNL     1      -0.399  11.981  17.167  0.00  0.00    +0.000 HD
ATOM     23  H   UNL     1      -1.094  10.458  17.523  0.00  0.00    +0.000 HD
ENDBRANCH  18  21
ENDBRANCH   4  18
TORSDOF 6
ENDMDL
MODEL 2
REMARK VINA RESULT:      -6.4      0.594      1.261
REMARK  Name = 
REMARK  10 active torsions:
REMARK  status: ('A' for Active; 'I' for Inactive)
REMARK    1  A    between atoms: C_1  and  C_2
REMARK    2  A    between atoms: C_2  and  C_3
REMARK    3  A    between atoms: C_3  and  C_4
REMARK    4  A    between atoms: C_3  and  C_17
REMARK    5  A    between atoms: N_6  and  C_7
REMARK    6  A    between atoms: C_10  and  S_11
REMARK    7  A    between atoms: S_11  and  N_12
REMARK    8  A    between atoms: C_17  and  C_18
REMARK    9  A    between atoms: C_17  and  C_19
REMARK   10  A    between atoms: C_17  and  C_20
REMARK                            x       y       z     vdW  Elec       q    Type
REMARK                         _______ _______ _______ _____ _____    ______ ____
ROOT
ATOM      1  C   UNL     1       2.347   7.586  19.050  0.00  0.00    +0.000 A 
ATOM      2  C   UNL     1       1.727   7.943  20.252  0.00  0.00    +0.000 A 
ATOM      3  C   UNL     1       0.901   9.063  20.335  0.00  0.00    +0.000 A 
ATOM      4  C   UNL     1       0.707   9.857  19.209  0.00  0.00    +0.000 A 
ATOM      5  C   UNL     1       1.339   9.543  18.004  0.00  0.00    +0.000 A 
ATOM      6  C   UNL     1       2.172   8.413  17.931  0.00  0.00    +0.000 A 
ENDROOT
BRANCH   1   9
ATOM      7  C   UNL     1       2.737   5.229  18.354  0.00  0.00    +0.000 C 
ATOM      8  O   UNL     1       1.654   5.050  17.796  0.00  0.00    +0.000 OA
ATOM      9  N   UNL     1       3.150   6.425  18.927  0.00  0.00    +0.000 N 
ATOM     10  H   UNL     1       4.124   6.513  19.181  0.00  0.00    +0.000 HD
BRANCH   7  11
ATOM     11  C   UNL     1       3.735   4.071  18.482  0.00  0.00    +0.000 C 
BRANCH  11  12
ATOM     12  C   UNL     1       3.231   3.005  19.536  0.00  0.00    +0.000 C 
ATOM     13  C   UNL     1       2.277   1.992  18.864  0.00  0.00    +0.000 C 
ATOM     14  C   UNL     1       4.401   2.186  20.123  0.00  0.00    +0.000 C 
ATOM     15  C   UNL     1       2.481   3.662  20.714  0.00  0.00    +0.000 C 
ENDBRANCH  11  12
BRANCH  11  17
ATOM     16  C   UNL     1       4.981   4.201  16.212  0.00  0.00    +0.000 C 
ATOM     17  C   UNL     1       3.968   3.453  17.074  0.00  0.00    +0.000 C 
ENDBRANCH  11  17
ENDBRANCH   7  11
ENDBRANCH   1   9
BRANCH   4  18
ATOM     18  S   UNL     1      -0.396  11.233  19.331  0.00  0.00    +0.000 S 
ATOM     19  O   UNL     1      -1.690  10.852  18.812  0.00  0.00    +0.000 OA
ATOM     20  O   UNL     1      -0.232  11.868  20.614  0.00  0.00    +0.000 OA
BRANCH  18  21
ATOM     21  N   UNL     1       0.260  12.293  18.205  0.00  0.00    +0.000 NA
ATOM     22  H   UNL     1       1.029  12.812  18.628  0.00  0.00    +0.000 HD
ATOM     23  H   UNL     1       0.516  11.783  17.359  0.00  0.00    +0.000 HD
ENDBRANCH  18  21
ENDBRANCH   4  18
TORSDOF 6
ENDMDL
MODEL 3
REMARK VINA RESULT:      -6.3      1.974      3.284
REMARK  Name = 
REMARK  10 active torsions:
REMARK  status: ('A' for Active; 'I' for Inactive)
REMARK    1  A    between atoms: C_1  and  C_2
REMARK    2  A    between atoms: C_2  and  C_3
REMARK    3  A    between atoms: C_3  and  C_4
REMARK    4  A    between atoms: C_3  and  C_17
REMARK    5  A    between atoms: N_6  and  C_7
REMARK    6  A    between atoms: C_10  and  S_11
REMARK    7  A    between atoms: S_11  and  N_12
REMARK    8  A    between atoms: C_17  and  C_18
REMARK    9  A    between atoms: C_17  and  C_19
REMARK   10  A    between atoms: C_17  and  C_20
REMARK                            x       y       z     vdW  Elec       q    Type
REMARK                         _______ _______ _______ _____ _____    ______ ____
ROOT
ATOM      1  C   UNL     1       2.079   7.350  18.841  0.00  0.00    +0.000 A 
ATOM      2  C   UNL     1       1.827   7.225  20.211  0.00  0.00    +0.000 A 
ATOM      3  C   UNL     1       1.327   8.292  20.955  0.00  0.00    +0.000 A 
ATOM      4  C   UNL     1       1.096   9.514  20.332  0.00  0.00    +0.000 A 
ATOM      5  C   UNL     1       1.368   9.677  18.971  0.00  0.00    +0.000 A 
ATOM      6  C   UNL     1       1.875   8.595  18.230  0.00  0.00    +0.000 A 
ENDROOT
BRANCH   1   9
ATOM      7  C   UNL     1       3.697   5.539  18.299  0.00  0.00    +0.000 C 
ATOM      8  O   UNL     1       4.425   5.681  19.281  0.00  0.00    +0.000 OA
ATOM      9  N   UNL     1       2.539   6.266  18.053  0.00  0.00    +0.000 N 
ATOM     10  H   UNL     1       1.921   5.935  17.324  0.00  0.00    +0.000 HD
BRANCH   7  11
ATOM     11  C   UNL     1       4.062   4.517  17.213  0.00  0.00    +0.000 C 
BRANCH  11  12
ATOM     12  C   UNL     1       5.345   4.978  16.412  0.00  0.00    +0.000 C 
ATOM     13  C   UNL     1       5.412   4.266  15.043  0.00  0.00    +0.000 C 
ATOM     14  C   UNL     1       5.321   6.495  16.120  0.00  0.00    +0.000 C 
ATOM     15  C   UNL     1       6.651   4.669  17.177  0.00  0.00    +0.000 C 
ENDBRANCH  11  12
BRANCH  11  17
ATOM     16  C   UNL     1       3.006   2.234  17.841  0.00  0.00    +0.000 C 
ATOM     17  C   UNL     1       4.245   3.123  17.879  0.00  0.00    +0.000 C 
ENDBRANCH  11  17
ENDBRANCH   7  11
ENDBRANCH   1   9
BRANCH   4  18
ATOM     18  S   UNL     1       0.402  10.828  21.288  0.00  0.00    +0.000 S 
ATOM     19  O   UNL     1       1.340  11.927  21.338  0.00  0.00    +0.000 OA
ATOM     20  O   UNL     1      -0.981  11.008  20.925  0.00  0.00    +0.000 OA
BRANCH  18  21
ATOM     21  N   UNL     1       0.392  10.158  22.828  0.00  0.00    +0.000 NA
ATOM     22  H   UNL     1      -0.221  10.701  23.436  0.00  0.00    +0.000 HD
ATOM     23  H   UNL     1       0.153   9.168  22.772  0.00  0.00    +0.000 HD
ENDBRANCH  18  21
ENDBRANCH   4  18
TORSDOF 6
ENDMDL
MODEL 4
REMARK VINA RESULT:      -6.3      1.125      1.589
REMARK  Name = 
REMARK  10 active torsions:
REMARK  status: ('A' for Active; 'I' for Inactive)
REMARK    1  A    between atoms: C_1  and  C_2
REMARK    2  A    between atoms: C_2  and  C_3
REMARK    3  A    between atoms: C_3  and  C_4
REMARK    4  A    between atoms: C_3  and  C_17
REMARK    5  A    between atoms: N_6  and  C_7
REMARK    6  A    between atoms: C_10  and  S_11
REMARK    7  A    between atoms: S_11  and  N_12
REMARK    8  A    between atoms: C_17  and  C_18
REMARK    9  A    between atoms: C_17  and  C_19
REMARK   10  A    between atoms: C_17  and  C_20
REMARK                            x       y       z     vdW  Elec       q    Type
REMARK                         _______ _______ _______ _____ _____    ______ ____
ROOT
ATOM      1  C   UNL     1       1.912   7.919  19.734  0.00  0.00    +0.000 A 
ATOM      2  C   UNL     1       1.996   8.534  18.481  0.00  0.00    +0.000 A 
ATOM      3  C   UNL     1       1.364   9.750  18.229  0.00  0.00    +0.000 A 
ATOM      4  C   UNL     1       0.615  10.355  19.232  0.00  0.00    +0.000 A 
ATOM      5  C   UNL     1       0.488   9.748  20.484  0.00  0.00    +0.000 A 
ATOM      6  C   UNL     1       1.127   8.519  20.728  0.00  0.00    +0.000 A 
ENDROOT
BRANCH   1   9
ATOM      7  C   UNL     1       2.646   5.604  19.191  0.00  0.00    +0.000 C 
ATOM      8  O   UNL     1       2.199   5.564  18.045  0.00  0.00    +0.000 OA
ATOM      9  N   UNL     1       2.587   6.708  20.031  0.00  0.00    +0.000 N 
ATOM     10  H   UNL     1       3.152   6.693  20.870  0.00  0.00    +0.000 HD
BRANCH   7  11
ATOM     11  C   UNL     1       3.301   4.359  19.804  0.00  0.00    +0.000 C 
BRANCH  11  12
ATOM     12  C   UNL     1       2.216   3.263  20.152  0.00  0.00    +0.000 C 
ATOM     13  C   UNL     1       2.542   2.592  21.505  0.00  0.00    +0.000 C 
ATOM     14  C   UNL     1       0.808   3.879  20.293  0.00  0.00    +0.000 C 
ATOM     15  C   UNL     1       2.139   2.158  19.076  0.00  0.00    +0.000 C 
ENDBRANCH  11  12
BRANCH  11  17
ATOM     16  C   UNL     1       5.651   4.684  18.757  0.00  0.00    +0.000 C 
ATOM     17  C   UNL     1       4.387   3.831  18.823  0.00  0.00    +0.000 C 
ENDBRANCH  11  17
ENDBRANCH   7  11
ENDBRANCH   1   9
BRANCH   4  18
ATOM     18  S   UNL     1      -0.121  11.928  18.901  0.00  0.00    +0.000 S 
ATOM     19  O   UNL     1      -1.012  12.274  19.986  0.00  0.00    +0.000 OA
ATOM     20  O   UNL     1       0.884  12.833  18.405  0.00  0.00    +0.000 OA
BRANCH  18  21
ATOM     21  N   UNL     1      -1.107  11.571  17.590  0.00  0.00    +0.000 NA
ATOM     22  H   UNL     1      -1.901  12.212  17.570  0.00  0.00    +0.000 HD
ATOM     23  H   UNL     1      -0.554  11.566  16.732  0.00  0.00    +0.000 HD
ENDBRANCH  18  21
ENDBRANCH   4  18
TORSDOF 6
ENDMDL
MODEL 5
REMARK VINA RESULT:      -6.3      0.193      1.465
REMARK  Name = 
REMARK  10 active torsions:
REMARK  status: ('A' for Active; 'I' for Inactive)
REMARK    1  A    between atoms: C_1  and  C_2
REMARK    2  A    between atoms: C_2  and  C_3
REMARK    3  A    between atoms: C_3  and  C_4
REMARK    4  A    between atoms: C_3  and  C_17
REMARK    5  A    between atoms: N_6  and  C_7
REMARK    6  A    between atoms: C_10  and  S_11
REMARK    7  A    between atoms: S_11  and  N_12
REMARK    8  A    between atoms: C_17  and  C_18
REMARK    9  A    between atoms: C_17  and  C_19
REMARK   10  A    between atoms: C_17  and  C_20
REMARK                            x       y       z     vdW  Elec       q    Type
REMARK                         _______ _______ _______ _____ _____    ______ ____
ROOT
ATOM      1  C   UNL     1       2.421   7.600  18.994  0.00  0.00    +0.000 A 
ATOM      2  C   UNL     1       1.744   7.974  20.159  0.00  0.00    +0.000 A 
ATOM      3  C   UNL     1       0.949   9.118  20.198  0.00  0.00    +0.000 A 
ATOM      4  C   UNL     1       0.845   9.920  19.066  0.00  0.00    +0.000 A 
ATOM      5  C   UNL     1       1.535   9.588  17.898  0.00  0.00    +0.000 A 
ATOM      6  C   UNL     1       2.337   8.433  17.869  0.00  0.00    +0.000 A 
ENDROOT
BRANCH   1   9
ATOM      7  C   UNL     1       2.758   5.217  18.363  0.00  0.00    +0.000 C 
ATOM      8  O   UNL     1       1.680   5.052  17.792  0.00  0.00    +0.000 OA
ATOM      9  N   UNL     1       3.194   6.415  18.914  0.00  0.00    +0.000 N 
ATOM     10  H   UNL     1       4.166   6.484  19.183  0.00  0.00    +0.000 HD
BRANCH   7  11
ATOM     11  C   UNL     1       3.723   4.035  18.538  0.00  0.00    +0.000 C 
BRANCH  11  12
ATOM     12  C   UNL     1       3.180   3.018  19.620  0.00  0.00    +0.000 C 
ATOM     13  C   UNL     1       2.455   3.775  20.756  0.00  0.00    +0.000 C 
ATOM     14  C   UNL     1       2.153   2.037  19.016  0.00  0.00    +0.000 C 
ATOM     15  C   UNL     1       4.314   2.180  20.251  0.00  0.00    +0.000 C 
ENDBRANCH  11  12
BRANCH  11  17
ATOM     16  C   UNL     1       5.082   3.975  16.331  0.00  0.00    +0.000 C 
ATOM     17  C   UNL     1       3.950   3.366  17.152  0.00  0.00    +0.000 C 
ENDBRANCH  11  17
ENDBRANCH   7  11
ENDBRANCH   1   9
BRANCH   4  18
ATOM     18  S   UNL     1      -0.221  11.328  19.128  0.00  0.00    +0.000 S 
ATOM     19  O   UNL     1      -1.170  11.159  20.206  0.00  0.00    +0.000 OA
ATOM     20  O   UNL     1       0.559  12.528  18.965  0.00  0.00    +0.000 OA
BRANCH  18  21
ATOM     21  N   UNL     1      -1.099  11.152  17.707  0.00  0.00    +0.000 NA
ATOM     22  H   UNL     1      -1.649  11.993  17.535  0.00  0.00    +0.000 HD
ATOM     23  H   UNL     1      -0.472  10.900  16.943  0.00  0.00    +0.000 HD
ENDBRANCH  18  21
ENDBRANCH   4  18
TORSDOF 6
ENDMDL
MODEL 6
REMARK VINA RESULT:      -6.3      1.131      1.629
REMARK  Name = 
REMARK  10 active torsions:
REMARK  status: ('A' for Active; 'I' for Inactive)
REMARK    1  A    between atoms: C_1  and  C_2
REMARK    2  A    between atoms: C_2  and  C_3
REMARK    3  A    between atoms: C_3  and  C_4
REMARK    4  A    between atoms: C_3  and  C_17
REMARK    5  A    between atoms: N_6  and  C_7
REMARK    6  A    between atoms: C_10  and  S_11
REMARK    7  A    between atoms: S_11  and  N_12
REMARK    8  A    between atoms: C_17  and  C_18
REMARK    9  A    between atoms: C_17  and  C_19
REMARK   10  A    between atoms: C_17  and  C_20
REMARK                            x       y       z     vdW  Elec       q    Type
REMARK                         _______ _______ _______ _____ _____    ______ ____
ROOT
ATOM      1  C   UNL     1       1.872   7.917  19.793  0.00  0.00    +0.000 A 
ATOM      2  C   UNL     1       1.047   8.532  20.741  0.00  0.00    +0.000 A 
ATOM      3  C   UNL     1       0.327   9.685  20.433  0.00  0.00    +0.000 A 
ATOM      4  C   UNL     1       0.446  10.252  19.168  0.00  0.00    +0.000 A 
ATOM      5  C   UNL     1       1.286   9.677  18.212  0.00  0.00    +0.000 A 
ATOM      6  C   UNL     1       2.012   8.516  18.532  0.00  0.00    +0.000 A 
ENDROOT
BRANCH   1   9
ATOM      7  C   UNL     1       2.633   5.620  19.216  0.00  0.00    +0.000 C 
ATOM      8  O   UNL     1       2.160   5.579  18.080  0.00  0.00    +0.000 OA
ATOM      9  N   UNL     1       2.575   6.717  20.065  0.00  0.00    +0.000 N 
ATOM     10  H   UNL     1       3.159   6.706  20.890  0.00  0.00    +0.000 HD
BRANCH   7  11
ATOM     11  C   UNL     1       3.325   4.383  19.804  0.00  0.00    +0.000 C 
BRANCH  11  12
ATOM     12  C   UNL     1       2.267   3.270  20.185  0.00  0.00    +0.000 C 
ATOM     13  C   UNL     1       2.268   2.141  19.130  0.00  0.00    +0.000 C 
ATOM     14  C   UNL     1       2.598   2.609  21.540  0.00  0.00    +0.000 C 
ATOM     15  C   UNL     1       0.834   3.839  20.277  0.00  0.00    +0.000 C 
ENDBRANCH  11  12
BRANCH  11  17
ATOM     16  C   UNL     1       5.665   4.704  18.734  0.00  0.00    +0.000 C 
ATOM     17  C   UNL     1       4.387   3.873  18.788  0.00  0.00    +0.000 C 
ENDBRANCH  11  17
ENDBRANCH   7  11
ENDBRANCH   1   9
BRANCH   4  18
ATOM     18  S   UNL     1      -0.530  11.676  18.789  0.00  0.00    +0.000 S 
ATOM     19  O   UNL     1      -1.569  11.819  19.784  0.00  0.00    +0.000 OA
ATOM     20  O   UNL     1       0.336  12.764  18.411  0.00  0.00    +0.000 OA
BRANCH  18  21
ATOM     21  N   UNL     1      -1.303  11.191  17.379  0.00  0.00    +0.000 NA
ATOM     22  H   UNL     1      -1.478  10.186  17.410  0.00  0.00    +0.000 HD
ATOM     23  H   UNL     1      -2.140  11.755  17.233  0.00  0.00    +0.000 HD
ENDBRANCH  18  21
ENDBRANCH   4  18
TORSDOF 6
ENDMDL
MODEL 7
REMARK VINA RESULT:      -6.2      0.888      1.527
REMARK  Name = 
REMARK  10 active torsions:
REMARK  status: ('A' for Active; 'I' for Inactive)
REMARK    1  A    between atoms: C_1  and  C_2
REMARK    2  A    between atoms: C_2  and  C_3
REMARK    3  A    between atoms: C_3  and  C_4
REMARK    4  A    between atoms: C_3  and  C_17
REMARK    5  A    between atoms: N_6  and  C_7
REMARK    6  A    between atoms: C_10  and  S_11
REMARK    7  A    between atoms: S_11  and  N_12
REMARK    8  A    between atoms: C_17  and  C_18
REMARK    9  A    between atoms: C_17  and  C_19
REMARK   10  A    between atoms: C_17  and  C_20
REMARK                            x       y       z     vdW  Elec       q    Type
REMARK                         _______ _______ _______ _____ _____    ______ ____
ROOT
ATOM      1  C   UNL     1       2.373   7.565  19.166  0.00  0.00    +0.000 A 
ATOM      2  C   UNL     1       2.227   8.498  18.134  0.00  0.00    +0.000 A 
ATOM      3  C   UNL     1       1.501   9.672  18.318  0.00  0.00    +0.000 A 
ATOM      4  C   UNL     1       0.886   9.914  19.543  0.00  0.00    +0.000 A 
ATOM      5  C   UNL     1       0.988   8.985  20.581  0.00  0.00    +0.000 A 
ATOM      6  C   UNL     1       1.721   7.801  20.384  0.00  0.00    +0.000 A 
ENDROOT
BRANCH   1   9
ATOM      7  C   UNL     1       2.723   5.229  18.383  0.00  0.00    +0.000 C 
ATOM      8  O   UNL     1       1.654   5.103  17.784  0.00  0.00    +0.000 OA
ATOM      9  N   UNL     1       3.148   6.388  19.019  0.00  0.00    +0.000 N 
ATOM     10  H   UNL     1       4.116   6.438  19.308  0.00  0.00    +0.000 HD
BRANCH   7  11
ATOM     11  C   UNL     1       3.686   4.039  18.493  0.00  0.00    +0.000 C 
BRANCH  11  12
ATOM     12  C   UNL     1       3.161   2.984  19.548  0.00  0.00    +0.000 C 
ATOM     13  C   UNL     1       4.341   2.184  20.145  0.00  0.00    +0.000 C 
ATOM     14  C   UNL     1       2.447   3.669  20.733  0.00  0.00    +0.000 C 
ATOM     15  C   UNL     1       2.169   1.979  18.921  0.00  0.00    +0.000 C 
ENDBRANCH  11  12
BRANCH  11  17
ATOM     16  C   UNL     1       4.927   4.124  16.219  0.00  0.00    +0.000 C 
ATOM     17  C   UNL     1       3.882   3.421  17.079  0.00  0.00    +0.000 C 
ENDBRANCH  11  17
ENDBRANCH   7  11
ENDBRANCH   1   9
BRANCH   4  18
ATOM     18  S   UNL     1       0.026  11.442  19.766  0.00  0.00    +0.000 S 
ATOM     19  O   UNL     1       0.402  12.357  18.711  0.00  0.00    +0.000 OA
ATOM     20  O   UNL     1      -1.348  11.174  20.105  0.00  0.00    +0.000 OA
BRANCH  18  21
ATOM     21  N   UNL     1       0.741  12.032  21.166  0.00  0.00    +0.000 NA
ATOM     22  H   UNL     1       1.161  11.263  21.689  0.00  0.00    +0.000 HD
ATOM     23  H   UNL     1       1.393  12.781  20.933  0.00  0.00    +0.000 HD
ENDBRANCH  18  21
ENDBRANCH   4  18
TORSDOF 6
ENDMDL
MODEL 8
REMARK VINA RESULT:      -6.2      0.411      1.503
REMARK  Name = 
REMARK  10 active torsions:
REMARK  status: ('A' for Active; 'I' for Inactive)
REMARK    1  A    between atoms: C_1  and  C_2
REMARK    2  A    between atoms: C_2  and  C_3
REMARK    3  A    between atoms: C_3  and  C_4
REMARK    4  A    between atoms: C_3  and  C_17
REMARK    5  A    between atoms: N_6  and  C_7
REMARK    6  A    between atoms: C_10  and  S_11
REMARK    7  A    between atoms: S_11  and  N_12
REMARK    8  A    between atoms: C_17  and  C_18
REMARK    9  A    between atoms: C_17  and  C_19
REMARK   10  A    between atoms: C_17  and  C_20
REMARK                            x       y       z     vdW  Elec       q    Type
REMARK                         _______ _______ _______ _____ _____    ______ ____
ROOT
ATOM      1  C   UNL     1       2.308   7.579  19.101  0.00  0.00    +0.000 A 
ATOM      2  C   UNL     1       1.703   7.953  20.305  0.00  0.00    +0.000 A 
ATOM      3  C   UNL     1       0.875   9.072  20.382  0.00  0.00    +0.000 A 
ATOM      4  C   UNL     1       0.663   9.847  19.246  0.00  0.00    +0.000 A 
ATOM      5  C   UNL     1       1.279   9.515  18.038  0.00  0.00    +0.000 A 
ATOM      6  C   UNL     1       2.115   8.387  17.971  0.00  0.00    +0.000 A 
ENDROOT
BRANCH   1   9
ATOM      7  C   UNL     1       2.714   5.230  18.389  0.00  0.00    +0.000 C 
ATOM      8  O   UNL     1       1.646   5.058  17.802  0.00  0.00    +0.000 OA
ATOM      9  N   UNL     1       3.113   6.418  18.986  0.00  0.00    +0.000 N 
ATOM     10  H   UNL     1       4.081   6.503  19.266  0.00  0.00    +0.000 HD
BRANCH   7  11
ATOM     11  C   UNL     1       3.708   4.069  18.530  0.00  0.00    +0.000 C 
BRANCH  11  12
ATOM     12  C   UNL     1       3.186   3.001  19.573  0.00  0.00    +0.000 C 
ATOM     13  C   UNL     1       4.370   2.221  20.186  0.00  0.00    +0.000 C 
ATOM     14  C   UNL     1       2.442   3.671  20.749  0.00  0.00    +0.000 C 
ATOM     15  C   UNL     1       2.222   1.981  18.929  0.00  0.00    +0.000 C 
ENDBRANCH  11  12
BRANCH  11  17
ATOM     16  C   UNL     1       5.208   3.977  16.417  0.00  0.00    +0.000 C 
ATOM     17  C   UNL     1       3.962   3.453  17.124  0.00  0.00    +0.000 C 
ENDBRANCH  11  17
ENDBRANCH   7  11
ENDBRANCH   1   9
BRANCH   4  18
ATOM     18  S   UNL     1      -0.442  11.221  19.361  0.00  0.00    +0.000 S 
ATOM     19  O   UNL     1      -0.906  11.346  20.725  0.00  0.00    +0.000 OA
ATOM     20  O   UNL     1       0.096  12.334  18.621  0.00  0.00    +0.000 OA
BRANCH  18  21
ATOM     21  N   UNL     1      -1.758  10.672  18.473  0.00  0.00    +0.000 NA
ATOM     22  H   UNL     1      -1.505   9.821  17.971  0.00  0.00    +0.000 HD
ATOM     23  H   UNL     1      -2.568  10.568  19.085  0.00  0.00    +0.000 HD
ENDBRANCH  18  21
ENDBRANCH   4  18
TORSDOF 6
ENDMDL
MODEL 9
REMARK VINA RESULT:      -6.2      1.863      3.251
REMARK  Name = 
REMARK  10 active torsions:
REMARK  status: ('A' for Active; 'I' for Inactive)
REMARK    1  A    between atoms: C_1  and  C_2
REMARK    2  A    between atoms: C_2  and  C_3
REMARK    3  A    between atoms: C_3  and  C_4
REMARK    4  A    between atoms: C_3  and  C_17
REMARK    5  A    between atoms: N_6  and  C_7
REMARK    6  A    between atoms: C_10  and  S_11
REMARK    7  A    between atoms: S_11  and  N_12
REMARK    8  A    between atoms: C_17  and  C_18
REMARK    9  A    between atoms: C_17  and  C_19
REMARK   10  A    between atoms: C_17  and  C_20
REMARK                            x       y       z     vdW  Elec       q    Type
REMARK                         _______ _______ _______ _____ _____    ______ ____
ROOT
ATOM      1  C   UNL     1       2.077   7.294  18.813  0.00  0.00    +0.000 A 
ATOM      2  C   UNL     1       1.862   7.119  20.184  0.00  0.00    +0.000 A 
ATOM      3  C   UNL     1       1.347   8.147  20.971  0.00  0.00    +0.000 A 
ATOM      4  C   UNL     1       1.062   9.379  20.392  0.00  0.00    +0.000 A 
ATOM      5  C   UNL     1       1.297   9.592  19.031  0.00  0.00    +0.000 A 
ATOM      6  C   UNL     1       1.820   8.550  18.245  0.00  0.00    +0.000 A 
ENDROOT
BRANCH   1   9
ATOM      7  C   UNL     1       3.689   5.491  18.228  0.00  0.00    +0.000 C 
ATOM      8  O   UNL     1       4.380   5.564  19.244  0.00  0.00    +0.000 OA
ATOM      9  N   UNL     1       2.552   6.249  17.982  0.00  0.00    +0.000 N 
ATOM     10  H   UNL     1       1.959   5.971  17.211  0.00  0.00    +0.000 HD
BRANCH   7  11
ATOM     11  C   UNL     1       4.082   4.527  17.100  0.00  0.00    +0.000 C 
BRANCH  11  12
ATOM     12  C   UNL     1       5.397   5.017  16.371  0.00  0.00    +0.000 C 
ATOM     13  C   UNL     1       5.394   6.556  16.230  0.00  0.00    +0.000 C 
ATOM     14  C   UNL     1       6.664   4.650  17.173  0.00  0.00    +0.000 C 
ATOM     15  C   UNL     1       5.542   4.406  14.960  0.00  0.00    +0.000 C 
ENDBRANCH  11  12
BRANCH  11  17
ATOM     16  C   UNL     1       2.911   2.345  17.866  0.00  0.00    +0.000 C 
ATOM     17  C   UNL     1       4.227   3.096  17.692  0.00  0.00    +0.000 C 
ENDBRANCH  11  17
ENDBRANCH   7  11
ENDBRANCH   1   9
BRANCH   4  18
ATOM     18  S   UNL     1       0.350  10.641  21.404  0.00  0.00    +0.000 S 
ATOM     19  O   UNL     1      -0.930  11.025  20.853  0.00  0.00    +0.000 OA
ATOM     20  O   UNL     1       0.525  10.298  22.792  0.00  0.00    +0.000 OA
BRANCH  18  21
ATOM     21  N   UNL     1       1.384  11.932  21.114  0.00  0.00    +0.000 NA
ATOM     22  H   UNL     1       0.853  12.802  21.096  0.00  0.00    +0.000 HD
ATOM     23  H   UNL     1       2.147  11.923  21.791  0.00  0.00    +0.000 HD
ENDBRANCH  18  21
ENDBRANCH   4  18
TORSDOF 6
ENDMDL
