MODEL 1
REMARK VINA RESULT:      -5.3      0.000      0.000
REMARK  Name = 
REMARK  6 active torsions:
REMARK  status: ('A' for Active; 'I' for Inactive)
REMARK    1  A    between atoms: N_1  and  C_2
REMARK    2  A    between atoms: C_5  and  N_6
REMARK    3  A    between atoms: N_6  and  C_7
REMARK    4  A    between atoms: N_6  and  C_10
REMARK    5  A    between atoms: C_7  and  C_8
REMARK    6  A    between atoms: C_10  and  C_11
REMARK                            x       y       z     vdW  Elec       q    Type
REMARK                         _______ _______ _______ _____ _____    ______ ____
ROOT
ATOM      1  C   UNL     1       6.823   4.905  15.749  0.00  0.00    +0.000 A 
ATOM      2  C   UNL     1       5.452   4.795  15.527  0.00  0.00    +0.000 A 
ATOM      3  C   UNL     1       4.570   4.497  16.576  0.00  0.00    +0.000 A 
ATOM      4  C   UNL     1       5.009   4.338  17.899  0.00  0.00    +0.000 A 
ATOM      5  C   UNL     1       6.390   4.500  18.104  0.00  0.00    +0.000 A 
ATOM      6  C   UNL     1       7.276   4.802  17.059  0.00  0.00    +0.000 A 
ENDROOT
BRANCH   1   7
ATOM      7  N   UNL     1       7.683   5.341  14.736  0.00  0.00    +0.000 N 
ATOM      8  H   UNL     1       7.988   6.304  14.842  0.00  0.00    +0.000 HD
ATOM      9  H   UNL     1       7.348   5.145  13.802  0.00  0.00    +0.000 HD
ENDBRANCH   1   7
BRANCH   4  10
ATOM     10  N   UNL     1       4.149   4.073  18.959  0.00  0.00    +0.000 N 
BRANCH  10  11
ATOM     11  C   UNL     1       3.462   5.136  19.715  0.00  0.00    +0.000 C 
BRANCH  11  12
ATOM     12  C   UNL     1       2.221   4.625  20.460  0.00  0.00    +0.000 C 
ATOM     13  F   UNL     1       1.198   4.387  19.595  0.00  0.00    +0.000 F 
ENDBRANCH  11  12
ENDBRANCH  10  11
BRANCH  10  14
ATOM     14  C   UNL     1       4.098   2.708  19.532  0.00  0.00    +0.000 C 
BRANCH  14  15
ATOM     15  C   UNL     1       3.511   1.665  18.584  0.00  0.00    +0.000 C 
ATOM     16  F   UNL     1       2.451   2.218  17.927  0.00  0.00    +0.000 F 
ENDBRANCH  14  15
ENDBRANCH  10  14
ENDBRANCH   4  10
TORSDOF 6
ENDMDL
MODEL 2
REMARK VINA RESULT:      -5.3      0.871      2.426
REMARK  Name = 
REMARK  6 active torsions:
REMARK  status: ('A' for Active; 'I' for Inactive)
REMARK    1  A    between atoms: N_1  and  C_2
REMARK    2  A    between atoms: C_5  and  N_6
REMARK    3  A    between atoms: N_6  and  C_7
REMARK    4  A    between atoms: N_6  and  C_10
REMARK    5  A    between atoms: C_7  and  C_8
REMARK    6  A    between atoms: C_10  and  C_11
REMARK                            x       y       z     vdW  Elec       q    Type
REMARK                         _______ _______ _______ _____ _____    ______ ____
ROOT
ATOM      1  C   UNL     1       6.740   5.108  15.617  0.00  0.00    +0.000 A 
ATOM      2  C   UNL     1       7.051   5.412  16.941  0.00  0.00    +0.000 A 
ATOM      3  C   UNL     1       6.202   5.032  17.990  0.00  0.00    +0.000 A 
ATOM      4  C   UNL     1       5.028   4.296  17.772  0.00  0.00    +0.000 A 
ATOM      5  C   UNL     1       4.761   3.962  16.433  0.00  0.00    +0.000 A 
ATOM      6  C   UNL     1       5.609   4.335  15.380  0.00  0.00    +0.000 A 
ENDROOT
BRANCH   1   7
ATOM      7  N   UNL     1       7.653   5.359  14.588  0.00  0.00    +0.000 N 
ATOM      8  H   UNL     1       7.429   6.177  14.030  0.00  0.00    +0.000 HD
ATOM      9  H   UNL     1       7.858   4.549  14.016  0.00  0.00    +0.000 HD
ENDBRANCH   1   7
BRANCH   4  10
ATOM     10  N   UNL     1       4.187   3.883  18.799  0.00  0.00    +0.000 N 
BRANCH  10  11
ATOM     11  C   UNL     1       3.945   2.462  19.110  0.00  0.00    +0.000 C 
BRANCH  11  12
ATOM     12  C   UNL     1       2.512   2.019  18.782  0.00  0.00    +0.000 C 
ATOM     13  F   UNL     1       2.314   1.972  17.437  0.00  0.00    +0.000 F 
ENDBRANCH  11  12
ENDBRANCH  10  11
BRANCH  10  14
ATOM     14  C   UNL     1       3.296   4.869  19.454  0.00  0.00    +0.000 C 
BRANCH  14  15
ATOM     15  C   UNL     1       2.569   5.786  18.473  0.00  0.00    +0.000 C 
ATOM     16  F   UNL     1       1.763   5.026  17.679  0.00  0.00    +0.000 F 
ENDBRANCH  14  15
ENDBRANCH  10  14
ENDBRANCH   4  10
TORSDOF 6
ENDMDL
MODEL 3
REMARK VINA RESULT:      -5.3      0.809      1.507
REMARK  Name = 
REMARK  6 active torsions:
REMARK  status: ('A' for Active; 'I' for Inactive)
REMARK    1  A    between atoms: N_1  and  C_2
REMARK    2  A    between atoms: C_5  and  N_6
REMARK    3  A    between atoms: N_6  and  C_7
REMARK    4  A    between atoms: N_6  and  C_10
REMARK    5  A    between atoms: C_7  and  C_8
REMARK    6  A    between atoms: C_10  and  C_11
REMARK                            x       y       z     vdW  Elec       q    Type
REMARK                         _______ _______ _______ _____ _____    ______ ____
ROOT
ATOM      1  C   UNL     1       6.791   5.193  15.626  0.00  0.00    +0.000 A 
ATOM      2  C   UNL     1       7.160   5.463  16.942  0.00  0.00    +0.000 A 
ATOM      3  C   UNL     1       6.307   5.154  18.012  0.00  0.00    +0.000 A 
ATOM      4  C   UNL     1       5.068   4.524  17.821  0.00  0.00    +0.000 A 
ATOM      5  C   UNL     1       4.740   4.221  16.489  0.00  0.00    +0.000 A 
ATOM      6  C   UNL     1       5.591   4.523  15.416  0.00  0.00    +0.000 A 
ENDROOT
BRANCH   1   7
ATOM      7  N   UNL     1       7.696   5.368  14.574  0.00  0.00    +0.000 N 
ATOM      8  H   UNL     1       7.305   5.848  13.770  0.00  0.00    +0.000 HD
ATOM      9  H   UNL     1       8.190   4.522  14.315  0.00  0.00    +0.000 HD
ENDBRANCH   1   7
BRANCH   4  10
ATOM     10  N   UNL     1       4.220   4.182  18.868  0.00  0.00    +0.000 N 
BRANCH  10  11
ATOM     11  C   UNL     1       3.549   5.187  19.714  0.00  0.00    +0.000 C 
BRANCH  11  12
ATOM     12  C   UNL     1       2.557   6.055  18.926  0.00  0.00    +0.000 C 
ATOM     13  F   UNL     1       1.858   5.305  18.032  0.00  0.00    +0.000 F 
ENDBRANCH  11  12
ENDBRANCH  10  11
BRANCH  10  14
ATOM     14  C   UNL     1       4.168   2.777  19.335  0.00  0.00    +0.000 C 
BRANCH  14  15
ATOM     15  C   UNL     1       2.871   2.057  18.972  0.00  0.00    +0.000 C 
ATOM     16  F   UNL     1       2.968   1.602  17.690  0.00  0.00    +0.000 F 
ENDBRANCH  14  15
ENDBRANCH  10  14
ENDBRANCH   4  10
TORSDOF 6
ENDMDL
MODEL 4
REMARK VINA RESULT:      -5.3      0.399      2.452
REMARK  Name = 
REMARK  6 active torsions:
REMARK  status: ('A' for Active; 'I' for Inactive)
REMARK    1  A    between atoms: N_1  and  C_2
REMARK    2  A    between atoms: C_5  and  N_6
REMARK    3  A    between atoms: N_6  and  C_7
REMARK    4  A    between atoms: N_6  and  C_10
REMARK    5  A    between atoms: C_7  and  C_8
REMARK    6  A    between atoms: C_10  and  C_11
REMARK                            x       y       z     vdW  Elec       q    Type
REMARK                         _______ _______ _______ _____ _____    ______ ____
ROOT
ATOM      1  C   UNL     1       6.727   5.240  15.975  0.00  0.00    +0.000 A 
ATOM      2  C   UNL     1       7.242   4.781  17.185  0.00  0.00    +0.000 A 
ATOM      3  C   UNL     1       6.397   4.483  18.265  0.00  0.00    +0.000 A 
ATOM      4  C   UNL     1       5.001   4.588  18.173  0.00  0.00    +0.000 A 
ATOM      5  C   UNL     1       4.505   5.008  16.927  0.00  0.00    +0.000 A 
ATOM      6  C   UNL     1       5.344   5.303  15.842  0.00  0.00    +0.000 A 
ENDROOT
BRANCH   1   7
ATOM      7  N   UNL     1       7.551   5.399  14.856  0.00  0.00    +0.000 N 
ATOM      8  H   UNL     1       8.432   4.899  14.919  0.00  0.00    +0.000 HD
ATOM      9  H   UNL     1       7.676   6.364  14.574  0.00  0.00    +0.000 HD
ENDBRANCH   1   7
BRANCH   4  10
ATOM     10  N   UNL     1       4.144   4.270  19.220  0.00  0.00    +0.000 N 
BRANCH  10  11
ATOM     11  C   UNL     1       3.956   2.890  19.706  0.00  0.00    +0.000 C 
BRANCH  11  12
ATOM     12  C   UNL     1       3.403   1.952  18.624  0.00  0.00    +0.000 C 
ATOM     13  F   UNL     1       2.378   2.539  17.948  0.00  0.00    +0.000 F 
ENDBRANCH  11  12
ENDBRANCH  10  11
BRANCH  10  14
ATOM     14  C   UNL     1       3.187   5.287  19.715  0.00  0.00    +0.000 C 
BRANCH  14  15
ATOM     15  C   UNL     1       2.248   4.768  20.801  0.00  0.00    +0.000 C 
ATOM     16  F   UNL     1       1.037   4.494  20.238  0.00  0.00    +0.000 F 
ENDBRANCH  14  15
ENDBRANCH  10  14
ENDBRANCH   4  10
TORSDOF 6
ENDMDL
MODEL 5
REMARK VINA RESULT:      -5.2      1.637      2.586
REMARK  Name = 
REMARK  6 active torsions:
REMARK  status: ('A' for Active; 'I' for Inactive)
REMARK    1  A    between atoms: N_1  and  C_2
REMARK    2  A    between atoms: C_5  and  N_6
REMARK    3  A    between atoms: N_6  and  C_7
REMARK    4  A    between atoms: N_6  and  C_10
REMARK    5  A    between atoms: C_7  and  C_8
REMARK    6  A    between atoms: C_10  and  C_11
REMARK                            x       y       z     vdW  Elec       q    Type
REMARK                         _______ _______ _______ _____ _____    ______ ____
ROOT
ATOM      1  C   UNL     1       6.163   6.463  17.431  0.00  0.00    +0.000 A 
ATOM      2  C   UNL     1       4.836   6.452  17.007  0.00  0.00    +0.000 A 
ATOM      3  C   UNL     1       3.891   5.607  17.608  0.00  0.00    +0.000 A 
ATOM      4  C   UNL     1       4.217   4.768  18.685  0.00  0.00    +0.000 A 
ATOM      5  C   UNL     1       5.550   4.833  19.123  0.00  0.00    +0.000 A 
ATOM      6  C   UNL     1       6.498   5.680  18.529  0.00  0.00    +0.000 A 
ENDROOT
BRANCH   1   7
ATOM      7  N   UNL     1       7.069   7.404  16.931  0.00  0.00    +0.000 N 
ATOM      8  H   UNL     1       6.750   8.364  17.008  0.00  0.00    +0.000 HD
ATOM      9  H   UNL     1       7.414   7.188  16.004  0.00  0.00    +0.000 HD
ENDBRANCH   1   7
BRANCH   4  10
ATOM     10  N   UNL     1       3.291   3.946  19.315  0.00  0.00    +0.000 N 
BRANCH  10  11
ATOM     11  C   UNL     1       3.499   2.496  19.489  0.00  0.00    +0.000 C 
BRANCH  11  12
ATOM     12  C   UNL     1       3.521   1.737  18.155  0.00  0.00    +0.000 C 
ATOM     13  F   UNL     1       2.381   1.961  17.449  0.00  0.00    +0.000 F 
ENDBRANCH  11  12
ENDBRANCH  10  11
BRANCH  10  14
ATOM     14  C   UNL     1       1.933   4.463  19.606  0.00  0.00    +0.000 C 
BRANCH  14  15
ATOM     15  C   UNL     1       1.076   3.508  20.433  0.00  0.00    +0.000 C 
ATOM     16  F   UNL     1       0.260   2.811  19.591  0.00  0.00    +0.000 F 
ENDBRANCH  14  15
ENDBRANCH  10  14
ENDBRANCH   4  10
TORSDOF 6
ENDMDL
MODEL 6
REMARK VINA RESULT:      -5.2      0.723      2.064
REMARK  Name = 
REMARK  6 active torsions:
REMARK  status: ('A' for Active; 'I' for Inactive)
REMARK    1  A    between atoms: N_1  and  C_2
REMARK    2  A    between atoms: C_5  and  N_6
REMARK    3  A    between atoms: N_6  and  C_7
REMARK    4  A    between atoms: N_6  and  C_10
REMARK    5  A    between atoms: C_7  and  C_8
REMARK    6  A    between atoms: C_10  and  C_11
REMARK                            x       y       z     vdW  Elec       q    Type
REMARK                         _______ _______ _______ _____ _____    ______ ____
ROOT
ATOM      1  C   UNL     1       6.829   4.863  15.732  0.00  0.00    +0.000 A 
ATOM      2  C   UNL     1       5.462   4.632  15.593  0.00  0.00    +0.000 A 
ATOM      3  C   UNL     1       4.659   4.340  16.706  0.00  0.00    +0.000 A 
ATOM      4  C   UNL     1       5.175   4.308  18.010  0.00  0.00    +0.000 A 
ATOM      5  C   UNL     1       6.546   4.590  18.128  0.00  0.00    +0.000 A 
ATOM      6  C   UNL     1       7.352   4.887  17.020  0.00  0.00    +0.000 A 
ENDROOT
BRANCH   1   7
ATOM      7  N   UNL     1       7.600   5.293  14.648  0.00  0.00    +0.000 N 
ATOM      8  H   UNL     1       7.838   4.555  13.993  0.00  0.00    +0.000 HD
ATOM      9  H   UNL     1       8.406   5.846  14.913  0.00  0.00    +0.000 HD
ENDBRANCH   1   7
BRANCH   4  10
ATOM     10  N   UNL     1       4.393   4.051  19.130  0.00  0.00    +0.000 N 
BRANCH  10  11
ATOM     11  C   UNL     1       4.223   2.697  19.692  0.00  0.00    +0.000 C 
BRANCH  11  12
ATOM     12  C   UNL     1       3.605   1.713  18.688  0.00  0.00    +0.000 C 
ATOM     13  F   UNL     1       2.268   1.580  18.898  0.00  0.00    +0.000 F 
ENDBRANCH  11  12
ENDBRANCH  10  11
BRANCH  10  14
ATOM     14  C   UNL     1       3.488   5.105  19.646  0.00  0.00    +0.000 C 
BRANCH  14  15
ATOM     15  C   UNL     1       2.026   4.906  19.251  0.00  0.00    +0.000 C 
ATOM     16  F   UNL     1       1.840   5.406  17.996  0.00  0.00    +0.000 F 
ENDBRANCH  14  15
ENDBRANCH  10  14
ENDBRANCH   4  10
TORSDOF 6
ENDMDL
MODEL 7
REMARK VINA RESULT:      -5.2      1.578      2.457
REMARK  Name = 
REMARK  6 active torsions:
REMARK  status: ('A' for Active; 'I' for Inactive)
REMARK    1  A    between atoms: N_1  and  C_2
REMARK    2  A    between atoms: C_5  and  N_6
REMARK    3  A    between atoms: N_6  and  C_7
REMARK    4  A    between atoms: N_6  and  C_10
REMARK    5  A    between atoms: C_7  and  C_8
REMARK    6  A    between atoms: C_10  and  C_11
REMARK                            x       y       z     vdW  Elec       q    Type
REMARK                         _______ _______ _______ _____ _____    ______ ____
ROOT
ATOM      1  C   UNL     1       6.150   5.236  15.620  0.00  0.00    +0.000 A 
ATOM      2  C   UNL     1       5.543   6.313  16.262  0.00  0.00    +0.000 A 
ATOM      3  C   UNL     1       4.495   6.115  17.174  0.00  0.00    +0.000 A 
ATOM      4  C   UNL     1       4.035   4.835  17.517  0.00  0.00    +0.000 A 
ATOM      5  C   UNL     1       4.694   3.765  16.889  0.00  0.00    +0.000 A 
ATOM      6  C   UNL     1       5.745   3.956  15.981  0.00  0.00    +0.000 A 
ENDROOT
BRANCH   1   7
ATOM      7  N   UNL     1       7.285   5.420  14.823  0.00  0.00    +0.000 N 
ATOM      8  H   UNL     1       7.544   4.602  14.281  0.00  0.00    +0.000 HD
ATOM      9  H   UNL     1       8.072   5.818  15.319  0.00  0.00    +0.000 HD
ENDBRANCH   1   7
BRANCH   4  10
ATOM     10  N   UNL     1       3.019   4.614  18.439  0.00  0.00    +0.000 N 
BRANCH  10  11
ATOM     11  C   UNL     1       1.694   4.090  18.058  0.00  0.00    +0.000 C 
BRANCH  11  12
ATOM     12  C   UNL     1       1.547   2.588  18.340  0.00  0.00    +0.000 C 
ATOM     13  F   UNL     1       0.291   2.294  18.771  0.00  0.00    +0.000 F 
ENDBRANCH  11  12
ENDBRANCH  10  11
BRANCH  10  14
ATOM     14  C   UNL     1       3.153   5.149  19.815  0.00  0.00    +0.000 C 
BRANCH  14  15
ATOM     15  C   UNL     1       1.819   5.326  20.537  0.00  0.00    +0.000 C 
ATOM     16  F   UNL     1       1.626   4.261  21.366  0.00  0.00    +0.000 F 
ENDBRANCH  14  15
ENDBRANCH  10  14
ENDBRANCH   4  10
TORSDOF 6
ENDMDL
MODEL 8
REMARK VINA RESULT:      -5.2      1.559      2.009
REMARK  Name = 
REMARK  6 active torsions:
REMARK  status: ('A' for Active; 'I' for Inactive)
REMARK    1  A    between atoms: N_1  and  C_2
REMARK    2  A    between atoms: C_5  and  N_6
REMARK    3  A    between atoms: N_6  and  C_7
REMARK    4  A    between atoms: N_6  and  C_10
REMARK    5  A    between atoms: C_7  and  C_8
REMARK    6  A    between atoms: C_10  and  C_11
REMARK                            x       y       z     vdW  Elec       q    Type
REMARK                         _______ _______ _______ _____ _____    ______ ____
ROOT
ATOM      1  C   UNL     1       6.641   6.556  17.443  0.00  0.00    +0.000 A 
ATOM      2  C   UNL     1       6.939   5.831  18.595  0.00  0.00    +0.000 A 
ATOM      3  C   UNL     1       5.961   5.057  19.237  0.00  0.00    +0.000 A 
ATOM      4  C   UNL     1       4.655   4.939  18.737  0.00  0.00    +0.000 A 
ATOM      5  C   UNL     1       4.394   5.643  17.550  0.00  0.00    +0.000 A 
ATOM      6  C   UNL     1       5.369   6.414  16.901  0.00  0.00    +0.000 A 
ENDROOT
BRANCH   1   7
ATOM      7  N   UNL     1       7.647   7.209  16.724  0.00  0.00    +0.000 N 
ATOM      8  H   UNL     1       8.577   7.082  17.109  0.00  0.00    +0.000 HD
ATOM      9  H   UNL     1       7.443   8.181  16.526  0.00  0.00    +0.000 HD
ENDBRANCH   1   7
BRANCH   4  10
ATOM     10  N   UNL     1       3.679   4.155  19.341  0.00  0.00    +0.000 N 
BRANCH  10  11
ATOM     11  C   UNL     1       2.472   4.725  19.968  0.00  0.00    +0.000 C 
BRANCH  11  12
ATOM     12  C   UNL     1       2.136   4.064  21.313  0.00  0.00    +0.000 C 
ATOM     13  F   UNL     1       1.009   3.309  21.215  0.00  0.00    +0.000 F 
ENDBRANCH  11  12
ENDBRANCH  10  11
BRANCH  10  14
ATOM     14  C   UNL     1       3.951   2.722  19.601  0.00  0.00    +0.000 C 
BRANCH  14  15
ATOM     15  C   UNL     1       3.278   1.779  18.606  0.00  0.00    +0.000 C 
ATOM     16  F   UNL     1       1.998   1.551  19.017  0.00  0.00    +0.000 F 
ENDBRANCH  14  15
ENDBRANCH  10  14
ENDBRANCH   4  10
TORSDOF 6
ENDMDL
MODEL 9
REMARK VINA RESULT:      -5.2      1.609      2.551
REMARK  Name = 
REMARK  6 active torsions:
REMARK  status: ('A' for Active; 'I' for Inactive)
REMARK    1  A    between atoms: N_1  and  C_2
REMARK    2  A    between atoms: C_5  and  N_6
REMARK    3  A    between atoms: N_6  and  C_7
REMARK    4  A    between atoms: N_6  and  C_10
REMARK    5  A    between atoms: C_7  and  C_8
REMARK    6  A    between atoms: C_10  and  C_11
REMARK                            x       y       z     vdW  Elec       q    Type
REMARK                         _______ _______ _______ _____ _____    ______ ____
ROOT
ATOM      1  C   UNL     1       6.272   5.342  15.910  0.00  0.00    +0.000 A 
ATOM      2  C   UNL     1       5.694   4.086  16.080  0.00  0.00    +0.000 A 
ATOM      3  C   UNL     1       4.526   3.924  16.840  0.00  0.00    +0.000 A 
ATOM      4  C   UNL     1       3.861   5.009  17.428  0.00  0.00    +0.000 A 
ATOM      5  C   UNL     1       4.439   6.270  17.203  0.00  0.00    +0.000 A 
ATOM      6  C   UNL     1       5.603   6.439  16.440  0.00  0.00    +0.000 A 
ENDROOT
BRANCH   1   7
ATOM      7  N   UNL     1       7.351   5.526  15.038  0.00  0.00    +0.000 N 
ATOM      8  H   UNL     1       7.519   4.738  14.420  0.00  0.00    +0.000 HD
ATOM      9  H   UNL     1       8.196   5.844  15.494  0.00  0.00    +0.000 HD
ENDBRANCH   1   7
BRANCH   4  10
ATOM     10  N   UNL     1       2.687   4.875  18.160  0.00  0.00    +0.000 N 
BRANCH  10  11
ATOM     11  C   UNL     1       1.550   4.053  17.703  0.00  0.00    +0.000 C 
BRANCH  11  12
ATOM     12  C   UNL     1       1.551   2.647  18.319  0.00  0.00    +0.000 C 
ATOM     13  F   UNL     1       0.311   2.310  18.763  0.00  0.00    +0.000 F 
ENDBRANCH  11  12
ENDBRANCH  10  11
BRANCH  10  14
ATOM     14  C   UNL     1       2.439   5.772  19.313  0.00  0.00    +0.000 C 
BRANCH  14  15
ATOM     15  C   UNL     1       2.322   5.039  20.647  0.00  0.00    +0.000 C 
ATOM     16  F   UNL     1       1.009   4.751  20.875  0.00  0.00    +0.000 F 
ENDBRANCH  14  15
ENDBRANCH  10  14
ENDBRANCH   4  10
TORSDOF 6
ENDMDL
