MODEL 1
REMARK VINA RESULT:      -8.3      0.000      0.000
REMARK  Name = 
REMARK  12 active torsions:
REMARK  status: ('A' for Active; 'I' for Inactive)
REMARK    1  A    between atoms: C_1  and  O_2
REMARK    2  A    between atoms: O_2  and  C_3
REMARK    3  A    between atoms: C_5  and  C_6
REMARK    4  A    between atoms: N_10  and  C_11
REMARK    5  A    between atoms: C_14  and  N_15
REMARK    6  A    between atoms: C_21  and  C_22
REMARK    7  A    between atoms: N_25  and  C_26
REMARK    8  A    between atoms: C_26  and  C_27
REMARK    9  A    between atoms: C_27  and  C_28
REMARK   10  A    between atoms: C_27  and  C_29
REMARK   11  A    between atoms: C_27  and  O_30
REMARK   12  A    between atoms: O_30  and  C_31
REMARK                            x       y       z     vdW  Elec       q    Type
REMARK                         _______ _______ _______ _____ _____    ______ ____
ROOT
ATOM      1  N   UNL     1       0.669   7.656  21.462  0.00  0.00    +0.000 N 
ATOM      2  C   UNL     1       0.186   8.936  21.737  0.00  0.00    +0.000 A 
ATOM      3  N   UNL     1       0.042   9.247  23.032  0.00  0.00    +0.000 NA
ATOM      4  C   UNL     1      -0.527  10.437  23.303  0.00  0.00    +0.000 A 
ATOM      5  C   UNL     1      -0.968  11.322  22.334  0.00  0.00    +0.000 A 
ATOM      6  C   UNL     1      -1.622  12.527  22.621  0.00  0.00    +0.000 A 
ATOM      7  C   UNL     1      -2.049  13.311  21.561  0.00  0.00    +0.000 A 
ATOM      8  C   UNL     1      -2.784  14.594  21.811  0.00  0.00    +0.000 C 
ATOM      9  N   UNL     1      -1.829  12.968  20.268  0.00  0.00    +0.000 NA
ATOM     10  C   UNL     1      -1.180  11.801  20.010  0.00  0.00    +0.000 A 
ATOM     11  N   UNL     1      -0.822  11.481  18.679  0.00  0.00    +0.000 N 
ATOM     12  C   UNL     1      -0.735  10.929  21.022  0.00  0.00    +0.000 A 
ATOM     13  N   UNL     1      -0.154   9.749  20.731  0.00  0.00    +0.000 NA
ATOM     14  H   UNL     1       1.039   7.300  22.334  0.00  0.00    +0.000 HD
ATOM     15  H   UNL     1      -0.698  10.464  18.619  0.00  0.00    +0.000 HD
ENDROOT
BRANCH   1  21
ATOM     16  C   UNL     1       1.923   5.943  20.198  0.00  0.00    +0.000 A 
ATOM     17  C   UNL     1       2.792   5.640  19.134  0.00  0.00    +0.000 A 
ATOM     18  C   UNL     1       3.223   6.623  18.233  0.00  0.00    +0.000 A 
ATOM     19  C   UNL     1       2.670   7.898  18.342  0.00  0.00    +0.000 A 
ATOM     20  C   UNL     1       1.805   8.211  19.392  0.00  0.00    +0.000 A 
ATOM     21  C   UNL     1       1.424   7.251  20.344  0.00  0.00    +0.000 A 
BRANCH  18  22
ATOM     22  C   UNL     1       4.268   6.314  17.256  0.00  0.00    +0.000 A 
ATOM     23  N   UNL     1       5.055   7.192  16.659  0.00  0.00    +0.000 NA
ATOM     24  N   UNL     1       5.861   6.533  15.763  0.00  0.00    +0.000 NA
ATOM     25  C   UNL     1       5.540   5.263  15.807  0.00  0.00    +0.000 A 
ATOM     26  N   UNL     1       4.550   5.075  16.721  0.00  0.00    +0.000 N 
ATOM     27  C   UNL     1       3.891   3.820  16.973  0.00  0.00    +0.000 C 
ENDBRANCH  18  22
BRANCH  16  29
ATOM     28  C   UNL     1       1.114   3.687  20.333  0.00  0.00    +0.000 C 
ATOM     29  O   UNL     1       1.640   4.841  20.966  0.00  0.00    +0.000 OA
ENDBRANCH  16  29
ENDBRANCH   1  21
BRANCH  11  30
ATOM     30  C   UNL     1      -1.748  11.938  17.642  0.00  0.00    +0.000 C 
BRANCH  30  31
ATOM     31  C   UNL     1      -2.416  10.710  16.939  0.00  0.00    +0.000 C 
ATOM     32  C   UNL     1      -1.466   9.509  17.061  0.00  0.00    +0.000 C 
ATOM     33  C   UNL     1      -3.759  10.394  17.616  0.00  0.00    +0.000 C 
BRANCH  31  34
ATOM     34  O   UNL     1      -2.595  11.073  15.552  0.00  0.00    +0.000 OA
ATOM     35  C   UNL     1      -3.092  10.065  14.681  0.00  0.00    +0.000 C 
ENDBRANCH  31  34
ENDBRANCH  30  31
ENDBRANCH  11  30
TORSDOF 6
ENDMDL
MODEL 2
REMARK VINA RESULT:      -8.2      0.896      1.283
REMARK  Name = 
REMARK  12 active torsions:
REMARK  status: ('A' for Active; 'I' for Inactive)
REMARK    1  A    between atoms: C_1  and  O_2
REMARK    2  A    between atoms: O_2  and  C_3
REMARK    3  A    between atoms: C_5  and  C_6
REMARK    4  A    between atoms: N_10  and  C_11
REMARK    5  A    between atoms: C_14  and  N_15
REMARK    6  A    between atoms: C_21  and  C_22
REMARK    7  A    between atoms: N_25  and  C_26
REMARK    8  A    between atoms: C_26  and  C_27
REMARK    9  A    between atoms: C_27  and  C_28
REMARK   10  A    between atoms: C_27  and  C_29
REMARK   11  A    between atoms: C_27  and  O_30
REMARK   12  A    between atoms: O_30  and  C_31
REMARK                            x       y       z     vdW  Elec       q    Type
REMARK                         _______ _______ _______ _____ _____    ______ ____
ROOT
ATOM      1  N   UNL     1       0.837   7.666  21.258  0.00  0.00    +0.000 N 
ATOM      2  C   UNL     1       0.282   8.919  21.524  0.00  0.00    +0.000 A 
ATOM      3  N   UNL     1       0.070   9.209  22.814  0.00  0.00    +0.000 NA
ATOM      4  C   UNL     1      -0.565  10.368  23.072  0.00  0.00    +0.000 A 
ATOM      5  C   UNL     1      -1.007  11.242  22.093  0.00  0.00    +0.000 A 
ATOM      6  C   UNL     1      -1.728  12.412  22.362  0.00  0.00    +0.000 A 
ATOM      7  C   UNL     1      -2.148  13.186  21.292  0.00  0.00    +0.000 A 
ATOM      8  C   UNL     1      -2.952  14.430  21.523  0.00  0.00    +0.000 C 
ATOM      9  N   UNL     1      -1.858  12.867  20.007  0.00  0.00    +0.000 NA
ATOM     10  C   UNL     1      -1.145  11.734  19.766  0.00  0.00    +0.000 A 
ATOM     11  N   UNL     1      -0.718  11.446  18.448  0.00  0.00    +0.000 N 
ATOM     12  C   UNL     1      -0.702  10.874  20.788  0.00  0.00    +0.000 A 
ATOM     13  N   UNL     1      -0.053   9.725  20.512  0.00  0.00    +0.000 NA
ATOM     14  H   UNL     1       1.187   7.318  22.142  0.00  0.00    +0.000 HD
ATOM     15  H   UNL     1      -0.543  10.436  18.386  0.00  0.00    +0.000 HD
ENDROOT
BRANCH   1  21
ATOM     16  C   UNL     1       2.254   6.040  20.054  0.00  0.00    +0.000 A 
ATOM     17  C   UNL     1       3.177   5.793  19.021  0.00  0.00    +0.000 A 
ATOM     18  C   UNL     1       3.563   6.798  18.124  0.00  0.00    +0.000 A 
ATOM     19  C   UNL     1       2.914   8.029  18.202  0.00  0.00    +0.000 A 
ATOM     20  C   UNL     1       1.995   8.286  19.219  0.00  0.00    +0.000 A 
ATOM     21  C   UNL     1       1.655   7.309  20.169  0.00  0.00    +0.000 A 
BRANCH  18  22
ATOM     22  C   UNL     1       4.660   6.559  17.184  0.00  0.00    +0.000 A 
ATOM     23  N   UNL     1       4.608   6.725  15.874  0.00  0.00    +0.000 NA
ATOM     24  N   UNL     1       5.808   6.338  15.328  0.00  0.00    +0.000 NA
ATOM     25  C   UNL     1       6.570   5.919  16.308  0.00  0.00    +0.000 A 
ATOM     26  N   UNL     1       5.898   6.034  17.486  0.00  0.00    +0.000 N 
ATOM     27  C   UNL     1       6.396   5.589  18.762  0.00  0.00    +0.000 C 
ENDBRANCH  18  22
BRANCH  16  29
ATOM     28  C   UNL     1       1.000   4.030  20.442  0.00  0.00    +0.000 C 
ATOM     29  O   UNL     1       2.029   4.926  20.825  0.00  0.00    +0.000 OA
ENDBRANCH  16  29
ENDBRANCH   1  21
BRANCH  11  30
ATOM     30  C   UNL     1      -1.620  11.869  17.378  0.00  0.00    +0.000 C 
BRANCH  30  31
ATOM     31  C   UNL     1      -2.464  10.652  16.873  0.00  0.00    +0.000 C 
ATOM     32  C   UNL     1      -2.918  10.943  15.435  0.00  0.00    +0.000 C 
ATOM     33  C   UNL     1      -1.608   9.377  16.911  0.00  0.00    +0.000 C 
BRANCH  31  34
ATOM     34  O   UNL     1      -3.607  10.548  17.751  0.00  0.00    +0.000 OA
ATOM     35  C   UNL     1      -4.518  11.641  17.755  0.00  0.00    +0.000 C 
ENDBRANCH  31  34
ENDBRANCH  30  31
ENDBRANCH  11  30
TORSDOF 6
ENDMDL
MODEL 3
REMARK VINA RESULT:      -7.7      2.825      8.498
REMARK  Name = 
REMARK  12 active torsions:
REMARK  status: ('A' for Active; 'I' for Inactive)
REMARK    1  A    between atoms: C_1  and  O_2
REMARK    2  A    between atoms: O_2  and  C_3
REMARK    3  A    between atoms: C_5  and  C_6
REMARK    4  A    between atoms: N_10  and  C_11
REMARK    5  A    between atoms: C_14  and  N_15
REMARK    6  A    between atoms: C_21  and  C_22
REMARK    7  A    between atoms: N_25  and  C_26
REMARK    8  A    between atoms: C_26  and  C_27
REMARK    9  A    between atoms: C_27  and  C_28
REMARK   10  A    between atoms: C_27  and  C_29
REMARK   11  A    between atoms: C_27  and  O_30
REMARK   12  A    between atoms: O_30  and  C_31
REMARK                            x       y       z     vdW  Elec       q    Type
REMARK                         _______ _______ _______ _____ _____    ______ ____
ROOT
ATOM      1  N   UNL     1       0.988   7.143  21.174  0.00  0.00    +0.000 N 
ATOM      2  C   UNL     1       1.351   5.954  20.541  0.00  0.00    +0.000 A 
ATOM      3  N   UNL     1       0.576   4.891  20.795  0.00  0.00    +0.000 NA
ATOM      4  C   UNL     1       0.981   3.715  20.278  0.00  0.00    +0.000 A 
ATOM      5  C   UNL     1       2.135   3.557  19.529  0.00  0.00    +0.000 A 
ATOM      6  C   UNL     1       2.590   2.322  19.051  0.00  0.00    +0.000 A 
ATOM      7  C   UNL     1       3.781   2.289  18.343  0.00  0.00    +0.000 A 
ATOM      8  C   UNL     1       4.329   0.988  17.839  0.00  0.00    +0.000 C 
ATOM      9  N   UNL     1       4.496   3.408  18.073  0.00  0.00    +0.000 NA
ATOM     10  C   UNL     1       4.031   4.600  18.533  0.00  0.00    +0.000 A 
ATOM     11  N   UNL     1       4.687   5.797  18.157  0.00  0.00    +0.000 N 
ATOM     12  C   UNL     1       2.847   4.725  19.283  0.00  0.00    +0.000 A 
ATOM     13  N   UNL     1       2.449   5.913  19.780  0.00  0.00    +0.000 NA
ATOM     14  H   UNL     1       0.049   7.004  21.524  0.00  0.00    +0.000 HD
ATOM     15  H   UNL     1       4.460   6.515  18.853  0.00  0.00    +0.000 HD
ENDROOT
BRANCH   1  21
ATOM     16  C   UNL     1       1.102   9.583  21.551  0.00  0.00    +0.000 A 
ATOM     17  C   UNL     1       1.189  10.875  21.000  0.00  0.00    +0.000 A 
ATOM     18  C   UNL     1       1.328  11.079  19.620  0.00  0.00    +0.000 A 
ATOM     19  C   UNL     1       1.501   9.959  18.807  0.00  0.00    +0.000 A 
ATOM     20  C   UNL     1       1.421   8.673  19.341  0.00  0.00    +0.000 A 
ATOM     21  C   UNL     1       1.209   8.456  20.713  0.00  0.00    +0.000 A 
BRANCH  18  22
ATOM     22  C   UNL     1       1.226  12.430  19.065  0.00  0.00    +0.000 A 
ATOM     23  N   UNL     1       2.192  13.329  19.034  0.00  0.00    +0.000 NA
ATOM     24  N   UNL     1       1.700  14.495  18.498  0.00  0.00    +0.000 NA
ATOM     25  C   UNL     1       0.433  14.300  18.230  0.00  0.00    +0.000 A 
ATOM     26  N   UNL     1       0.088  13.027  18.568  0.00  0.00    +0.000 N 
ATOM     27  C   UNL     1      -1.246  12.490  18.489  0.00  0.00    +0.000 C 
ENDBRANCH  18  22
BRANCH  16  29
ATOM     28  C   UNL     1      -0.351   9.682  23.458  0.00  0.00    +0.000 C 
ATOM     29  O   UNL     1       0.956   9.610  22.915  0.00  0.00    +0.000 OA
ENDBRANCH  16  29
ENDBRANCH   1  21
BRANCH  11  30
ATOM     30  C   UNL     1       6.137   5.702  17.983  0.00  0.00    +0.000 C 
BRANCH  30  31
ATOM     31  C   UNL     1       6.515   5.941  16.483  0.00  0.00    +0.000 C 
ATOM     32  C   UNL     1       6.961   4.600  15.880  0.00  0.00    +0.000 C 
ATOM     33  C   UNL     1       5.296   6.485  15.722  0.00  0.00    +0.000 C 
BRANCH  31  34
ATOM     34  O   UNL     1       7.608   6.886  16.477  0.00  0.00    +0.000 OA
ATOM     35  C   UNL     1       7.660   7.817  17.550  0.00  0.00    +0.000 C 
ENDBRANCH  31  34
ENDBRANCH  30  31
ENDBRANCH  11  30
TORSDOF 6
ENDMDL
MODEL 4
REMARK VINA RESULT:      -7.7      4.192      9.539
REMARK  Name = 
REMARK  12 active torsions:
REMARK  status: ('A' for Active; 'I' for Inactive)
REMARK    1  A    between atoms: C_1  and  O_2
REMARK    2  A    between atoms: O_2  and  C_3
REMARK    3  A    between atoms: C_5  and  C_6
REMARK    4  A    between atoms: N_10  and  C_11
REMARK    5  A    between atoms: C_14  and  N_15
REMARK    6  A    between atoms: C_21  and  C_22
REMARK    7  A    between atoms: N_25  and  C_26
REMARK    8  A    between atoms: C_26  and  C_27
REMARK    9  A    between atoms: C_27  and  C_28
REMARK   10  A    between atoms: C_27  and  C_29
REMARK   11  A    between atoms: C_27  and  O_30
REMARK   12  A    between atoms: O_30  and  C_31
REMARK                            x       y       z     vdW  Elec       q    Type
REMARK                         _______ _______ _______ _____ _____    ______ ____
ROOT
ATOM      1  N   UNL     1      -5.214  13.045  20.875  0.00  0.00    +0.000 N 
ATOM      2  C   UNL     1      -4.950  12.653  19.563  0.00  0.00    +0.000 A 
ATOM      3  N   UNL     1      -5.948  12.818  18.685  0.00  0.00    +0.000 NA
ATOM      4  C   UNL     1      -5.740  12.341  17.443  0.00  0.00    +0.000 A 
ATOM      5  C   UNL     1      -4.581  11.696  17.046  0.00  0.00    +0.000 A 
ATOM      6  C   UNL     1      -4.395  11.140  15.774  0.00  0.00    +0.000 A 
ATOM      7  C   UNL     1      -3.202  10.487  15.510  0.00  0.00    +0.000 A 
ATOM      8  C   UNL     1      -2.966   9.845  14.176  0.00  0.00    +0.000 C 
ATOM      9  N   UNL     1      -2.206  10.397  16.424  0.00  0.00    +0.000 NA
ATOM     10  C   UNL     1      -2.399  10.955  17.649  0.00  0.00    +0.000 A 
ATOM     11  N   UNL     1      -1.330  10.990  18.576  0.00  0.00    +0.000 N 
ATOM     12  C   UNL     1      -3.588  11.613  18.015  0.00  0.00    +0.000 A 
ATOM     13  N   UNL     1      -3.772  12.098  19.258  0.00  0.00    +0.000 NA
ATOM     14  H   UNL     1      -6.057  13.604  20.840  0.00  0.00    +0.000 HD
ATOM     15  H   UNL     1      -1.729  11.085  19.517  0.00  0.00    +0.000 HD
ENDROOT
BRANCH   1  21
ATOM     16  C   UNL     1      -4.381  13.194  23.196  0.00  0.00    +0.000 A 
ATOM     17  C   UNL     1      -3.515  13.811  24.118  0.00  0.00    +0.000 A 
ATOM     18  C   UNL     1      -2.588  14.784  23.720  0.00  0.00    +0.000 A 
ATOM     19  C   UNL     1      -2.456  15.044  22.357  0.00  0.00    +0.000 A 
ATOM     20  C   UNL     1      -3.306  14.436  21.432  0.00  0.00    +0.000 A 
ATOM     21  C   UNL     1      -4.289  13.514  21.828  0.00  0.00    +0.000 A 
BRANCH  18  22
ATOM     22  C   UNL     1      -1.838  15.537  24.727  0.00  0.00    +0.000 A 
ATOM     23  N   UNL     1      -0.663  15.202  25.229  0.00  0.00    +0.000 NA
ATOM     24  N   UNL     1      -0.311  16.117  26.192  0.00  0.00    +0.000 NA
ATOM     25  C   UNL     1      -1.287  16.987  26.282  0.00  0.00    +0.000 A 
ATOM     26  N   UNL     1      -2.264  16.668  25.390  0.00  0.00    +0.000 N 
ATOM     27  C   UNL     1      -3.523  17.357  25.270  0.00  0.00    +0.000 C 
ENDBRANCH  18  22
BRANCH  16  29
ATOM     28  C   UNL     1      -6.529  12.691  24.141  0.00  0.00    +0.000 C 
ATOM     29  O   UNL     1      -5.215  12.285  23.797  0.00  0.00    +0.000 OA
ENDBRANCH  16  29
ENDBRANCH   1  21
BRANCH  11  30
ATOM     30  C   UNL     1      -0.409   9.853  18.532  0.00  0.00    +0.000 C 
BRANCH  30  31
ATOM     31  C   UNL     1       0.966  10.251  19.163  0.00  0.00    +0.000 C 
ATOM     32  C   UNL     1       2.036  10.192  18.062  0.00  0.00    +0.000 C 
ATOM     33  C   UNL     1       0.879  11.671  19.742  0.00  0.00    +0.000 C 
BRANCH  31  34
ATOM     34  O   UNL     1       1.247   9.275  20.191  0.00  0.00    +0.000 OA
ATOM     35  C   UNL     1       0.310   9.175  21.257  0.00  0.00    +0.000 C 
ENDBRANCH  31  34
ENDBRANCH  30  31
ENDBRANCH  11  30
TORSDOF 6
ENDMDL
MODEL 5
REMARK VINA RESULT:      -7.5      2.872      8.532
REMARK  Name = 
REMARK  12 active torsions:
REMARK  status: ('A' for Active; 'I' for Inactive)
REMARK    1  A    between atoms: C_1  and  O_2
REMARK    2  A    between atoms: O_2  and  C_3
REMARK    3  A    between atoms: C_5  and  C_6
REMARK    4  A    between atoms: N_10  and  C_11
REMARK    5  A    between atoms: C_14  and  N_15
REMARK    6  A    between atoms: C_21  and  C_22
REMARK    7  A    between atoms: N_25  and  C_26
REMARK    8  A    between atoms: C_26  and  C_27
REMARK    9  A    between atoms: C_27  and  C_28
REMARK   10  A    between atoms: C_27  and  C_29
REMARK   11  A    between atoms: C_27  and  O_30
REMARK   12  A    between atoms: O_30  and  C_31
REMARK                            x       y       z     vdW  Elec       q    Type
REMARK                         _______ _______ _______ _____ _____    ______ ____
ROOT
ATOM      1  N   UNL     1       0.844   7.221  21.120  0.00  0.00    +0.000 N 
ATOM      2  C   UNL     1       1.233   6.025  20.516  0.00  0.00    +0.000 A 
ATOM      3  N   UNL     1       0.414   4.979  20.696  0.00  0.00    +0.000 NA
ATOM      4  C   UNL     1       0.837   3.796  20.211  0.00  0.00    +0.000 A 
ATOM      5  C   UNL     1       2.048   3.613  19.565  0.00  0.00    +0.000 A 
ATOM      6  C   UNL     1       2.515   2.369  19.124  0.00  0.00    +0.000 A 
ATOM      7  C   UNL     1       3.762   2.310  18.523  0.00  0.00    +0.000 A 
ATOM      8  C   UNL     1       4.323   0.998  18.063  0.00  0.00    +0.000 C 
ATOM      9  N   UNL     1       4.524   3.412  18.322  0.00  0.00    +0.000 NA
ATOM     10  C   UNL     1       4.048   4.614  18.745  0.00  0.00    +0.000 A 
ATOM     11  N   UNL     1       4.761   5.796  18.433  0.00  0.00    +0.000 N 
ATOM     12  C   UNL     1       2.806   4.765  19.389  0.00  0.00    +0.000 A 
ATOM     13  N   UNL     1       2.392   5.960  19.854  0.00  0.00    +0.000 NA
ATOM     14  H   UNL     1      -0.126   7.102  21.385  0.00  0.00    +0.000 HD
ATOM     15  H   UNL     1       4.491   6.518  19.110  0.00  0.00    +0.000 HD
ENDROOT
BRANCH   1  21
ATOM     16  C   UNL     1       1.029   9.650  21.532  0.00  0.00    +0.000 A 
ATOM     17  C   UNL     1       1.189  10.944  21.001  0.00  0.00    +0.000 A 
ATOM     18  C   UNL     1       1.401  11.157  19.632  0.00  0.00    +0.000 A 
ATOM     19  C   UNL     1       1.573  10.041  18.815  0.00  0.00    +0.000 A 
ATOM     20  C   UNL     1       1.419   8.752  19.329  0.00  0.00    +0.000 A 
ATOM     21  C   UNL     1       1.134   8.529  20.686  0.00  0.00    +0.000 A 
BRANCH  18  22
ATOM     22  C   UNL     1       1.375  12.516  19.090  0.00  0.00    +0.000 A 
ATOM     23  N   UNL     1       2.424  13.301  18.915  0.00  0.00    +0.000 NA
ATOM     24  N   UNL     1       1.996  14.521  18.449  0.00  0.00    +0.000 NA
ATOM     25  C   UNL     1       0.689  14.473  18.366  0.00  0.00    +0.000 A 
ATOM     26  N   UNL     1       0.253  13.245  18.757  0.00  0.00    +0.000 N 
ATOM     27  C   UNL     1      -1.131  12.863  18.874  0.00  0.00    +0.000 C 
ENDBRANCH  18  22
BRANCH  16  29
ATOM     28  C   UNL     1      -0.494   9.908  23.369  0.00  0.00    +0.000 C 
ATOM     29  O   UNL     1       0.817   9.668  22.888  0.00  0.00    +0.000 OA
ENDBRANCH  16  29
ENDBRANCH   1  21
BRANCH  11  30
ATOM     30  C   UNL     1       6.218   5.669  18.387  0.00  0.00    +0.000 C 
BRANCH  30  31
ATOM     31  C   UNL     1       6.774   6.325  17.080  0.00  0.00    +0.000 C 
ATOM     32  C   UNL     1       5.582   6.715  16.192  0.00  0.00    +0.000 C 
ATOM     33  C   UNL     1       7.600   7.571  17.436  0.00  0.00    +0.000 C 
BRANCH  31  34
ATOM     34  O   UNL     1       7.583   5.323  16.425  0.00  0.00    +0.000 OA
ATOM     35  C   UNL     1       6.946   4.529  15.432  0.00  0.00    +0.000 C 
ENDBRANCH  31  34
ENDBRANCH  30  31
ENDBRANCH  11  30
TORSDOF 6
ENDMDL
MODEL 6
REMARK VINA RESULT:      -7.4      3.466      4.639
REMARK  Name = 
REMARK  12 active torsions:
REMARK  status: ('A' for Active; 'I' for Inactive)
REMARK    1  A    between atoms: C_1  and  O_2
REMARK    2  A    between atoms: O_2  and  C_3
REMARK    3  A    between atoms: C_5  and  C_6
REMARK    4  A    between atoms: N_10  and  C_11
REMARK    5  A    between atoms: C_14  and  N_15
REMARK    6  A    between atoms: C_21  and  C_22
REMARK    7  A    between atoms: N_25  and  C_26
REMARK    8  A    between atoms: C_26  and  C_27
REMARK    9  A    between atoms: C_27  and  C_28
REMARK   10  A    between atoms: C_27  and  C_29
REMARK   11  A    between atoms: C_27  and  O_30
REMARK   12  A    between atoms: O_30  and  C_31
REMARK                            x       y       z     vdW  Elec       q    Type
REMARK                         _______ _______ _______ _____ _____    ______ ____
ROOT
ATOM      1  N   UNL     1      -0.486   9.698  20.972  0.00  0.00    +0.000 N 
ATOM      2  C   UNL     1      -0.482  10.965  21.556  0.00  0.00    +0.000 A 
ATOM      3  N   UNL     1      -1.268  11.123  22.630  0.00  0.00    +0.000 NA
ATOM      4  C   UNL     1      -1.355  12.370  23.132  0.00  0.00    +0.000 A 
ATOM      5  C   UNL     1      -0.698  13.465  22.598  0.00  0.00    +0.000 A 
ATOM      6  C   UNL     1      -0.845  14.772  23.080  0.00  0.00    +0.000 A 
ATOM      7  C   UNL     1      -0.162  15.791  22.436  0.00  0.00    +0.000 A 
ATOM      8  C   UNL     1      -0.310  17.212  22.891  0.00  0.00    +0.000 C 
ATOM      9  N   UNL     1       0.661  15.562  21.384  0.00  0.00    +0.000 NA
ATOM     10  C   UNL     1       0.802  14.285  20.939  0.00  0.00    +0.000 A 
ATOM     11  N   UNL     1       1.752  13.999  19.929  0.00  0.00    +0.000 N 
ATOM     12  C   UNL     1       0.127  13.192  21.513  0.00  0.00    +0.000 A 
ATOM     13  N   UNL     1       0.238  11.948  21.007  0.00  0.00    +0.000 NA
ATOM     14  H   UNL     1      -0.923   9.078  21.643  0.00  0.00    +0.000 HD
ATOM     15  H   UNL     1       1.474  13.124  19.471  0.00  0.00    +0.000 HD
ENDROOT
BRANCH   1  21
ATOM     16  C   UNL     1       0.804   9.327  18.898  0.00  0.00    +0.000 A 
ATOM     17  C   UNL     1       1.773   8.571  18.213  0.00  0.00    +0.000 A 
ATOM     18  C   UNL     1       2.479   7.535  18.840  0.00  0.00    +0.000 A 
ATOM     19  C   UNL     1       2.285   7.346  20.207  0.00  0.00    +0.000 A 
ATOM     20  C   UNL     1       1.329   8.090  20.900  0.00  0.00    +0.000 A 
ATOM     21  C   UNL     1       0.564   9.082  20.264  0.00  0.00    +0.000 A 
BRANCH  18  22
ATOM     22  C   UNL     1       3.339   6.652  18.051  0.00  0.00    +0.000 A 
ATOM     23  N   UNL     1       4.463   6.998  17.451  0.00  0.00    +0.000 NA
ATOM     24  N   UNL     1       4.950   5.917  16.756  0.00  0.00    +0.000 NA
ATOM     25  C   UNL     1       4.104   4.930  16.922  0.00  0.00    +0.000 A 
ATOM     26  N   UNL     1       3.080   5.338  17.720  0.00  0.00    +0.000 N 
ATOM     27  C   UNL     1       1.926   4.542  18.046  0.00  0.00    +0.000 C 
ENDBRANCH  18  22
BRANCH  16  29
ATOM     28  C   UNL     1      -1.096  10.061  17.629  0.00  0.00    +0.000 C 
ATOM     29  O   UNL     1       0.225  10.277  18.096  0.00  0.00    +0.000 OA
ENDBRANCH  16  29
ENDBRANCH   1  21
BRANCH  11  30
ATOM     30  C   UNL     1       1.957  15.048  18.930  0.00  0.00    +0.000 C 
BRANCH  30  31
ATOM     31  C   UNL     1       3.444  15.535  18.959  0.00  0.00    +0.000 C 
ATOM     32  C   UNL     1       3.967  15.572  17.515  0.00  0.00    +0.000 C 
ATOM     33  C   UNL     1       3.518  16.936  19.586  0.00  0.00    +0.000 C 
BRANCH  31  34
ATOM     34  O   UNL     1       4.181  14.566  19.738  0.00  0.00    +0.000 OA
ATOM     35  C   UNL     1       5.177  15.071  20.618  0.00  0.00    +0.000 C 
ENDBRANCH  31  34
ENDBRANCH  30  31
ENDBRANCH  11  30
TORSDOF 6
ENDMDL
MODEL 7
REMARK VINA RESULT:      -7.4      3.479      4.663
REMARK  Name = 
REMARK  12 active torsions:
REMARK  status: ('A' for Active; 'I' for Inactive)
REMARK    1  A    between atoms: C_1  and  O_2
REMARK    2  A    between atoms: O_2  and  C_3
REMARK    3  A    between atoms: C_5  and  C_6
REMARK    4  A    between atoms: N_10  and  C_11
REMARK    5  A    between atoms: C_14  and  N_15
REMARK    6  A    between atoms: C_21  and  C_22
REMARK    7  A    between atoms: N_25  and  C_26
REMARK    8  A    between atoms: C_26  and  C_27
REMARK    9  A    between atoms: C_27  and  C_28
REMARK   10  A    between atoms: C_27  and  C_29
REMARK   11  A    between atoms: C_27  and  O_30
REMARK   12  A    between atoms: O_30  and  C_31
REMARK                            x       y       z     vdW  Elec       q    Type
REMARK                         _______ _______ _______ _____ _____    ______ ____
ROOT
ATOM      1  N   UNL     1      -0.787  10.260  20.998  0.00  0.00    +0.000 N 
ATOM      2  C   UNL     1      -0.692  11.462  21.700  0.00  0.00    +0.000 A 
ATOM      3  N   UNL     1      -1.575  11.638  22.692  0.00  0.00    +0.000 NA
ATOM      4  C   UNL     1      -1.563  12.839  23.301  0.00  0.00    +0.000 A 
ATOM      5  C   UNL     1      -0.712  13.873  22.951  0.00  0.00    +0.000 A 
ATOM      6  C   UNL     1      -0.749  15.144  23.540  0.00  0.00    +0.000 A 
ATOM      7  C   UNL     1       0.131  16.109  23.077  0.00  0.00    +0.000 A 
ATOM      8  C   UNL     1       0.111  17.494  23.650  0.00  0.00    +0.000 C 
ATOM      9  N   UNL     1       1.039  15.856  22.103  0.00  0.00    +0.000 NA
ATOM     10  C   UNL     1       1.069  14.613  21.553  0.00  0.00    +0.000 A 
ATOM     11  N   UNL     1       2.089  14.283  20.629  0.00  0.00    +0.000 N 
ATOM     12  C   UNL     1       0.196  13.580  21.941  0.00  0.00    +0.000 A 
ATOM     13  N   UNL     1       0.207  12.379  21.330  0.00  0.00    +0.000 NA
ATOM     14  H   UNL     1      -1.377   9.653  21.554  0.00  0.00    +0.000 HD
ATOM     15  H   UNL     1       1.759  13.495  20.060  0.00  0.00    +0.000 HD
ENDROOT
BRANCH   1  21
ATOM     16  C   UNL     1       0.519   9.706  18.975  0.00  0.00    +0.000 A 
ATOM     17  C   UNL     1       1.475   8.877  18.359  0.00  0.00    +0.000 A 
ATOM     18  C   UNL     1       2.141   7.868  19.068  0.00  0.00    +0.000 A 
ATOM     19  C   UNL     1       1.923   7.782  20.443  0.00  0.00    +0.000 A 
ATOM     20  C   UNL     1       0.980   8.600  21.067  0.00  0.00    +0.000 A 
ATOM     21  C   UNL     1       0.253   9.565  20.351  0.00  0.00    +0.000 A 
BRANCH  18  22
ATOM     22  C   UNL     1       2.985   6.907  18.357  0.00  0.00    +0.000 A 
ATOM     23  N   UNL     1       3.971   7.205  17.530  0.00  0.00    +0.000 NA
ATOM     24  N   UNL     1       4.483   6.041  17.009  0.00  0.00    +0.000 NA
ATOM     25  C   UNL     1       3.788   5.048  17.506  0.00  0.00    +0.000 A 
ATOM     26  N   UNL     1       2.839   5.536  18.351  0.00  0.00    +0.000 N 
ATOM     27  C   UNL     1       1.839   4.738  19.012  0.00  0.00    +0.000 C 
ENDBRANCH  18  22
BRANCH  16  29
ATOM     28  C   UNL     1      -1.313  10.365  17.571  0.00  0.00    +0.000 C 
ATOM     29  O   UNL     1      -0.021  10.614  18.099  0.00  0.00    +0.000 OA
ENDBRANCH  16  29
ENDBRANCH   1  21
BRANCH  11  30
ATOM     30  C   UNL     1       2.545  15.373  19.766  0.00  0.00    +0.000 C 
BRANCH  30  31
ATOM     31  C   UNL     1       3.233  14.793  18.486  0.00  0.00    +0.000 C 
ATOM     32  C   UNL     1       2.482  13.518  18.071  0.00  0.00    +0.000 C 
ATOM     33  C   UNL     1       3.181  15.831  17.354  0.00  0.00    +0.000 C 
BRANCH  31  34
ATOM     34  O   UNL     1       4.594  14.479  18.854  0.00  0.00    +0.000 OA
ATOM     35  C   UNL     1       5.625  15.049  18.058  0.00  0.00    +0.000 C 
ENDBRANCH  31  34
ENDBRANCH  30  31
ENDBRANCH  11  30
TORSDOF 6
ENDMDL
MODEL 8
REMARK VINA RESULT:      -7.3      2.922      3.994
REMARK  Name = 
REMARK  12 active torsions:
REMARK  status: ('A' for Active; 'I' for Inactive)
REMARK    1  A    between atoms: C_1  and  O_2
REMARK    2  A    between atoms: O_2  and  C_3
REMARK    3  A    between atoms: C_5  and  C_6
REMARK    4  A    between atoms: N_10  and  C_11
REMARK    5  A    between atoms: C_14  and  N_15
REMARK    6  A    between atoms: C_21  and  C_22
REMARK    7  A    between atoms: N_25  and  C_26
REMARK    8  A    between atoms: C_26  and  C_27
REMARK    9  A    between atoms: C_27  and  C_28
REMARK   10  A    between atoms: C_27  and  C_29
REMARK   11  A    between atoms: C_27  and  O_30
REMARK   12  A    between atoms: O_30  and  C_31
REMARK                            x       y       z     vdW  Elec       q    Type
REMARK                         _______ _______ _______ _____ _____    ______ ____
ROOT
ATOM      1  N   UNL     1       0.943   7.222  20.335  0.00  0.00    +0.000 N 
ATOM      2  C   UNL     1       0.538   8.325  21.086  0.00  0.00    +0.000 A 
ATOM      3  N   UNL     1      -0.278   8.071  22.118  0.00  0.00    +0.000 NA
ATOM      4  C   UNL     1      -0.761   9.139  22.779  0.00  0.00    +0.000 A 
ATOM      5  C   UNL     1      -0.472  10.451  22.444  0.00  0.00    +0.000 A 
ATOM      6  C   UNL     1      -1.031  11.561  23.091  0.00  0.00    +0.000 A 
ATOM      7  C   UNL     1      -0.690  12.825  22.638  0.00  0.00    +0.000 A 
ATOM      8  C   UNL     1      -1.286  14.046  23.273  0.00  0.00    +0.000 C 
ATOM      9  N   UNL     1       0.183  13.022  21.620  0.00  0.00    +0.000 NA
ATOM     10  C   UNL     1       0.726  11.933  21.014  0.00  0.00    +0.000 A 
ATOM     11  N   UNL     1       1.736  12.108  20.038  0.00  0.00    +0.000 N 
ATOM     12  C   UNL     1       0.417  10.612  21.388  0.00  0.00    +0.000 A 
ATOM     13  N   UNL     1       0.922   9.553  20.724  0.00  0.00    +0.000 NA
ATOM     14  H   UNL     1       0.710   6.404  20.885  0.00  0.00    +0.000 HD
ATOM     15  H   UNL     1       1.755  11.269  19.448  0.00  0.00    +0.000 HD
ENDROOT
BRANCH   1  21
ATOM     16  C   UNL     1       2.376   7.705  18.382  0.00  0.00    +0.000 A 
ATOM     17  C   UNL     1       3.536   7.401  17.645  0.00  0.00    +0.000 A 
ATOM     18  C   UNL     1       4.455   6.437  18.084  0.00  0.00    +0.000 A 
ATOM     19  C   UNL     1       4.255   5.868  19.341  0.00  0.00    +0.000 A 
ATOM     20  C   UNL     1       3.110   6.163  20.082  0.00  0.00    +0.000 A 
ATOM     21  C   UNL     1       2.146   7.072  19.618  0.00  0.00    +0.000 A 
BRANCH  18  22
ATOM     22  C   UNL     1       5.547   6.013  17.207  0.00  0.00    +0.000 A 
ATOM     23  N   UNL     1       6.573   6.755  16.832  0.00  0.00    +0.000 NA
ATOM     24  N   UNL     1       7.351   6.034  15.958  0.00  0.00    +0.000 NA
ATOM     25  C   UNL     1       6.777   4.867  15.793  0.00  0.00    +0.000 A 
ATOM     26  N   UNL     1       5.647   4.806  16.548  0.00  0.00    +0.000 N 
ATOM     27  C   UNL     1       4.719   3.704  16.550  0.00  0.00    +0.000 C 
ENDBRANCH  18  22
BRANCH  16  29
ATOM     28  C   UNL     1       2.129   9.975  17.641  0.00  0.00    +0.000 C 
ATOM     29  O   UNL     1       1.608   8.663  17.767  0.00  0.00    +0.000 OA
ENDBRANCH  16  29
ENDBRANCH   1  21
BRANCH  11  30
ATOM     30  C   UNL     1       1.619  13.307  19.208  0.00  0.00    +0.000 C 
BRANCH  30  31
ATOM     31  C   UNL     1       2.786  14.299  19.529  0.00  0.00    +0.000 C 
ATOM     32  C   UNL     1       3.758  14.300  18.340  0.00  0.00    +0.000 C 
ATOM     33  C   UNL     1       2.220  15.709  19.753  0.00  0.00    +0.000 C 
BRANCH  31  34
ATOM     34  O   UNL     1       3.441  13.797  20.715  0.00  0.00    +0.000 OA
ATOM     35  C   UNL     1       4.345  14.676  21.373  0.00  0.00    +0.000 C 
ENDBRANCH  31  34
ENDBRANCH  30  31
ENDBRANCH  11  30
TORSDOF 6
ENDMDL
MODEL 9
REMARK VINA RESULT:      -7.3      4.609      9.888
REMARK  Name = 
REMARK  12 active torsions:
REMARK  status: ('A' for Active; 'I' for Inactive)
REMARK    1  A    between atoms: C_1  and  O_2
REMARK    2  A    between atoms: O_2  and  C_3
REMARK    3  A    between atoms: C_5  and  C_6
REMARK    4  A    between atoms: N_10  and  C_11
REMARK    5  A    between atoms: C_14  and  N_15
REMARK    6  A    between atoms: C_21  and  C_22
REMARK    7  A    between atoms: N_25  and  C_26
REMARK    8  A    between atoms: C_26  and  C_27
REMARK    9  A    between atoms: C_27  and  C_28
REMARK   10  A    between atoms: C_27  and  C_29
REMARK   11  A    between atoms: C_27  and  O_30
REMARK   12  A    between atoms: O_30  and  C_31
REMARK                            x       y       z     vdW  Elec       q    Type
REMARK                         _______ _______ _______ _____ _____    ______ ____
ROOT
ATOM      1  N   UNL     1      -5.986  12.391  21.647  0.00  0.00    +0.000 N 
ATOM      2  C   UNL     1      -5.646  12.082  20.329  0.00  0.00    +0.000 A 
ATOM      3  N   UNL     1      -6.632  11.594  19.565  0.00  0.00    +0.000 NA
ATOM      4  C   UNL     1      -6.288  11.189  18.327  0.00  0.00    +0.000 A 
ATOM      5  C   UNL     1      -4.998  11.242  17.828  0.00  0.00    +0.000 A 
ATOM      6  C   UNL     1      -4.631  10.757  16.566  0.00  0.00    +0.000 A 
ATOM      7  C   UNL     1      -3.298  10.833  16.195  0.00  0.00    +0.000 A 
ATOM      8  C   UNL     1      -2.847  10.297  14.869  0.00  0.00    +0.000 C 
ATOM      9  N   UNL     1      -2.352  11.385  16.993  0.00  0.00    +0.000 NA
ATOM     10  C   UNL     1      -2.730  11.863  18.208  0.00  0.00    +0.000 A 
ATOM     11  N   UNL     1      -1.791  12.561  19.006  0.00  0.00    +0.000 N 
ATOM     12  C   UNL     1      -4.055  11.804  18.680  0.00  0.00    +0.000 A 
ATOM     13  N   UNL     1      -4.384  12.227  19.916  0.00  0.00    +0.000 NA
ATOM     14  H   UNL     1      -6.997  12.397  21.685  0.00  0.00    +0.000 HD
ATOM     15  H   UNL     1      -2.107  12.514  19.981  0.00  0.00    +0.000 HD
ENDROOT
BRANCH   1  21
ATOM     16  C   UNL     1      -5.550  14.754  22.222  0.00  0.00    +0.000 A 
ATOM     17  C   UNL     1      -4.825  15.683  22.991  0.00  0.00    +0.000 A 
ATOM     18  C   UNL     1      -3.911  15.273  23.972  0.00  0.00    +0.000 A 
ATOM     19  C   UNL     1      -3.824  13.911  24.256  0.00  0.00    +0.000 A 
ATOM     20  C   UNL     1      -4.540  12.980  23.503  0.00  0.00    +0.000 A 
ATOM     21  C   UNL     1      -5.404  13.375  22.469  0.00  0.00    +0.000 A 
BRANCH  18  22
ATOM     22  C   UNL     1      -3.040  16.256  24.619  0.00  0.00    +0.000 A 
ATOM     23  N   UNL     1      -3.437  17.263  25.375  0.00  0.00    +0.000 NA
ATOM     24  N   UNL     1      -2.339  18.002  25.747  0.00  0.00    +0.000 NA
ATOM     25  C   UNL     1      -1.288  17.449  25.193  0.00  0.00    +0.000 A 
ATOM     26  N   UNL     1      -1.673  16.358  24.477  0.00  0.00    +0.000 N 
ATOM     27  C   UNL     1      -0.793  15.555  23.667  0.00  0.00    +0.000 C 
ENDBRANCH  18  22
BRANCH  16  29
ATOM     28  C   UNL     1      -5.828  15.795  20.077  0.00  0.00    +0.000 C 
ATOM     29  O   UNL     1      -6.375  15.367  21.312  0.00  0.00    +0.000 OA
ENDBRANCH  16  29
ENDBRANCH   1  21
BRANCH  11  30
ATOM     30  C   UNL     1      -0.404  12.107  18.903  0.00  0.00    +0.000 C 
BRANCH  30  31
ATOM     31  C   UNL     1       0.220  11.958  20.330  0.00  0.00    +0.000 C 
ATOM     32  C   UNL     1       1.338  13.001  20.478  0.00  0.00    +0.000 C 
ATOM     33  C   UNL     1      -0.863  12.188  21.395  0.00  0.00    +0.000 C 
BRANCH  31  34
ATOM     34  O   UNL     1       0.764  10.622  20.407  0.00  0.00    +0.000 OA
ATOM     35  C   UNL     1       0.722   9.840  19.220  0.00  0.00    +0.000 C 
ENDBRANCH  31  34
ENDBRANCH  30  31
ENDBRANCH  11  30
TORSDOF 6
ENDMDL
