MODEL 1
REMARK VINA RESULT:      -7.8      0.000      0.000
REMARK  Name = 
REMARK  11 active torsions:
REMARK  status: ('A' for Active; 'I' for Inactive)
REMARK    1  A    between atoms: C_1  and  O_2
REMARK    2  A    between atoms: O_2  and  C_3
REMARK    3  A    between atoms: C_5  and  O_6
REMARK    4  A    between atoms: O_6  and  C_7
REMARK    5  A    between atoms: C_8  and  N_9
REMARK    6  A    between atoms: C_10  and  C_12
REMARK    7  A    between atoms: C_12  and  N_13
REMARK    8  A    between atoms: C_16  and  S_17
REMARK    9  A    between atoms: S_17  and  C_18
REMARK   10  A    between atoms: C_21  and  C_22
REMARK   11  A    between atoms: C_24  and  C_25
REMARK                            x       y       z     vdW  Elec       q    Type
REMARK                         _______ _______ _______ _____ _____    ______ ____
ROOT
ATOM      1  N   UNL     1       0.869  10.757  21.290  0.00  0.00    +0.000 N 
ATOM      2  N   UNL     1       0.300  11.854  21.927  0.00  0.00    +0.000 NA
ATOM      3  C   UNL     1      -0.012  12.642  20.934  0.00  0.00    +0.000 A 
ATOM      4  C   UNL     1      -0.656  13.992  20.906  0.00  0.00    +0.000 A 
ATOM      5  N   UNL     1      -0.841  14.691  19.826  0.00  0.00    +0.000 NA
ATOM      6  C   UNL     1      -0.408  14.113  18.648  0.00  0.00    +0.000 A 
ATOM      7  C   UNL     1       0.140  12.891  18.560  0.00  0.00    +0.000 A 
ATOM      8  N   UNL     1       0.316  12.172  19.703  0.00  0.00    +0.000 N 
ATOM      9  C   UNL     1       0.891  10.943  19.893  0.00  0.00    +0.000 A 
ATOM     10  O   UNL     1       1.354  10.196  19.049  0.00  0.00    +0.000 OA
ENDROOT
BRANCH   1  11
ATOM     11  C   UNL     1       1.428   9.617  21.976  0.00  0.00    +0.000 C 
BRANCH  11  13
ATOM     12  N   UNL     1       1.984   7.555  20.826  0.00  0.00    +0.000 N 
ATOM     13  C   UNL     1       0.946   8.297  21.384  0.00  0.00    +0.000 C 
ATOM     14  O   UNL     1      -0.256   8.061  21.372  0.00  0.00    +0.000 OA
ATOM     15  H   UNL     1       2.906   7.941  21.018  0.00  0.00    +0.000 HD
BRANCH  12  19
ATOM     16  C   UNL     1       1.876   3.707  18.992  0.00  0.00    +0.000 A 
ATOM     17  C   UNL     1       2.118   4.832  18.206  0.00  0.00    +0.000 A 
ATOM     18  C   UNL     1       2.192   6.123  18.750  0.00  0.00    +0.000 A 
ATOM     19  C   UNL     1       1.969   6.317  20.125  0.00  0.00    +0.000 A 
ATOM     20  C   UNL     1       1.684   5.181  20.910  0.00  0.00    +0.000 A 
ATOM     21  C   UNL     1       1.640   3.893  20.354  0.00  0.00    +0.000 A 
ATOM     22 CL   UNL     1       1.328   2.556  21.402  0.00  0.00    +0.000 Cl
BRANCH  16  24
ATOM     23  C   UNL     1       3.066   1.992  17.878  0.00  0.00    +0.000 C 
ATOM     24  O   UNL     1       1.845   2.439  18.472  0.00  0.00    +0.000 OA
ENDBRANCH  16  24
BRANCH  18  25
ATOM     25  O   UNL     1       2.554   7.172  17.960  0.00  0.00    +0.000 OA
ATOM     26  C   UNL     1       3.907   7.261  17.536  0.00  0.00    +0.000 C 
ENDBRANCH  18  25
ENDBRANCH  12  19
ENDBRANCH  11  13
ENDBRANCH   1  11
BRANCH   4  27
ATOM     27  S   UNL     1      -1.176  14.428  22.489  0.00  0.00    +0.000 S 
BRANCH  27  28
ATOM     28  C   UNL     1      -2.853  13.805  22.480  0.00  0.00    +0.000 A 
ATOM     29  C   UNL     1      -3.354  13.212  21.311  0.00  0.00    +0.000 A 
ATOM     30  C   UNL     1      -4.678  12.774  21.242  0.00  0.00    +0.000 A 
ATOM     31  C   UNL     1      -5.522  12.914  22.343  0.00  0.00    +0.000 A 
ATOM     32  C   UNL     1      -6.965  12.510  22.271  0.00  0.00    +0.000 C 
ATOM     33  C   UNL     1      -5.008  13.446  23.532  0.00  0.00    +0.000 A 
ATOM     34  C   UNL     1      -3.678  13.892  23.617  0.00  0.00    +0.000 A 
ATOM     35  C   UNL     1      -3.197  14.469  24.920  0.00  0.00    +0.000 C 
ENDBRANCH  27  28
ENDBRANCH   4  27
TORSDOF 7
ENDMDL
MODEL 2
REMARK VINA RESULT:      -7.7      2.112      4.305
REMARK  Name = 
REMARK  11 active torsions:
REMARK  status: ('A' for Active; 'I' for Inactive)
REMARK    1  A    between atoms: C_1  and  O_2
REMARK    2  A    between atoms: O_2  and  C_3
REMARK    3  A    between atoms: C_5  and  O_6
REMARK    4  A    between atoms: O_6  and  C_7
REMARK    5  A    between atoms: C_8  and  N_9
REMARK    6  A    between atoms: C_10  and  C_12
REMARK    7  A    between atoms: C_12  and  N_13
REMARK    8  A    between atoms: C_16  and  S_17
REMARK    9  A    between atoms: S_17  and  C_18
REMARK   10  A    between atoms: C_21  and  C_22
REMARK   11  A    between atoms: C_24  and  C_25
REMARK                            x       y       z     vdW  Elec       q    Type
REMARK                         _______ _______ _______ _____ _____    ______ ____
ROOT
ATOM      1  N   UNL     1       0.579  10.561  21.686  0.00  0.00    +0.000 N 
ATOM      2  N   UNL     1       0.579  11.353  20.543  0.00  0.00    +0.000 NA
ATOM      3  C   UNL     1      -0.442  12.144  20.733  0.00  0.00    +0.000 A 
ATOM      4  C   UNL     1      -1.015  13.241  19.892  0.00  0.00    +0.000 A 
ATOM      5  N   UNL     1      -2.093  13.903  20.189  0.00  0.00    +0.000 NA
ATOM      6  C   UNL     1      -2.718  13.546  21.369  0.00  0.00    +0.000 A 
ATOM      7  C   UNL     1      -2.262  12.608  22.215  0.00  0.00    +0.000 A 
ATOM      8  N   UNL     1      -1.125  11.934  21.887  0.00  0.00    +0.000 N 
ATOM      9  C   UNL     1      -0.488  10.910  22.539  0.00  0.00    +0.000 A 
ATOM     10  O   UNL     1      -0.797  10.391  23.597  0.00  0.00    +0.000 OA
ENDROOT
BRANCH   1  11
ATOM     11  C   UNL     1       1.503   9.480  21.927  0.00  0.00    +0.000 C 
BRANCH  11  13
ATOM     12  N   UNL     1       2.099   7.445  20.748  0.00  0.00    +0.000 N 
ATOM     13  C   UNL     1       1.042   8.176  21.286  0.00  0.00    +0.000 C 
ATOM     14  O   UNL     1      -0.159   7.942  21.224  0.00  0.00    +0.000 OA
ATOM     15  H   UNL     1       3.014   7.825  20.984  0.00  0.00    +0.000 HD
BRANCH  12  19
ATOM     16  C   UNL     1       2.052   3.644  18.818  0.00  0.00    +0.000 A 
ATOM     17  C   UNL     1       2.329   4.787  18.070  0.00  0.00    +0.000 A 
ATOM     18  C   UNL     1       2.385   6.064  18.648  0.00  0.00    +0.000 A 
ATOM     19  C   UNL     1       2.108   6.225  20.017  0.00  0.00    +0.000 A 
ATOM     20  C   UNL     1       1.789   5.072  20.762  0.00  0.00    +0.000 A 
ATOM     21  C   UNL     1       1.764   3.798  20.173  0.00  0.00    +0.000 A 
ATOM     22 CL   UNL     1       1.405   2.437  21.175  0.00  0.00    +0.000 Cl
BRANCH  16  24
ATOM     23  C   UNL     1       3.322   1.788  18.081  0.00  0.00    +0.000 C 
ATOM     24  O   UNL     1       2.038   2.389  18.266  0.00  0.00    +0.000 OA
ENDBRANCH  16  24
BRANCH  18  25
ATOM     25  O   UNL     1       2.781   7.131  17.899  0.00  0.00    +0.000 OA
ATOM     26  C   UNL     1       4.109   7.144  17.395  0.00  0.00    +0.000 C 
ENDBRANCH  18  25
ENDBRANCH  12  19
ENDBRANCH  11  13
ENDBRANCH   1  11
BRANCH   4  27
ATOM     27  S   UNL     1       0.006  13.536  18.537  0.00  0.00    +0.000 S 
BRANCH  27  28
ATOM     28  C   UNL     1       1.058  14.833  19.180  0.00  0.00    +0.000 A 
ATOM     29  C   UNL     1       2.252  14.483  19.828  0.00  0.00    +0.000 A 
ATOM     30  C   UNL     1       3.068  15.461  20.402  0.00  0.00    +0.000 A 
ATOM     31  C   UNL     1       2.707  16.806  20.332  0.00  0.00    +0.000 A 
ATOM     32  C   UNL     1       3.533  17.867  20.997  0.00  0.00    +0.000 C 
ATOM     33  C   UNL     1       1.550  17.165  19.630  0.00  0.00    +0.000 A 
ATOM     34  C   UNL     1       0.718  16.192  19.047  0.00  0.00    +0.000 A 
ATOM     35  C   UNL     1      -0.519  16.647  18.323  0.00  0.00    +0.000 C 
ENDBRANCH  27  28
ENDBRANCH   4  27
TORSDOF 7
ENDMDL
MODEL 3
REMARK VINA RESULT:      -7.7      1.733      2.351
REMARK  Name = 
REMARK  11 active torsions:
REMARK  status: ('A' for Active; 'I' for Inactive)
REMARK    1  A    between atoms: C_1  and  O_2
REMARK    2  A    between atoms: O_2  and  C_3
REMARK    3  A    between atoms: C_5  and  O_6
REMARK    4  A    between atoms: O_6  and  C_7
REMARK    5  A    between atoms: C_8  and  N_9
REMARK    6  A    between atoms: C_10  and  C_12
REMARK    7  A    between atoms: C_12  and  N_13
REMARK    8  A    between atoms: C_16  and  S_17
REMARK    9  A    between atoms: S_17  and  C_18
REMARK   10  A    between atoms: C_21  and  C_22
REMARK   11  A    between atoms: C_24  and  C_25
REMARK                            x       y       z     vdW  Elec       q    Type
REMARK                         _______ _______ _______ _____ _____    ______ ____
ROOT
ATOM      1  N   UNL     1      -0.009  10.732  22.186  0.00  0.00    +0.000 N 
ATOM      2  N   UNL     1      -1.063  11.286  22.905  0.00  0.00    +0.000 NA
ATOM      3  C   UNL     1      -1.408  12.314  22.177  0.00  0.00    +0.000 A 
ATOM      4  C   UNL     1      -2.472  13.349  22.366  0.00  0.00    +0.000 A 
ATOM      5  N   UNL     1      -2.650  14.366  21.577  0.00  0.00    +0.000 NA
ATOM      6  C   UNL     1      -1.787  14.459  20.502  0.00  0.00    +0.000 A 
ATOM      7  C   UNL     1      -0.829  13.561  20.219  0.00  0.00    +0.000 A 
ATOM      8  N   UNL     1      -0.666  12.498  21.055  0.00  0.00    +0.000 N 
ATOM      9  C   UNL     1       0.255  11.485  21.024  0.00  0.00    +0.000 A 
ATOM     10  O   UNL     1       1.132  11.297  20.199  0.00  0.00    +0.000 OA
ENDROOT
BRANCH   1  11
ATOM     11  C   UNL     1       0.754   9.586  22.615  0.00  0.00    +0.000 C 
BRANCH  11  13
ATOM     12  N   UNL     1       1.666   7.835  21.206  0.00  0.00    +0.000 N 
ATOM     13  C   UNL     1       0.495   8.363  21.742  0.00  0.00    +0.000 C 
ATOM     14  O   UNL     1      -0.664   8.026  21.530  0.00  0.00    +0.000 OA
ATOM     15  H   UNL     1       2.511   8.260  21.583  0.00  0.00    +0.000 HD
BRANCH  12  19
ATOM     16  C   UNL     1       2.177   4.410  18.720  0.00  0.00    +0.000 A 
ATOM     17  C   UNL     1       2.478   5.672  18.213  0.00  0.00    +0.000 A 
ATOM     18  C   UNL     1       2.356   6.837  18.985  0.00  0.00    +0.000 A 
ATOM     19  C   UNL     1       1.871   6.755  20.302  0.00  0.00    +0.000 A 
ATOM     20  C   UNL     1       1.529   5.481  20.798  0.00  0.00    +0.000 A 
ATOM     21  C   UNL     1       1.682   4.322  20.020  0.00  0.00    +0.000 A 
ATOM     22 CL   UNL     1       1.279   2.799  20.727  0.00  0.00    +0.000 Cl
BRANCH  16  24
ATOM     23  C   UNL     1       3.542   3.189  17.220  0.00  0.00    +0.000 C 
ATOM     24  O   UNL     1       2.335   3.264  17.982  0.00  0.00    +0.000 OA
ENDBRANCH  16  24
BRANCH  18  25
ATOM     25  O   UNL     1       2.781   8.031  18.485  0.00  0.00    +0.000 OA
ATOM     26  C   UNL     1       1.845   8.840  17.787  0.00  0.00    +0.000 C 
ENDBRANCH  18  25
ENDBRANCH  12  19
ENDBRANCH  11  13
ENDBRANCH   1  11
BRANCH   4  27
ATOM     27  S   UNL     1      -3.454  12.942  23.721  0.00  0.00    +0.000 S 
BRANCH  27  28
ATOM     28  C   UNL     1      -4.136  14.542  24.140  0.00  0.00    +0.000 A 
ATOM     29  C   UNL     1      -5.421  14.875  23.684  0.00  0.00    +0.000 A 
ATOM     30  C   UNL     1      -5.962  16.138  23.933  0.00  0.00    +0.000 A 
ATOM     31  C   UNL     1      -5.232  17.088  24.647  0.00  0.00    +0.000 A 
ATOM     32  C   UNL     1      -5.766  18.472  24.870  0.00  0.00    +0.000 C 
ATOM     33  C   UNL     1      -3.976  16.737  25.158  0.00  0.00    +0.000 A 
ATOM     34  C   UNL     1      -3.417  15.470  24.916  0.00  0.00    +0.000 A 
ATOM     35  C   UNL     1      -2.056  15.167  25.480  0.00  0.00    +0.000 C 
ENDBRANCH  27  28
ENDBRANCH   4  27
TORSDOF 7
ENDMDL
MODEL 4
REMARK VINA RESULT:      -7.6      2.424      3.539
REMARK  Name = 
REMARK  11 active torsions:
REMARK  status: ('A' for Active; 'I' for Inactive)
REMARK    1  A    between atoms: C_1  and  O_2
REMARK    2  A    between atoms: O_2  and  C_3
REMARK    3  A    between atoms: C_5  and  O_6
REMARK    4  A    between atoms: O_6  and  C_7
REMARK    5  A    between atoms: C_8  and  N_9
REMARK    6  A    between atoms: C_10  and  C_12
REMARK    7  A    between atoms: C_12  and  N_13
REMARK    8  A    between atoms: C_16  and  S_17
REMARK    9  A    between atoms: S_17  and  C_18
REMARK   10  A    between atoms: C_21  and  C_22
REMARK   11  A    between atoms: C_24  and  C_25
REMARK                            x       y       z     vdW  Elec       q    Type
REMARK                         _______ _______ _______ _____ _____    ______ ____
ROOT
ATOM      1  N   UNL     1       0.629  10.953  21.392  0.00  0.00    +0.000 N 
ATOM      2  N   UNL     1      -0.730  11.069  21.119  0.00  0.00    +0.000 NA
ATOM      3  C   UNL     1      -0.824  12.261  20.595  0.00  0.00    +0.000 A 
ATOM      4  C   UNL     1      -2.002  13.025  20.078  0.00  0.00    +0.000 A 
ATOM      5  N   UNL     1      -1.947  14.248  19.643  0.00  0.00    +0.000 NA
ATOM      6  C   UNL     1      -0.701  14.845  19.669  0.00  0.00    +0.000 A 
ATOM      7  C   UNL     1       0.425  14.233  20.072  0.00  0.00    +0.000 A 
ATOM      8  N   UNL     1       0.344  12.948  20.515  0.00  0.00    +0.000 N 
ATOM      9  C   UNL     1       1.316  12.127  21.023  0.00  0.00    +0.000 A 
ATOM     10  O   UNL     1       2.502  12.371  21.161  0.00  0.00    +0.000 OA
ENDROOT
BRANCH   1  11
ATOM     11  C   UNL     1       1.235   9.813  22.035  0.00  0.00    +0.000 C 
BRANCH  11  13
ATOM     12  N   UNL     1       1.880   7.797  20.851  0.00  0.00    +0.000 N 
ATOM     13  C   UNL     1       0.807   8.497  21.395  0.00  0.00    +0.000 C 
ATOM     14  O   UNL     1      -0.388   8.231  21.340  0.00  0.00    +0.000 OA
ATOM     15  H   UNL     1       2.786   8.202  21.081  0.00  0.00    +0.000 HD
BRANCH  12  19
ATOM     16  C   UNL     1       1.915   3.999  18.913  0.00  0.00    +0.000 A 
ATOM     17  C   UNL     1       2.212   5.144  18.177  0.00  0.00    +0.000 A 
ATOM     18  C   UNL     1       2.242   6.420  18.758  0.00  0.00    +0.000 A 
ATOM     19  C   UNL     1       1.919   6.578  20.118  0.00  0.00    +0.000 A 
ATOM     20  C   UNL     1       1.580   5.422  20.850  0.00  0.00    +0.000 A 
ATOM     21  C   UNL     1       1.581   4.149  20.258  0.00  0.00    +0.000 A 
ATOM     22 CL   UNL     1       1.195   2.784  21.246  0.00  0.00    +0.000 Cl
BRANCH  16  24
ATOM     23  C   UNL     1       3.219   2.164  18.186  0.00  0.00    +0.000 C 
ATOM     24  O   UNL     1       1.925   2.744  18.359  0.00  0.00    +0.000 OA
ENDBRANCH  16  24
BRANCH  18  25
ATOM     25  O   UNL     1       2.658   7.490  18.025  0.00  0.00    +0.000 OA
ATOM     26  C   UNL     1       3.948   7.440  17.431  0.00  0.00    +0.000 C 
ENDBRANCH  18  25
ENDBRANCH  12  19
ENDBRANCH  11  13
ENDBRANCH   1  11
BRANCH   4  27
ATOM     27  S   UNL     1      -3.400  12.018  20.074  0.00  0.00    +0.000 S 
BRANCH  27  28
ATOM     28  C   UNL     1      -3.352  11.375  18.406  0.00  0.00    +0.000 A 
ATOM     29  C   UNL     1      -2.251  10.602  18.004  0.00  0.00    +0.000 A 
ATOM     30  C   UNL     1      -2.144  10.138  16.692  0.00  0.00    +0.000 A 
ATOM     31  C   UNL     1      -3.139  10.432  15.759  0.00  0.00    +0.000 A 
ATOM     32  C   UNL     1      -3.014  10.000  14.328  0.00  0.00    +0.000 C 
ATOM     33  C   UNL     1      -4.269  11.148  16.172  0.00  0.00    +0.000 A 
ATOM     34  C   UNL     1      -4.392  11.622  17.490  0.00  0.00    +0.000 A 
ATOM     35  C   UNL     1      -5.624  12.400  17.861  0.00  0.00    +0.000 C 
ENDBRANCH  27  28
ENDBRANCH   4  27
TORSDOF 7
ENDMDL
MODEL 5
REMARK VINA RESULT:      -7.6      4.124     10.132
REMARK  Name = 
REMARK  11 active torsions:
REMARK  status: ('A' for Active; 'I' for Inactive)
REMARK    1  A    between atoms: C_1  and  O_2
REMARK    2  A    between atoms: O_2  and  C_3
REMARK    3  A    between atoms: C_5  and  O_6
REMARK    4  A    between atoms: O_6  and  C_7
REMARK    5  A    between atoms: C_8  and  N_9
REMARK    6  A    between atoms: C_10  and  C_12
REMARK    7  A    between atoms: C_12  and  N_13
REMARK    8  A    between atoms: C_16  and  S_17
REMARK    9  A    between atoms: S_17  and  C_18
REMARK   10  A    between atoms: C_21  and  C_22
REMARK   11  A    between atoms: C_24  and  C_25
REMARK                            x       y       z     vdW  Elec       q    Type
REMARK                         _______ _______ _______ _____ _____    ______ ____
ROOT
ATOM      1  N   UNL     1       2.265   7.447  19.413  0.00  0.00    +0.000 N 
ATOM      2  N   UNL     1       2.955   6.595  18.558  0.00  0.00    +0.000 NA
ATOM      3  C   UNL     1       2.771   5.422  19.100  0.00  0.00    +0.000 A 
ATOM      4  C   UNL     1       3.241   4.060  18.697  0.00  0.00    +0.000 A 
ATOM      5  N   UNL     1       3.030   2.979  19.387  0.00  0.00    +0.000 NA
ATOM      6  C   UNL     1       2.315   3.138  20.559  0.00  0.00    +0.000 A 
ATOM      7  C   UNL     1       1.812   4.308  20.988  0.00  0.00    +0.000 A 
ATOM      8  N   UNL     1       2.038   5.425  20.243  0.00  0.00    +0.000 N 
ATOM      9  C   UNL     1       1.687   6.728  20.479  0.00  0.00    +0.000 A 
ATOM     10  O   UNL     1       1.053   7.173  21.420  0.00  0.00    +0.000 OA
ENDROOT
BRANCH   1  11
ATOM     11  C   UNL     1       2.214   8.881  19.265  0.00  0.00    +0.000 C 
BRANCH  11  13
ATOM     12  N   UNL     1       0.087  10.014  18.981  0.00  0.00    +0.000 N 
ATOM     13  C   UNL     1       1.100   9.322  18.322  0.00  0.00    +0.000 C 
ATOM     14  O   UNL     1       1.147   8.970  17.149  0.00  0.00    +0.000 OA
ATOM     15  H   UNL     1       0.312  10.231  19.950  0.00  0.00    +0.000 HD
BRANCH  12  19
ATOM     16  C   UNL     1      -3.581  11.394  17.303  0.00  0.00    +0.000 A 
ATOM     17  C   UNL     1      -3.148  11.915  18.520  0.00  0.00    +0.000 A 
ATOM     18  C   UNL     1      -1.939  11.523  19.115  0.00  0.00    +0.000 A 
ATOM     19  C   UNL     1      -1.146  10.537  18.502  0.00  0.00    +0.000 A 
ATOM     20  C   UNL     1      -1.607   9.984  17.290  0.00  0.00    +0.000 A 
ATOM     21  C   UNL     1      -2.806  10.407  16.696  0.00  0.00    +0.000 A 
ATOM     22 CL   UNL     1      -3.268   9.702  15.188  0.00  0.00    +0.000 Cl
BRANCH  16  24
ATOM     23  C   UNL     1      -5.861  11.968  17.570  0.00  0.00    +0.000 C 
ATOM     24  O   UNL     1      -4.741  11.805  16.697  0.00  0.00    +0.000 OA
ENDBRANCH  16  24
BRANCH  18  25
ATOM     25  O   UNL     1      -1.502  12.152  20.241  0.00  0.00    +0.000 OA
ATOM     26  C   UNL     1      -2.416  12.327  21.314  0.00  0.00    +0.000 C 
ENDBRANCH  18  25
ENDBRANCH  12  19
ENDBRANCH  11  13
ENDBRANCH   1  11
BRANCH   4  27
ATOM     27  S   UNL     1       4.019   4.137  17.163  0.00  0.00    +0.000 S 
BRANCH  27  28
ATOM     28  C   UNL     1       5.411   5.196  17.540  0.00  0.00    +0.000 A 
ATOM     29  C   UNL     1       6.188   4.922  18.676  0.00  0.00    +0.000 A 
ATOM     30  C   UNL     1       7.241   5.763  19.042  0.00  0.00    +0.000 A 
ATOM     31  C   UNL     1       7.540   6.889  18.275  0.00  0.00    +0.000 A 
ATOM     32  C   UNL     1       8.624   7.842  18.684  0.00  0.00    +0.000 C 
ATOM     33  C   UNL     1       6.809   7.130  17.105  0.00  0.00    +0.000 A 
ATOM     34  C   UNL     1       5.745   6.293  16.723  0.00  0.00    +0.000 A 
ATOM     35  C   UNL     1       4.991   6.621  15.464  0.00  0.00    +0.000 C 
ENDBRANCH  27  28
ENDBRANCH   4  27
TORSDOF 7
ENDMDL
MODEL 6
REMARK VINA RESULT:      -7.6      6.337      9.896
REMARK  Name = 
REMARK  11 active torsions:
REMARK  status: ('A' for Active; 'I' for Inactive)
REMARK    1  A    between atoms: C_1  and  O_2
REMARK    2  A    between atoms: O_2  and  C_3
REMARK    3  A    between atoms: C_5  and  O_6
REMARK    4  A    between atoms: O_6  and  C_7
REMARK    5  A    between atoms: C_8  and  N_9
REMARK    6  A    between atoms: C_10  and  C_12
REMARK    7  A    between atoms: C_12  and  N_13
REMARK    8  A    between atoms: C_16  and  S_17
REMARK    9  A    between atoms: S_17  and  C_18
REMARK   10  A    between atoms: C_21  and  C_22
REMARK   11  A    between atoms: C_24  and  C_25
REMARK                            x       y       z     vdW  Elec       q    Type
REMARK                         _______ _______ _______ _____ _____    ______ ____
ROOT
ATOM      1  N   UNL     1       7.066   6.075  18.408  0.00  0.00    +0.000 N 
ATOM      2  N   UNL     1       5.852   6.200  19.074  0.00  0.00    +0.000 NA
ATOM      3  C   UNL     1       5.040   5.484  18.343  0.00  0.00    +0.000 A 
ATOM      4  C   UNL     1       3.580   5.189  18.484  0.00  0.00    +0.000 A 
ATOM      5  N   UNL     1       2.887   4.505  17.624  0.00  0.00    +0.000 NA
ATOM      6  C   UNL     1       3.579   4.031  16.526  0.00  0.00    +0.000 A 
ATOM      7  C   UNL     1       4.896   4.202  16.328  0.00  0.00    +0.000 A 
ATOM      8  N   UNL     1       5.605   4.915  17.247  0.00  0.00    +0.000 N 
ATOM      9  C   UNL     1       6.927   5.275  17.256  0.00  0.00    +0.000 A 
ATOM     10  O   UNL     1       7.781   4.999  16.432  0.00  0.00    +0.000 OA
ENDROOT
BRANCH   1  11
ATOM     11  C   UNL     1       8.284   6.738  18.806  0.00  0.00    +0.000 C 
BRANCH  11  13
ATOM     12  N   UNL     1       9.113   8.972  19.260  0.00  0.00    +0.000 N 
ATOM     13  C   UNL     1       8.279   8.218  18.439  0.00  0.00    +0.000 C 
ATOM     14  O   UNL     1       7.515   8.605  17.562  0.00  0.00    +0.000 OA
ATOM     15  H   UNL     1       9.689   8.406  19.880  0.00  0.00    +0.000 HD
BRANCH  12  19
ATOM     16  C   UNL     1       9.923  13.155  19.106  0.00  0.00    +0.000 A 
ATOM     17  C   UNL     1       9.409  12.602  20.276  0.00  0.00    +0.000 A 
ATOM     18  C   UNL     1       9.143  11.230  20.402  0.00  0.00    +0.000 A 
ATOM     19  C   UNL     1       9.352  10.374  19.306  0.00  0.00    +0.000 A 
ATOM     20  C   UNL     1       9.835  10.944  18.111  0.00  0.00    +0.000 A 
ATOM     21  C   UNL     1      10.120  12.315  18.011  0.00  0.00    +0.000 A 
ATOM     22 CL   UNL     1      10.751  12.915  16.519  0.00  0.00    +0.000 Cl
BRANCH  16  24
ATOM     23  C   UNL     1      11.288  14.948  19.828  0.00  0.00    +0.000 C 
ATOM     24  O   UNL     1      10.224  14.488  18.992  0.00  0.00    +0.000 OA
ENDBRANCH  16  24
BRANCH  18  25
ATOM     25  O   UNL     1       8.759  10.720  21.606  0.00  0.00    +0.000 OA
ATOM     26  C   UNL     1       8.147  11.595  22.544  0.00  0.00    +0.000 C 
ENDBRANCH  18  25
ENDBRANCH  12  19
ENDBRANCH  11  13
ENDBRANCH   1  11
BRANCH   4  27
ATOM     27  S   UNL     1       2.995   5.817  19.977  0.00  0.00    +0.000 S 
BRANCH  27  28
ATOM     28  C   UNL     1       2.302   7.377  19.442  0.00  0.00    +0.000 A 
ATOM     29  C   UNL     1       2.605   7.853  18.157  0.00  0.00    +0.000 A 
ATOM     30  C   UNL     1       2.138   9.097  17.727  0.00  0.00    +0.000 A 
ATOM     31  C   UNL     1       1.355   9.884  18.571  0.00  0.00    +0.000 A 
ATOM     32  C   UNL     1       0.897  11.250  18.155  0.00  0.00    +0.000 C 
ATOM     33  C   UNL     1       0.998   9.385  19.829  0.00  0.00    +0.000 A 
ATOM     34  C   UNL     1       1.459   8.135  20.277  0.00  0.00    +0.000 A 
ATOM     35  C   UNL     1       1.051   7.668  21.647  0.00  0.00    +0.000 C 
ENDBRANCH  27  28
ENDBRANCH   4  27
TORSDOF 7
ENDMDL
MODEL 7
REMARK VINA RESULT:      -7.5      2.486      4.319
REMARK  Name = 
REMARK  11 active torsions:
REMARK  status: ('A' for Active; 'I' for Inactive)
REMARK    1  A    between atoms: C_1  and  O_2
REMARK    2  A    between atoms: O_2  and  C_3
REMARK    3  A    between atoms: C_5  and  O_6
REMARK    4  A    between atoms: O_6  and  C_7
REMARK    5  A    between atoms: C_8  and  N_9
REMARK    6  A    between atoms: C_10  and  C_12
REMARK    7  A    between atoms: C_12  and  N_13
REMARK    8  A    between atoms: C_16  and  S_17
REMARK    9  A    between atoms: S_17  and  C_18
REMARK   10  A    between atoms: C_21  and  C_22
REMARK   11  A    between atoms: C_24  and  C_25
REMARK                            x       y       z     vdW  Elec       q    Type
REMARK                         _______ _______ _______ _____ _____    ______ ____
ROOT
ATOM      1  N   UNL     1       0.366  10.677  18.415  0.00  0.00    +0.000 N 
ATOM      2  N   UNL     1       0.441  11.794  19.240  0.00  0.00    +0.000 NA
ATOM      3  C   UNL     1      -0.814  12.093  19.444  0.00  0.00    +0.000 A 
ATOM      4  C   UNL     1      -1.454  13.186  20.240  0.00  0.00    +0.000 A 
ATOM      5  N   UNL     1      -2.735  13.398  20.292  0.00  0.00    +0.000 NA
ATOM      6  C   UNL     1      -3.524  12.532  19.558  0.00  0.00    +0.000 A 
ATOM      7  C   UNL     1      -3.052  11.494  18.848  0.00  0.00    +0.000 A 
ATOM      8  N   UNL     1      -1.706  11.286  18.815  0.00  0.00    +0.000 N 
ATOM      9  C   UNL     1      -0.976  10.348  18.135  0.00  0.00    +0.000 A 
ATOM     10  O   UNL     1      -1.390   9.455  17.417  0.00  0.00    +0.000 OA
ENDROOT
BRANCH   1  11
ATOM     11  C   UNL     1       1.512   9.996  17.863  0.00  0.00    +0.000 C 
BRANCH  11  13
ATOM     12  N   UNL     1       2.502   7.781  17.884  0.00  0.00    +0.000 N 
ATOM     13  C   UNL     1       1.884   8.754  18.666  0.00  0.00    +0.000 C 
ATOM     14  O   UNL     1       1.545   8.689  19.841  0.00  0.00    +0.000 OA
ATOM     15  H   UNL     1       2.726   8.101  16.943  0.00  0.00    +0.000 HD
BRANCH  12  19
ATOM     16  C   UNL     1       3.550   3.797  18.980  0.00  0.00    +0.000 A 
ATOM     17  C   UNL     1       4.490   4.597  18.333  0.00  0.00    +0.000 A 
ATOM     18  C   UNL     1       4.218   5.924  17.968  0.00  0.00    +0.000 A 
ATOM     19  C   UNL     1       2.945   6.469  18.211  0.00  0.00    +0.000 A 
ATOM     20  C   UNL     1       1.984   5.644  18.829  0.00  0.00    +0.000 A 
ATOM     21  C   UNL     1       2.282   4.326  19.212  0.00  0.00    +0.000 A 
ATOM     22 CL   UNL     1       1.055   3.405  20.005  0.00  0.00    +0.000 Cl
BRANCH  16  24
ATOM     23  C   UNL     1       3.574   1.504  18.397  0.00  0.00    +0.000 C 
ATOM     24  O   UNL     1       3.825   2.513  19.377  0.00  0.00    +0.000 OA
ENDBRANCH  16  24
BRANCH  18  25
ATOM     25  O   UNL     1       5.209   6.702  17.451  0.00  0.00    +0.000 OA
ATOM     26  C   UNL     1       6.546   6.227  17.521  0.00  0.00    +0.000 C 
ENDBRANCH  18  25
ENDBRANCH  12  19
ENDBRANCH  11  13
ENDBRANCH   1  11
BRANCH   4  27
ATOM     27  S   UNL     1      -0.255  14.051  21.123  0.00  0.00    +0.000 S 
BRANCH  27  28
ATOM     28  C   UNL     1       0.165  15.339  19.954  0.00  0.00    +0.000 A 
ATOM     29  C   UNL     1      -0.839  16.215  19.516  0.00  0.00    +0.000 A 
ATOM     30  C   UNL     1      -0.567  17.191  18.554  0.00  0.00    +0.000 A 
ATOM     31  C   UNL     1       0.715  17.313  18.020  0.00  0.00    +0.000 A 
ATOM     32  C   UNL     1       1.016  18.310  16.940  0.00  0.00    +0.000 C 
ATOM     33  C   UNL     1       1.735  16.483  18.503  0.00  0.00    +0.000 A 
ATOM     34  C   UNL     1       1.477  15.496  19.470  0.00  0.00    +0.000 A 
ATOM     35  C   UNL     1       2.616  14.627  19.930  0.00  0.00    +0.000 C 
ENDBRANCH  27  28
ENDBRANCH   4  27
TORSDOF 7
ENDMDL
MODEL 8
REMARK VINA RESULT:      -7.5      1.711      2.330
REMARK  Name = 
REMARK  11 active torsions:
REMARK  status: ('A' for Active; 'I' for Inactive)
REMARK    1  A    between atoms: C_1  and  O_2
REMARK    2  A    between atoms: O_2  and  C_3
REMARK    3  A    between atoms: C_5  and  O_6
REMARK    4  A    between atoms: O_6  and  C_7
REMARK    5  A    between atoms: C_8  and  N_9
REMARK    6  A    between atoms: C_10  and  C_12
REMARK    7  A    between atoms: C_12  and  N_13
REMARK    8  A    between atoms: C_16  and  S_17
REMARK    9  A    between atoms: S_17  and  C_18
REMARK   10  A    between atoms: C_21  and  C_22
REMARK   11  A    between atoms: C_24  and  C_25
REMARK                            x       y       z     vdW  Elec       q    Type
REMARK                         _______ _______ _______ _____ _____    ______ ____
ROOT
ATOM      1  N   UNL     1      -0.243  10.855  22.458  0.00  0.00    +0.000 N 
ATOM      2  N   UNL     1      -1.412  11.505  22.841  0.00  0.00    +0.000 NA
ATOM      3  C   UNL     1      -1.335  12.645  22.208  0.00  0.00    +0.000 A 
ATOM      4  C   UNL     1      -2.258  13.822  22.173  0.00  0.00    +0.000 A 
ATOM      5  N   UNL     1      -2.007  14.929  21.541  0.00  0.00    +0.000 NA
ATOM      6  C   UNL     1      -0.804  14.982  20.864  0.00  0.00    +0.000 A 
ATOM      7  C   UNL     1       0.073  13.967  20.797  0.00  0.00    +0.000 A 
ATOM      8  N   UNL     1      -0.215  12.812  21.460  0.00  0.00    +0.000 N 
ATOM      9  C   UNL     1       0.522  11.665  21.595  0.00  0.00    +0.000 A 
ATOM     10  O   UNL     1       1.611  11.416  21.110  0.00  0.00    +0.000 OA
ENDROOT
BRANCH   1  11
ATOM     11  C   UNL     1       0.162   9.558  22.942  0.00  0.00    +0.000 C 
BRANCH  11  13
ATOM     12  N   UNL     1       1.415   8.205  21.366  0.00  0.00    +0.000 N 
ATOM     13  C   UNL     1       0.141   8.502  21.842  0.00  0.00    +0.000 C 
ATOM     14  O   UNL     1      -0.942   8.096  21.436  0.00  0.00    +0.000 OA
ATOM     15  H   UNL     1       2.160   8.635  21.911  0.00  0.00    +0.000 HD
BRANCH  12  19
ATOM     16  C   UNL     1       2.655   5.383  18.422  0.00  0.00    +0.000 A 
ATOM     17  C   UNL     1       2.552   6.728  18.077  0.00  0.00    +0.000 A 
ATOM     18  C   UNL     1       2.174   7.712  19.003  0.00  0.00    +0.000 A 
ATOM     19  C   UNL     1       1.838   7.342  20.317  0.00  0.00    +0.000 A 
ATOM     20  C   UNL     1       1.905   5.974  20.652  0.00  0.00    +0.000 A 
ATOM     21  C   UNL     1       2.311   5.007  19.719  0.00  0.00    +0.000 A 
ATOM     22 CL   UNL     1       2.405   3.360  20.232  0.00  0.00    +0.000 Cl
BRANCH  16  24
ATOM     23  C   UNL     1       4.465   4.414  17.245  0.00  0.00    +0.000 C 
ATOM     24  O   UNL     1       3.065   4.423  17.531  0.00  0.00    +0.000 OA
ENDBRANCH  16  24
BRANCH  18  25
ATOM     25  O   UNL     1       2.208   9.027  18.649  0.00  0.00    +0.000 OA
ATOM     26  C   UNL     1       1.075   9.579  17.994  0.00  0.00    +0.000 C 
ENDBRANCH  18  25
ENDBRANCH  12  19
ENDBRANCH  11  13
ENDBRANCH   1  11
BRANCH   4  27
ATOM     27  S   UNL     1      -3.713  13.453  23.018  0.00  0.00    +0.000 S 
BRANCH  27  28
ATOM     28  C   UNL     1      -4.745  12.865  21.679  0.00  0.00    +0.000 A 
ATOM     29  C   UNL     1      -4.173  12.673  20.412  0.00  0.00    +0.000 A 
ATOM     30  C   UNL     1      -4.958  12.279  19.326  0.00  0.00    +0.000 A 
ATOM     31  C   UNL     1      -6.326  12.065  19.488  0.00  0.00    +0.000 A 
ATOM     32  C   UNL     1      -7.200  11.706  18.323  0.00  0.00    +0.000 C 
ATOM     33  C   UNL     1      -6.888  12.194  20.764  0.00  0.00    +0.000 A 
ATOM     34  C   UNL     1      -6.112  12.589  21.868  0.00  0.00    +0.000 A 
ATOM     35  C   UNL     1      -6.784  12.725  23.206  0.00  0.00    +0.000 C 
ENDBRANCH  27  28
ENDBRANCH   4  27
TORSDOF 7
ENDMDL
MODEL 9
REMARK VINA RESULT:      -7.4      1.751      1.957
REMARK  Name = 
REMARK  11 active torsions:
REMARK  status: ('A' for Active; 'I' for Inactive)
REMARK    1  A    between atoms: C_1  and  O_2
REMARK    2  A    between atoms: O_2  and  C_3
REMARK    3  A    between atoms: C_5  and  O_6
REMARK    4  A    between atoms: O_6  and  C_7
REMARK    5  A    between atoms: C_8  and  N_9
REMARK    6  A    between atoms: C_10  and  C_12
REMARK    7  A    between atoms: C_12  and  N_13
REMARK    8  A    between atoms: C_16  and  S_17
REMARK    9  A    between atoms: S_17  and  C_18
REMARK   10  A    between atoms: C_21  and  C_22
REMARK   11  A    between atoms: C_24  and  C_25
REMARK                            x       y       z     vdW  Elec       q    Type
REMARK                         _______ _______ _______ _____ _____    ______ ____
ROOT
ATOM      1  N   UNL     1      -0.659  10.748  22.149  0.00  0.00    +0.000 N 
ATOM      2  N   UNL     1      -0.892  11.844  22.974  0.00  0.00    +0.000 NA
ATOM      3  C   UNL     1      -1.012  12.830  22.126  0.00  0.00    +0.000 A 
ATOM      4  C   UNL     1      -1.270  14.289  22.335  0.00  0.00    +0.000 A 
ATOM      5  N   UNL     1      -1.294  15.170  21.380  0.00  0.00    +0.000 NA
ATOM      6  C   UNL     1      -1.071  14.689  20.104  0.00  0.00    +0.000 A 
ATOM      7  C   UNL     1      -0.874  13.395  19.806  0.00  0.00    +0.000 A 
ATOM      8  N   UNL     1      -0.862  12.487  20.822  0.00  0.00    +0.000 N 
ATOM      9  C   UNL     1      -0.632  11.137  20.794  0.00  0.00    +0.000 A 
ATOM     10  O   UNL     1      -0.414  10.435  19.823  0.00  0.00    +0.000 OA
ENDROOT
BRANCH   1  11
ATOM     11  C   UNL     1      -0.405   9.411  22.626  0.00  0.00    +0.000 C 
BRANCH  11  13
ATOM     12  N   UNL     1       0.675   7.801  21.168  0.00  0.00    +0.000 N 
ATOM     13  C   UNL     1       0.895   8.839  22.069  0.00  0.00    +0.000 C 
ATOM     14  O   UNL     1       1.959   9.260  22.508  0.00  0.00    +0.000 OA
ATOM     15  H   UNL     1      -0.306   7.679  20.923  0.00  0.00    +0.000 HD
BRANCH  12  19
ATOM     16  C   UNL     1       3.348   5.061  19.290  0.00  0.00    +0.000 A 
ATOM     17  C   UNL     1       3.225   6.352  18.781  0.00  0.00    +0.000 A 
ATOM     18  C   UNL     1       2.383   7.310  19.366  0.00  0.00    +0.000 A 
ATOM     19  C   UNL     1       1.592   6.962  20.475  0.00  0.00    +0.000 A 
ATOM     20  C   UNL     1       1.690   5.643  20.964  0.00  0.00    +0.000 A 
ATOM     21  C   UNL     1       2.558   4.705  20.382  0.00  0.00    +0.000 A 
ATOM     22 CL   UNL     1       2.643   3.125  21.076  0.00  0.00    +0.000 Cl
BRANCH  16  24
ATOM     23  C   UNL     1       4.678   4.438  17.435  0.00  0.00    +0.000 C 
ATOM     24  O   UNL     1       4.201   4.134  18.748  0.00  0.00    +0.000 OA
ENDBRANCH  16  24
BRANCH  18  25
ATOM     25  O   UNL     1       2.391   8.592  18.906  0.00  0.00    +0.000 OA
ATOM     26  C   UNL     1       1.757   8.867  17.665  0.00  0.00    +0.000 C 
ENDBRANCH  18  25
ENDBRANCH  12  19
ENDBRANCH  11  13
ENDBRANCH   1  11
BRANCH   4  27
ATOM     27  S   UNL     1      -1.602  14.595  23.996  0.00  0.00    +0.000 S 
BRANCH  27  28
ATOM     28  C   UNL     1      -3.363  14.281  24.055  0.00  0.00    +0.000 A 
ATOM     29  C   UNL     1      -3.815  12.990  24.364  0.00  0.00    +0.000 A 
ATOM     30  C   UNL     1      -5.179  12.688  24.354  0.00  0.00    +0.000 A 
ATOM     31  C   UNL     1      -6.114  13.675  24.041  0.00  0.00    +0.000 A 
ATOM     32  C   UNL     1      -7.579  13.359  23.961  0.00  0.00    +0.000 C 
ATOM     33  C   UNL     1      -5.671  14.979  23.795  0.00  0.00    +0.000 A 
ATOM     34  C   UNL     1      -4.302  15.299  23.800  0.00  0.00    +0.000 A 
ATOM     35  C   UNL     1      -3.895  16.717  23.509  0.00  0.00    +0.000 C 
ENDBRANCH  27  28
ENDBRANCH   4  27
TORSDOF 7
ENDMDL
