MODEL 1
REMARK VINA RESULT:      -7.6      0.000      0.000
REMARK  Name = 
REMARK  6 active torsions:
REMARK  status: ('A' for Active; 'I' for Inactive)
REMARK    1  A    between atoms: C_1  and  C_2
REMARK    2  A    between atoms: C_2  and  O_3
REMARK    3  A    between atoms: O_3  and  C_4
REMARK    4  A    between atoms: C_7  and  C_8
REMARK    5  A    between atoms: C_10  and  C_11
REMARK    6  A    between atoms: C_19  and  C_20
REMARK                            x       y       z     vdW  Elec       q    Type
REMARK                         _______ _______ _______ _____ _____    ______ ____
ROOT
ATOM      1  C   UNL     1       3.760   5.584  18.975  0.00  0.00    +0.000 A 
ATOM      2  C   UNL     1       3.040   6.845  19.109  0.00  0.00    +0.000 A 
ATOM      3  C   UNL     1       2.109   7.030  20.059  0.00  0.00    +0.000 A 
ATOM      4  N   UNL     1       1.803   5.987  20.893  0.00  0.00    +0.000 N 
ATOM      5  C   UNL     1       2.398   4.752  20.842  0.00  0.00    +0.000 A 
ATOM      6  O   UNL     1       2.045   3.859  21.606  0.00  0.00    +0.000 OA
ATOM      7  C   UNL     1       3.477   4.567  19.822  0.00  0.00    +0.000 A 
ATOM      8  H   UNL     1       1.071   6.093  21.584  0.00  0.00    +0.000 HD
ENDROOT
BRANCH   1  12
ATOM      9  C   UNL     1       6.773   5.096  15.949  0.00  0.00    +0.000 A 
ATOM     10  C   UNL     1       5.470   4.652  15.726  0.00  0.00    +0.000 A 
ATOM     11  C   UNL     1       4.480   4.839  16.697  0.00  0.00    +0.000 A 
ATOM     12  C   UNL     1       4.796   5.435  17.925  0.00  0.00    +0.000 A 
ATOM     13  C   UNL     1       6.106   5.880  18.142  0.00  0.00    +0.000 A 
ATOM     14  C   UNL     1       7.089   5.713  17.160  0.00  0.00    +0.000 A 
BRANCH   9  15
ATOM     15  O   UNL     1       7.651   4.903  14.917  0.00  0.00    +0.000 OA
BRANCH  15  17
ATOM     16  C   UNL     1       7.889   5.366  12.588  0.00  0.00    +0.000 C 
ATOM     17  C   UNL     1       7.059   4.654  13.640  0.00  0.00    +0.000 C 
ENDBRANCH  15  17
ENDBRANCH   9  15
ENDBRANCH   1  12
BRANCH   3  18
ATOM     18  C   UNL     1       1.403   8.261  20.255  0.00  0.00    +0.000 A 
ATOM     19  C   UNL     1       0.751   8.658  21.465  0.00  0.00    +0.000 A 
ATOM     20  C   UNL     1       0.134   9.884  21.342  0.00  0.00    +0.000 A 
ATOM     21  S   UNL     1       0.350  10.562  19.788  0.00  0.00    +0.000 S 
ATOM     22  C   UNL     1       1.271   9.219  19.269  0.00  0.00    +0.000 A 
ENDBRANCH   3  18
BRANCH   7  23
ATOM     23  C   UNL     1       4.141   3.305  19.804  0.00  0.00    +0.000 C 
ATOM     24  N   UNL     1       4.673   2.278  19.816  0.00  0.00    +0.000 NA
ENDBRANCH   7  23
TORSDOF 5
ENDMDL
MODEL 2
REMARK VINA RESULT:      -7.6      0.142      1.012
REMARK  Name = 
REMARK  6 active torsions:
REMARK  status: ('A' for Active; 'I' for Inactive)
REMARK    1  A    between atoms: C_1  and  C_2
REMARK    2  A    between atoms: C_2  and  O_3
REMARK    3  A    between atoms: O_3  and  C_4
REMARK    4  A    between atoms: C_7  and  C_8
REMARK    5  A    between atoms: C_10  and  C_11
REMARK    6  A    between atoms: C_19  and  C_20
REMARK                            x       y       z     vdW  Elec       q    Type
REMARK                         _______ _______ _______ _____ _____    ______ ____
ROOT
ATOM      1  C   UNL     1       3.752   5.587  18.937  0.00  0.00    +0.000 A 
ATOM      2  C   UNL     1       3.014   6.837  19.069  0.00  0.00    +0.000 A 
ATOM      3  C   UNL     1       2.106   7.022  20.041  0.00  0.00    +0.000 A 
ATOM      4  N   UNL     1       1.841   5.988  20.900  0.00  0.00    +0.000 N 
ATOM      5  C   UNL     1       2.455   4.763  20.853  0.00  0.00    +0.000 A 
ATOM      6  O   UNL     1       2.139   3.877  21.641  0.00  0.00    +0.000 OA
ATOM      7  C   UNL     1       3.510   4.579  19.808  0.00  0.00    +0.000 A 
ATOM      8  H   UNL     1       1.125   6.093  21.609  0.00  0.00    +0.000 HD
ENDROOT
BRANCH   1  12
ATOM      9  C   UNL     1       6.665   5.206  15.799  0.00  0.00    +0.000 A 
ATOM     10  C   UNL     1       6.976   5.895  16.971  0.00  0.00    +0.000 A 
ATOM     11  C   UNL     1       6.041   5.992  18.007  0.00  0.00    +0.000 A 
ATOM     12  C   UNL     1       4.762   5.437  17.862  0.00  0.00    +0.000 A 
ATOM     13  C   UNL     1       4.457   4.745  16.683  0.00  0.00    +0.000 A 
ATOM     14  C   UNL     1       5.403   4.629  15.658  0.00  0.00    +0.000 A 
BRANCH   9  15
ATOM     15  O   UNL     1       7.667   5.134  14.869  0.00  0.00    +0.000 OA
BRANCH  15  17
ATOM     16  C   UNL     1       8.089   5.609  12.569  0.00  0.00    +0.000 C 
ATOM     17  C   UNL     1       7.257   4.795  13.543  0.00  0.00    +0.000 C 
ENDBRANCH  15  17
ENDBRANCH   9  15
ENDBRANCH   1  12
BRANCH   3  18
ATOM     18  C   UNL     1       1.385   8.244  20.236  0.00  0.00    +0.000 A 
ATOM     19  C   UNL     1       0.688   8.614  21.429  0.00  0.00    +0.000 A 
ATOM     20  C   UNL     1       0.067   9.838  21.309  0.00  0.00    +0.000 A 
ATOM     21  S   UNL     1       0.329  10.546  19.776  0.00  0.00    +0.000 S 
ATOM     22  C   UNL     1       1.278   9.219  19.263  0.00  0.00    +0.000 A 
ENDBRANCH   3  18
BRANCH   7  23
ATOM     23  C   UNL     1       4.195   3.328  19.792  0.00  0.00    +0.000 C 
ATOM     24  N   UNL     1       4.773   2.326  19.769  0.00  0.00    +0.000 NA
ENDBRANCH   7  23
TORSDOF 5
ENDMDL
MODEL 3
REMARK VINA RESULT:      -7.5      0.708      1.006
REMARK  Name = 
REMARK  6 active torsions:
REMARK  status: ('A' for Active; 'I' for Inactive)
REMARK    1  A    between atoms: C_1  and  C_2
REMARK    2  A    between atoms: C_2  and  O_3
REMARK    3  A    between atoms: O_3  and  C_4
REMARK    4  A    between atoms: C_7  and  C_8
REMARK    5  A    between atoms: C_10  and  C_11
REMARK    6  A    between atoms: C_19  and  C_20
REMARK                            x       y       z     vdW  Elec       q    Type
REMARK                         _______ _______ _______ _____ _____    ______ ____
ROOT
ATOM      1  C   UNL     1       3.652   5.498  18.818  0.00  0.00    +0.000 A 
ATOM      2  C   UNL     1       2.957   6.772  18.959  0.00  0.00    +0.000 A 
ATOM      3  C   UNL     1       2.140   7.021  19.995  0.00  0.00    +0.000 A 
ATOM      4  N   UNL     1       1.925   6.031  20.917  0.00  0.00    +0.000 N 
ATOM      5  C   UNL     1       2.505   4.789  20.871  0.00  0.00    +0.000 A 
ATOM      6  O   UNL     1       2.237   3.944  21.721  0.00  0.00    +0.000 OA
ATOM      7  C   UNL     1       3.462   4.534  19.749  0.00  0.00    +0.000 A 
ATOM      8  H   UNL     1       1.276   6.184  21.679  0.00  0.00    +0.000 HD
ENDROOT
BRANCH   1  12
ATOM      9  C   UNL     1       6.313   4.813  15.513  0.00  0.00    +0.000 A 
ATOM     10  C   UNL     1       5.109   4.116  15.606  0.00  0.00    +0.000 A 
ATOM     11  C   UNL     1       4.226   4.362  16.663  0.00  0.00    +0.000 A 
ATOM     12  C   UNL     1       4.562   5.278  17.669  0.00  0.00    +0.000 A 
ATOM     13  C   UNL     1       5.772   5.975  17.569  0.00  0.00    +0.000 A 
ATOM     14  C   UNL     1       6.642   5.746  16.497  0.00  0.00    +0.000 A 
BRANCH   9  15
ATOM     15  O   UNL     1       7.080   4.528  14.416  0.00  0.00    +0.000 OA
BRANCH  15  17
ATOM     16  C   UNL     1       7.158   4.180  12.057  0.00  0.00    +0.000 C 
ATOM     17  C   UNL     1       6.402   3.881  13.338  0.00  0.00    +0.000 C 
ENDBRANCH  15  17
ENDBRANCH   9  15
ENDBRANCH   1  12
BRANCH   3  18
ATOM     18  C   UNL     1       1.466   8.269  20.198  0.00  0.00    +0.000 A 
ATOM     19  C   UNL     1       1.276   9.279  19.203  0.00  0.00    +0.000 A 
ATOM     20  C   UNL     1       0.614  10.380  19.703  0.00  0.00    +0.000 A 
ATOM     21  S   UNL     1       0.212  10.196  21.354  0.00  0.00    +0.000 S 
ATOM     22  C   UNL     1       0.919   8.641  21.411  0.00  0.00    +0.000 A 
ENDBRANCH   3  18
BRANCH   7  23
ATOM     23  C   UNL     1       4.114   3.266  19.729  0.00  0.00    +0.000 C 
ATOM     24  N   UNL     1       4.659   2.246  19.692  0.00  0.00    +0.000 NA
ENDBRANCH   7  23
TORSDOF 5
ENDMDL
MODEL 4
REMARK VINA RESULT:      -6.5      3.102      7.254
REMARK  Name = 
REMARK  6 active torsions:
REMARK  status: ('A' for Active; 'I' for Inactive)
REMARK    1  A    between atoms: C_1  and  C_2
REMARK    2  A    between atoms: C_2  and  O_3
REMARK    3  A    between atoms: O_3  and  C_4
REMARK    4  A    between atoms: C_7  and  C_8
REMARK    5  A    between atoms: C_10  and  C_11
REMARK    6  A    between atoms: C_19  and  C_20
REMARK                            x       y       z     vdW  Elec       q    Type
REMARK                         _______ _______ _______ _____ _____    ______ ____
ROOT
ATOM      1  C   UNL     1       3.067   5.488  18.224  0.00  0.00    +0.000 A 
ATOM      2  C   UNL     1       4.077   5.564  17.175  0.00  0.00    +0.000 A 
ATOM      3  C   UNL     1       4.623   4.461  16.638  0.00  0.00    +0.000 A 
ATOM      4  N   UNL     1       4.246   3.237  17.125  0.00  0.00    +0.000 N 
ATOM      5  C   UNL     1       3.326   3.048  18.125  0.00  0.00    +0.000 A 
ATOM      6  O   UNL     1       3.066   1.918  18.527  0.00  0.00    +0.000 OA
ATOM      7  C   UNL     1       2.676   4.275  18.680  0.00  0.00    +0.000 A 
ATOM      8  H   UNL     1       4.682   2.396  16.765  0.00  0.00    +0.000 HD
ENDROOT
BRANCH   1  12
ATOM      9  C   UNL     1       1.303   9.075  19.805  0.00  0.00    +0.000 A 
ATOM     10  C   UNL     1       1.602   8.005  20.647  0.00  0.00    +0.000 A 
ATOM     11  C   UNL     1       2.207   6.850  20.141  0.00  0.00    +0.000 A 
ATOM     12  C   UNL     1       2.477   6.734  18.771  0.00  0.00    +0.000 A 
ATOM     13  C   UNL     1       2.175   7.812  17.930  0.00  0.00    +0.000 A 
ATOM     14  C   UNL     1       1.592   8.976  18.444  0.00  0.00    +0.000 A 
BRANCH   9  15
ATOM     15  O   UNL     1       0.754  10.172  20.411  0.00  0.00    +0.000 OA
BRANCH  15  17
ATOM     16  C   UNL     1      -0.349  10.558  22.492  0.00  0.00    +0.000 C 
ATOM     17  C   UNL     1      -0.472   9.945  21.109  0.00  0.00    +0.000 C 
ENDBRANCH  15  17
ENDBRANCH   9  15
ENDBRANCH   1  12
BRANCH   3  18
ATOM     18  C   UNL     1       5.588   4.482  15.580  0.00  0.00    +0.000 A 
ATOM     19  C   UNL     1       6.879   5.093  15.649  0.00  0.00    +0.000 A 
ATOM     20  C   UNL     1       7.573   4.973  14.464  0.00  0.00    +0.000 A 
ATOM     21  S   UNL     1       6.684   4.119  13.281  0.00  0.00    +0.000 S 
ATOM     22  C   UNL     1       5.365   3.903  14.346  0.00  0.00    +0.000 A 
ENDBRANCH   3  18
BRANCH   7  23
ATOM     23  C   UNL     1       1.674   4.083  19.677  0.00  0.00    +0.000 C 
ATOM     24  N   UNL     1       0.842   3.932  20.467  0.00  0.00    +0.000 NA
ENDBRANCH   7  23
TORSDOF 5
ENDMDL
MODEL 5
REMARK VINA RESULT:      -6.4      3.153      7.082
REMARK  Name = 
REMARK  6 active torsions:
REMARK  status: ('A' for Active; 'I' for Inactive)
REMARK    1  A    between atoms: C_1  and  C_2
REMARK    2  A    between atoms: C_2  and  O_3
REMARK    3  A    between atoms: O_3  and  C_4
REMARK    4  A    between atoms: C_7  and  C_8
REMARK    5  A    between atoms: C_10  and  C_11
REMARK    6  A    between atoms: C_19  and  C_20
REMARK                            x       y       z     vdW  Elec       q    Type
REMARK                         _______ _______ _______ _____ _____    ______ ____
ROOT
ATOM      1  C   UNL     1       3.079   5.509  18.206  0.00  0.00    +0.000 A 
ATOM      2  C   UNL     1       4.079   5.580  17.147  0.00  0.00    +0.000 A 
ATOM      3  C   UNL     1       4.657   4.477  16.646  0.00  0.00    +0.000 A 
ATOM      4  N   UNL     1       4.324   3.259  17.180  0.00  0.00    +0.000 N 
ATOM      5  C   UNL     1       3.417   3.077  18.192  0.00  0.00    +0.000 A 
ATOM      6  O   UNL     1       3.197   1.954  18.636  0.00  0.00    +0.000 OA
ATOM      7  C   UNL     1       2.730   4.302  18.708  0.00  0.00    +0.000 A 
ATOM      8  H   UNL     1       4.784   2.420  16.847  0.00  0.00    +0.000 HD
ENDROOT
BRANCH   1  12
ATOM      9  C   UNL     1       1.313   9.143  19.673  0.00  0.00    +0.000 A 
ATOM     10  C   UNL     1       1.563   8.980  18.311  0.00  0.00    +0.000 A 
ATOM     11  C   UNL     1       2.107   7.785  17.827  0.00  0.00    +0.000 A 
ATOM     12  C   UNL     1       2.451   6.754  18.712  0.00  0.00    +0.000 A 
ATOM     13  C   UNL     1       2.196   6.924  20.078  0.00  0.00    +0.000 A 
ATOM     14  C   UNL     1       1.629   8.111  20.556  0.00  0.00    +0.000 A 
BRANCH   9  15
ATOM     15  O   UNL     1       0.738  10.332  20.032  0.00  0.00    +0.000 OA
BRANCH  15  17
ATOM     16  C   UNL     1      -0.899  11.731  19.003  0.00  0.00    +0.000 C 
ATOM     17  C   UNL     1      -0.663  10.445  19.775  0.00  0.00    +0.000 C 
ENDBRANCH  15  17
ENDBRANCH   9  15
ENDBRANCH   1  12
BRANCH   3  18
ATOM     18  C   UNL     1       5.614   4.491  15.581  0.00  0.00    +0.000 A 
ATOM     19  C   UNL     1       6.906   5.102  15.636  0.00  0.00    +0.000 A 
ATOM     20  C   UNL     1       7.590   4.974  14.447  0.00  0.00    +0.000 A 
ATOM     21  S   UNL     1       6.692   4.114  13.275  0.00  0.00    +0.000 S 
ATOM     22  C   UNL     1       5.382   3.905  14.351  0.00  0.00    +0.000 A 
ENDBRANCH   3  18
BRANCH   7  23
ATOM     23  C   UNL     1       1.742   4.112  19.719  0.00  0.00    +0.000 C 
ATOM     24  N   UNL     1       0.960   3.963  20.558  0.00  0.00    +0.000 NA
ENDBRANCH   7  23
TORSDOF 5
ENDMDL
MODEL 6
REMARK VINA RESULT:      -6.3      3.101      7.110
REMARK  Name = 
REMARK  6 active torsions:
REMARK  status: ('A' for Active; 'I' for Inactive)
REMARK    1  A    between atoms: C_1  and  C_2
REMARK    2  A    between atoms: C_2  and  O_3
REMARK    3  A    between atoms: O_3  and  C_4
REMARK    4  A    between atoms: C_7  and  C_8
REMARK    5  A    between atoms: C_10  and  C_11
REMARK    6  A    between atoms: C_19  and  C_20
REMARK                            x       y       z     vdW  Elec       q    Type
REMARK                         _______ _______ _______ _____ _____    ______ ____
ROOT
ATOM      1  C   UNL     1       3.187   5.619  18.159  0.00  0.00    +0.000 A 
ATOM      2  C   UNL     1       4.124   5.663  17.042  0.00  0.00    +0.000 A 
ATOM      3  C   UNL     1       4.712   4.552  16.569  0.00  0.00    +0.000 A 
ATOM      4  N   UNL     1       4.452   3.356  17.185  0.00  0.00    +0.000 N 
ATOM      5  C   UNL     1       3.609   3.202  18.256  0.00  0.00    +0.000 A 
ATOM      6  O   UNL     1       3.453   2.099  18.772  0.00  0.00    +0.000 OA
ATOM      7  C   UNL     1       2.909   4.431  18.743  0.00  0.00    +0.000 A 
ATOM      8  H   UNL     1       4.922   2.516  16.872  0.00  0.00    +0.000 HD
ENDROOT
BRANCH   1  12
ATOM      9  C   UNL     1       1.274   9.217  19.528  0.00  0.00    +0.000 A 
ATOM     10  C   UNL     1       1.609   8.207  20.430  0.00  0.00    +0.000 A 
ATOM     11  C   UNL     1       2.261   7.050  19.992  0.00  0.00    +0.000 A 
ATOM     12  C   UNL     1       2.545   6.869  18.632  0.00  0.00    +0.000 A 
ATOM     13  C   UNL     1       2.208   7.887  17.731  0.00  0.00    +0.000 A 
ATOM     14  C   UNL     1       1.578   9.054  18.176  0.00  0.00    +0.000 A 
BRANCH   9  15
ATOM     15  O   UNL     1       0.679  10.324  20.070  0.00  0.00    +0.000 OA
BRANCH  15  17
ATOM     16  C   UNL     1      -1.389  10.921  19.041  0.00  0.00    +0.000 C 
ATOM     17  C   UNL     1       0.093  11.231  19.134  0.00  0.00    +0.000 C 
ENDBRANCH  15  17
ENDBRANCH   9  15
ENDBRANCH   1  12
BRANCH   3  18
ATOM     18  C   UNL     1       5.607   4.538  15.451  0.00  0.00    +0.000 A 
ATOM     19  C   UNL     1       5.397   3.824  14.230  0.00  0.00    +0.000 A 
ATOM     20  C   UNL     1       6.446   3.982  13.350  0.00  0.00    +0.000 A 
ATOM     21  S   UNL     1       7.670   4.992  13.982  0.00  0.00    +0.000 S 
ATOM     22  C   UNL     1       6.805   5.227  15.436  0.00  0.00    +0.000 A 
ENDBRANCH   3  18
BRANCH   7  23
ATOM     23  C   UNL     1       1.985   4.266  19.818  0.00  0.00    +0.000 C 
ATOM     24  N   UNL     1       1.216   4.141  20.673  0.00  0.00    +0.000 NA
ENDBRANCH   7  23
TORSDOF 5
ENDMDL
MODEL 7
REMARK VINA RESULT:      -6.3      3.027      7.185
REMARK  Name = 
REMARK  6 active torsions:
REMARK  status: ('A' for Active; 'I' for Inactive)
REMARK    1  A    between atoms: C_1  and  C_2
REMARK    2  A    between atoms: C_2  and  O_3
REMARK    3  A    between atoms: O_3  and  C_4
REMARK    4  A    between atoms: C_7  and  C_8
REMARK    5  A    between atoms: C_10  and  C_11
REMARK    6  A    between atoms: C_19  and  C_20
REMARK                            x       y       z     vdW  Elec       q    Type
REMARK                         _______ _______ _______ _____ _____    ______ ____
ROOT
ATOM      1  C   UNL     1       3.149   5.516  18.220  0.00  0.00    +0.000 A 
ATOM      2  C   UNL     1       4.080   5.571  17.099  0.00  0.00    +0.000 A 
ATOM      3  C   UNL     1       4.679   4.468  16.622  0.00  0.00    +0.000 A 
ATOM      4  N   UNL     1       4.436   3.269  17.239  0.00  0.00    +0.000 N 
ATOM      5  C   UNL     1       3.600   3.104  18.314  0.00  0.00    +0.000 A 
ATOM      6  O   UNL     1       3.459   1.999  18.830  0.00  0.00    +0.000 OA
ATOM      7  C   UNL     1       2.888   4.325  18.805  0.00  0.00    +0.000 A 
ATOM      8  H   UNL     1       4.915   2.434  16.924  0.00  0.00    +0.000 HD
ENDROOT
BRANCH   1  12
ATOM      9  C   UNL     1       1.305   9.144  19.602  0.00  0.00    +0.000 A 
ATOM     10  C   UNL     1       1.576   8.963  18.247  0.00  0.00    +0.000 A 
ATOM     11  C   UNL     1       2.146   7.769  17.790  0.00  0.00    +0.000 A 
ATOM     12  C   UNL     1       2.495   6.759  18.696  0.00  0.00    +0.000 A 
ATOM     13  C   UNL     1       2.219   6.947  20.056  0.00  0.00    +0.000 A 
ATOM     14  C   UNL     1       1.626   8.132  20.507  0.00  0.00    +0.000 A 
BRANCH   9  15
ATOM     15  O   UNL     1       0.706  10.330  19.934  0.00  0.00    +0.000 OA
BRANCH  15  17
ATOM     16  C   UNL     1      -0.514  10.675  21.956  0.00  0.00    +0.000 C 
ATOM     17  C   UNL     1       0.852  10.736  21.296  0.00  0.00    +0.000 C 
ENDBRANCH  15  17
ENDBRANCH   9  15
ENDBRANCH   1  12
BRANCH   3  18
ATOM     18  C   UNL     1       5.570   4.465  15.501  0.00  0.00    +0.000 A 
ATOM     19  C   UNL     1       5.358   3.755  14.277  0.00  0.00    +0.000 A 
ATOM     20  C   UNL     1       6.402   3.923  13.394  0.00  0.00    +0.000 A 
ATOM     21  S   UNL     1       7.623   4.939  14.024  0.00  0.00    +0.000 S 
ATOM     22  C   UNL     1       6.762   5.162  15.484  0.00  0.00    +0.000 A 
ENDBRANCH   3  18
BRANCH   7  23
ATOM     23  C   UNL     1       1.971   4.149  19.884  0.00  0.00    +0.000 C 
ATOM     24  N   UNL     1       1.237   3.981  20.763  0.00  0.00    +0.000 NA
ENDBRANCH   7  23
TORSDOF 5
ENDMDL
MODEL 8
REMARK VINA RESULT:      -6.2      4.803      7.366
REMARK  Name = 
REMARK  6 active torsions:
REMARK  status: ('A' for Active; 'I' for Inactive)
REMARK    1  A    between atoms: C_1  and  C_2
REMARK    2  A    between atoms: C_2  and  O_3
REMARK    3  A    between atoms: O_3  and  C_4
REMARK    4  A    between atoms: C_7  and  C_8
REMARK    5  A    between atoms: C_10  and  C_11
REMARK    6  A    between atoms: C_19  and  C_20
REMARK                            x       y       z     vdW  Elec       q    Type
REMARK                         _______ _______ _______ _____ _____    ______ ____
ROOT
ATOM      1  C   UNL     1      -0.098  10.982  18.884  0.00  0.00    +0.000 A 
ATOM      2  C   UNL     1      -1.545  10.833  18.977  0.00  0.00    +0.000 A 
ATOM      3  C   UNL     1      -2.372  11.888  18.888  0.00  0.00    +0.000 A 
ATOM      4  N   UNL     1      -1.829  13.139  18.748  0.00  0.00    +0.000 N 
ATOM      5  C   UNL     1      -0.485  13.398  18.674  0.00  0.00    +0.000 A 
ATOM      6  O   UNL     1      -0.077  14.552  18.579  0.00  0.00    +0.000 OA
ATOM      7  C   UNL     1       0.431  12.216  18.714  0.00  0.00    +0.000 A 
ATOM      8  H   UNL     1      -2.435  13.950  18.726  0.00  0.00    +0.000 HD
ENDROOT
BRANCH   1  12
ATOM      9  C   UNL     1       2.382   7.477  19.104  0.00  0.00    +0.000 A 
ATOM     10  C   UNL     1       2.193   8.134  17.888  0.00  0.00    +0.000 A 
ATOM     11  C   UNL     1       1.414   9.294  17.820  0.00  0.00    +0.000 A 
ATOM     12  C   UNL     1       0.773   9.785  18.966  0.00  0.00    +0.000 A 
ATOM     13  C   UNL     1       0.967   9.121  20.183  0.00  0.00    +0.000 A 
ATOM     14  C   UNL     1       1.767   7.975  20.253  0.00  0.00    +0.000 A 
BRANCH   9  15
ATOM     15  O   UNL     1       3.198   6.379  19.065  0.00  0.00    +0.000 OA
BRANCH  15  17
ATOM     16  C   UNL     1       2.245   4.465  18.006  0.00  0.00    +0.000 C 
ATOM     17  C   UNL     1       3.187   5.643  17.841  0.00  0.00    +0.000 C 
ENDBRANCH  15  17
ENDBRANCH   9  15
ENDBRANCH   1  12
BRANCH   3  18
ATOM     18  C   UNL     1      -3.800  11.789  18.934  0.00  0.00    +0.000 A 
ATOM     19  C   UNL     1      -4.646  12.455  19.875  0.00  0.00    +0.000 A 
ATOM     20  C   UNL     1      -5.975  12.145  19.686  0.00  0.00    +0.000 A 
ATOM     21  S   UNL     1      -6.207  11.070  18.378  0.00  0.00    +0.000 S 
ATOM     22  C   UNL     1      -4.530  11.014  18.054  0.00  0.00    +0.000 A 
ENDBRANCH   3  18
BRANCH   7  23
ATOM     23  C   UNL     1       1.828  12.474  18.576  0.00  0.00    +0.000 C 
ATOM     24  N   UNL     1       2.962  12.685  18.493  0.00  0.00    +0.000 NA
ENDBRANCH   7  23
TORSDOF 5
ENDMDL
MODEL 9
REMARK VINA RESULT:      -6.2      4.793      7.499
REMARK  Name = 
REMARK  6 active torsions:
REMARK  status: ('A' for Active; 'I' for Inactive)
REMARK    1  A    between atoms: C_1  and  C_2
REMARK    2  A    between atoms: C_2  and  O_3
REMARK    3  A    between atoms: O_3  and  C_4
REMARK    4  A    between atoms: C_7  and  C_8
REMARK    5  A    between atoms: C_10  and  C_11
REMARK    6  A    between atoms: C_19  and  C_20
REMARK                            x       y       z     vdW  Elec       q    Type
REMARK                         _______ _______ _______ _____ _____    ______ ____
ROOT
ATOM      1  C   UNL     1      -0.131  10.981  18.921  0.00  0.00    +0.000 A 
ATOM      2  C   UNL     1      -1.579  10.846  19.020  0.00  0.00    +0.000 A 
ATOM      3  C   UNL     1      -2.395  11.911  18.948  0.00  0.00    +0.000 A 
ATOM      4  N   UNL     1      -1.840  13.157  18.821  0.00  0.00    +0.000 N 
ATOM      5  C   UNL     1      -0.493  13.403  18.744  0.00  0.00    +0.000 A 
ATOM      6  O   UNL     1      -0.074  14.554  18.661  0.00  0.00    +0.000 OA
ATOM      7  C   UNL     1       0.410  12.211  18.764  0.00  0.00    +0.000 A 
ATOM      8  H   UNL     1      -2.437  13.976  18.812  0.00  0.00    +0.000 HD
ENDROOT
BRANCH   1  12
ATOM      9  C   UNL     1       2.403   7.514  19.120  0.00  0.00    +0.000 A 
ATOM     10  C   UNL     1       1.782   8.002  20.269  0.00  0.00    +0.000 A 
ATOM     11  C   UNL     1       0.931   9.110  20.201  0.00  0.00    +0.000 A 
ATOM     12  C   UNL     1       0.727   9.773  18.984  0.00  0.00    +0.000 A 
ATOM     13  C   UNL     1       1.353   9.278  17.833  0.00  0.00    +0.000 A 
ATOM     14  C   UNL     1       2.184   8.154  17.900  0.00  0.00    +0.000 A 
BRANCH   9  15
ATOM     15  O   UNL     1       3.178   6.400  19.292  0.00  0.00    +0.000 OA
BRANCH  15  17
ATOM     16  C   UNL     1       2.010   4.525  18.388  0.00  0.00    +0.000 C 
ATOM     17  C   UNL     1       2.479   5.210  19.659  0.00  0.00    +0.000 C 
ENDBRANCH  15  17
ENDBRANCH   9  15
ENDBRANCH   1  12
BRANCH   3  18
ATOM     18  C   UNL     1      -3.824  11.826  19.000  0.00  0.00    +0.000 A 
ATOM     19  C   UNL     1      -4.658  12.485  19.957  0.00  0.00    +0.000 A 
ATOM     20  C   UNL     1      -5.991  12.192  19.770  0.00  0.00    +0.000 A 
ATOM     21  S   UNL     1      -6.242  11.143  18.445  0.00  0.00    +0.000 S 
ATOM     22  C   UNL     1      -4.567  11.074  18.111  0.00  0.00    +0.000 A 
ENDBRANCH   3  18
BRANCH   7  23
ATOM     23  C   UNL     1       1.809  12.456  18.623  0.00  0.00    +0.000 C 
ATOM     24  N   UNL     1       2.938  12.664  18.483  0.00  0.00    +0.000 NA
ENDBRANCH   7  23
TORSDOF 5
ENDMDL
