MODEL 1
REMARK VINA RESULT:      -7.4      0.000      0.000
REMARK  Name = 
REMARK  11 active torsions:
REMARK  status: ('A' for Active; 'I' for Inactive)
REMARK    1  A    between atoms: C_1  and  O_2
REMARK    2  A    between atoms: O_2  and  C_3
REMARK    3  A    between atoms: C_9  and  N_10
REMARK    4  A    between atoms: N_10  and  C_11
REMARK    5  A    between atoms: N_10  and  S_24
REMARK    6  A    between atoms: C_11  and  C_12
REMARK    7  A    between atoms: N_14  and  C_15
REMARK    8  A    between atoms: C_15  and  C_16
REMARK    9  A    between atoms: C_16  and  S_17
REMARK   10  A    between atoms: S_17  and  C_18
REMARK   11  A    between atoms: S_24  and  C_27
REMARK                            x       y       z     vdW  Elec       q    Type
REMARK                         _______ _______ _______ _____ _____    ______ ____
ROOT
ATOM      1  N   UNL     1       3.447   5.360  17.513  0.00  0.00    +0.000 N 
ENDROOT
BRANCH   1   8
ATOM      2  C   UNL     1       5.642   4.923  16.301  0.00  0.00    +0.000 A 
ATOM      3  C   UNL     1       7.045   4.816  16.387  0.00  0.00    +0.000 A 
ATOM      4  C   UNL     1       7.704   4.956  17.607  0.00  0.00    +0.000 A 
ATOM      5  C   UNL     1       6.970   5.260  18.743  0.00  0.00    +0.000 A 
ATOM      6 CL   UNL     1       7.787   5.449  20.245  0.00  0.00    +0.000 Cl
ATOM      7  C   UNL     1       5.581   5.404  18.673  0.00  0.00    +0.000 A 
ATOM      8  C   UNL     1       4.894   5.197  17.465  0.00  0.00    +0.000 A 
BRANCH   2  10
ATOM      9  C   UNL     1       5.635   4.022  14.110  0.00  0.00    +0.000 C 
ATOM     10  O   UNL     1       4.977   4.804  15.108  0.00  0.00    +0.000 OA
ENDBRANCH   2  10
ENDBRANCH   1   8
BRANCH   1  11
ATOM     11  S   UNL     1       2.525   3.901  17.631  0.00  0.00    +0.000 S 
ATOM     12  O   UNL     1       1.183   4.211  17.196  0.00  0.00    +0.000 OA
ATOM     13  O   UNL     1       3.260   2.834  16.976  0.00  0.00    +0.000 OA
BRANCH  11  14
ATOM     14  C   UNL     1       2.406   3.466  19.372  0.00  0.00    +0.000 A 
ATOM     15  C   UNL     1       1.188   3.627  20.049  0.00  0.00    +0.000 A 
ATOM     16  C   UNL     1       1.056   3.178  21.369  0.00  0.00    +0.000 A 
ATOM     17  C   UNL     1       2.128   2.560  22.012  0.00  0.00    +0.000 A 
ATOM     18  C   UNL     1       3.317   2.341  21.314  0.00  0.00    +0.000 A 
ATOM     19  C   UNL     1       3.450   2.774  19.992  0.00  0.00    +0.000 A 
ENDBRANCH  11  14
ENDBRANCH   1  11
BRANCH   1  20
ATOM     20  C   UNL     1       2.852   6.513  18.230  0.00  0.00    +0.000 C 
BRANCH  20  21
ATOM     21  C   UNL     1       2.728   7.902  17.626  0.00  0.00    +0.000 C 
ATOM     22  O   UNL     1       3.437   8.196  16.657  0.00  0.00    +0.000 OA
ATOM     23  N   UNL     1       1.916   8.852  18.220  0.00  0.00    +0.000 N 
ATOM     24  H   UNL     1       1.531   8.654  19.137  0.00  0.00    +0.000 HD
BRANCH  23  25
ATOM     25  C   UNL     1       1.997  10.247  17.757  0.00  0.00    +0.000 C 
BRANCH  25  26
ATOM     26  C   UNL     1       1.700  11.296  18.831  0.00  0.00    +0.000 C 
BRANCH  26  27
ATOM     27  S   UNL     1      -0.100  11.294  19.196  0.00  0.00    +0.000 S 
BRANCH  27  28
ATOM     28  C   UNL     1      -0.128  10.588  20.835  0.00  0.00    +0.000 A 
ATOM     29  C   UNL     1      -0.902  11.202  21.816  0.00  0.00    +0.000 A 
ATOM     30  C   UNL     1      -0.926  10.651  23.096  0.00  0.00    +0.000 A 
ATOM     31  C   UNL     1      -0.183   9.508  23.357  0.00  0.00    +0.000 A 
ATOM     32  C   UNL     1       0.558   8.964  22.323  0.00  0.00    +0.000 A 
ATOM     33  N   UNL     1       0.604   9.479  21.073  0.00  0.00    +0.000 NA
ENDBRANCH  27  28
ENDBRANCH  26  27
ENDBRANCH  25  26
ENDBRANCH  23  25
ENDBRANCH  20  21
ENDBRANCH   1  20
TORSDOF 10
ENDMDL
MODEL 2
REMARK VINA RESULT:      -7.2      1.781      2.287
REMARK  Name = 
REMARK  11 active torsions:
REMARK  status: ('A' for Active; 'I' for Inactive)
REMARK    1  A    between atoms: C_1  and  O_2
REMARK    2  A    between atoms: O_2  and  C_3
REMARK    3  A    between atoms: C_9  and  N_10
REMARK    4  A    between atoms: N_10  and  C_11
REMARK    5  A    between atoms: N_10  and  S_24
REMARK    6  A    between atoms: C_11  and  C_12
REMARK    7  A    between atoms: N_14  and  C_15
REMARK    8  A    between atoms: C_15  and  C_16
REMARK    9  A    between atoms: C_16  and  S_17
REMARK   10  A    between atoms: S_17  and  C_18
REMARK   11  A    between atoms: S_24  and  C_27
REMARK                            x       y       z     vdW  Elec       q    Type
REMARK                         _______ _______ _______ _____ _____    ______ ____
ROOT
ATOM      1  N   UNL     1       3.652   5.099  17.525  0.00  0.00    +0.000 N 
ENDROOT
BRANCH   1   8
ATOM      2  C   UNL     1       6.189   4.970  17.368  0.00  0.00    +0.000 A 
ATOM      3  C   UNL     1       7.316   4.707  16.564  0.00  0.00    +0.000 A 
ATOM      4  C   UNL     1       7.180   4.381  15.216  0.00  0.00    +0.000 A 
ATOM      5  C   UNL     1       5.910   4.261  14.673  0.00  0.00    +0.000 A 
ATOM      6 CL   UNL     1       5.743   3.843  13.013  0.00  0.00    +0.000 Cl
ATOM      7  C   UNL     1       4.778   4.484  15.461  0.00  0.00    +0.000 A 
ATOM      8  C   UNL     1       4.899   4.881  16.804  0.00  0.00    +0.000 A 
BRANCH   2  10
ATOM      9  C   UNL     1       7.597   5.698  19.128  0.00  0.00    +0.000 C 
ATOM     10  O   UNL     1       6.302   5.276  18.700  0.00  0.00    +0.000 OA
ENDBRANCH   2  10
ENDBRANCH   1   8
BRANCH   1  11
ATOM     11  S   UNL     1       2.589   3.738  17.628  0.00  0.00    +0.000 S 
ATOM     12  O   UNL     1       1.295   4.174  17.158  0.00  0.00    +0.000 OA
ATOM     13  O   UNL     1       3.232   2.599  16.999  0.00  0.00    +0.000 OA
BRANCH  11  14
ATOM     14  C   UNL     1       2.385   3.331  19.368  0.00  0.00    +0.000 A 
ATOM     15  C   UNL     1       1.125   3.460  19.972  0.00  0.00    +0.000 A 
ATOM     16  C   UNL     1       0.934   3.032  21.291  0.00  0.00    +0.000 A 
ATOM     17  C   UNL     1       1.988   2.466  22.007  0.00  0.00    +0.000 A 
ATOM     18  C   UNL     1       3.223   2.278  21.382  0.00  0.00    +0.000 A 
ATOM     19  C   UNL     1       3.416   2.691  20.061  0.00  0.00    +0.000 A 
ENDBRANCH  11  14
ENDBRANCH   1  11
BRANCH   1  20
ATOM     20  C   UNL     1       3.627   5.980  18.716  0.00  0.00    +0.000 C 
BRANCH  20  21
ATOM     21  C   UNL     1       2.615   7.097  18.912  0.00  0.00    +0.000 C 
ATOM     22  O   UNL     1       1.820   7.021  19.856  0.00  0.00    +0.000 OA
ATOM     23  N   UNL     1       2.516   8.121  17.988  0.00  0.00    +0.000 N 
ATOM     24  H   UNL     1       3.018   8.032  17.112  0.00  0.00    +0.000 HD
BRANCH  23  25
ATOM     25  C   UNL     1       1.378   9.051  18.076  0.00  0.00    +0.000 C 
BRANCH  25  26
ATOM     26  C   UNL     1       1.748  10.474  18.504  0.00  0.00    +0.000 C 
BRANCH  26  27
ATOM     27  S   UNL     1       0.254  11.314  19.161  0.00  0.00    +0.000 S 
BRANCH  27  28
ATOM     28  C   UNL     1       0.168  10.641  20.813  0.00  0.00    +0.000 A 
ATOM     29  C   UNL     1      -0.844  11.078  21.663  0.00  0.00    +0.000 A 
ATOM     30  C   UNL     1      -0.914  10.551  22.951  0.00  0.00    +0.000 A 
ATOM     31  C   UNL     1       0.022   9.608  23.350  0.00  0.00    +0.000 A 
ATOM     32  C   UNL     1       0.995   9.230  22.440  0.00  0.00    +0.000 A 
ATOM     33  N   UNL     1       1.089   9.727  21.185  0.00  0.00    +0.000 NA
ENDBRANCH  27  28
ENDBRANCH  26  27
ENDBRANCH  25  26
ENDBRANCH  23  25
ENDBRANCH  20  21
ENDBRANCH   1  20
TORSDOF 10
ENDMDL
MODEL 3
REMARK VINA RESULT:      -7.0      1.862      2.594
REMARK  Name = 
REMARK  11 active torsions:
REMARK  status: ('A' for Active; 'I' for Inactive)
REMARK    1  A    between atoms: C_1  and  O_2
REMARK    2  A    between atoms: O_2  and  C_3
REMARK    3  A    between atoms: C_9  and  N_10
REMARK    4  A    between atoms: N_10  and  C_11
REMARK    5  A    between atoms: N_10  and  S_24
REMARK    6  A    between atoms: C_11  and  C_12
REMARK    7  A    between atoms: N_14  and  C_15
REMARK    8  A    between atoms: C_15  and  C_16
REMARK    9  A    between atoms: C_16  and  S_17
REMARK   10  A    between atoms: S_17  and  C_18
REMARK   11  A    between atoms: S_24  and  C_27
REMARK                            x       y       z     vdW  Elec       q    Type
REMARK                         _______ _______ _______ _____ _____    ______ ____
ROOT
ATOM      1  N   UNL     1       3.553   5.331  17.605  0.00  0.00    +0.000 N 
ENDROOT
BRANCH   1   8
ATOM      2  C   UNL     1       6.092   5.162  17.655  0.00  0.00    +0.000 A 
ATOM      3  C   UNL     1       7.275   4.848  16.955  0.00  0.00    +0.000 A 
ATOM      4  C   UNL     1       7.239   4.462  15.617  0.00  0.00    +0.000 A 
ATOM      5  C   UNL     1       6.014   4.332  14.981  0.00  0.00    +0.000 A 
ATOM      6 CL   UNL     1       5.970   3.839  13.334  0.00  0.00    +0.000 Cl
ATOM      7  C   UNL     1       4.827   4.606  15.667  0.00  0.00    +0.000 A 
ATOM      8  C   UNL     1       4.849   5.064  16.996  0.00  0.00    +0.000 A 
BRANCH   2  10
ATOM      9  C   UNL     1       7.386   5.513  19.608  0.00  0.00    +0.000 C 
ATOM     10  O   UNL     1       6.106   5.529  18.976  0.00  0.00    +0.000 OA
ENDBRANCH   2  10
ENDBRANCH   1   8
BRANCH   1  11
ATOM     11  S   UNL     1       2.431   4.014  17.608  0.00  0.00    +0.000 S 
ATOM     12  O   UNL     1       1.132   4.564  17.300  0.00  0.00    +0.000 OA
ATOM     13  O   UNL     1       2.969   2.946  16.785  0.00  0.00    +0.000 OA
BRANCH  11  14
ATOM     14  C   UNL     1       2.329   3.383  19.288  0.00  0.00    +0.000 A 
ATOM     15  C   UNL     1       3.452   2.783  19.878  0.00  0.00    +0.000 A 
ATOM     16  C   UNL     1       3.415   2.399  21.224  0.00  0.00    +0.000 A 
ATOM     17  C   UNL     1       2.269   2.620  21.987  0.00  0.00    +0.000 A 
ATOM     18  C   UNL     1       1.176   3.276  21.416  0.00  0.00    +0.000 A 
ATOM     19  C   UNL     1       1.212   3.675  20.077  0.00  0.00    +0.000 A 
ENDBRANCH  11  14
ENDBRANCH   1  11
BRANCH   1  20
ATOM     20  C   UNL     1       3.459   6.211  18.795  0.00  0.00    +0.000 C 
BRANCH  20  21
ATOM     21  C   UNL     1       2.471   7.360  18.912  0.00  0.00    +0.000 C 
ATOM     22  O   UNL     1       1.721   7.402  19.894  0.00  0.00    +0.000 OA
ATOM     23  N   UNL     1       2.341   8.278  17.885  0.00  0.00    +0.000 N 
ATOM     24  H   UNL     1       2.801   8.084  17.003  0.00  0.00    +0.000 HD
BRANCH  23  25
ATOM     25  C   UNL     1       1.221   9.232  17.922  0.00  0.00    +0.000 C 
BRANCH  25  26
ATOM     26  C   UNL     1       1.498  10.512  18.713  0.00  0.00    +0.000 C 
BRANCH  26  27
ATOM     27  S   UNL     1      -0.039  11.513  18.800  0.00  0.00    +0.000 S 
BRANCH  27  28
ATOM     28  C   UNL     1      -0.514  11.285  20.505  0.00  0.00    +0.000 A 
ATOM     29  C   UNL     1       0.123  10.299  21.253  0.00  0.00    +0.000 A 
ATOM     30  C   UNL     1      -0.245  10.121  22.585  0.00  0.00    +0.000 A 
ATOM     31  C   UNL     1      -1.231  10.931  23.130  0.00  0.00    +0.000 A 
ATOM     32  C   UNL     1      -1.812  11.888  22.315  0.00  0.00    +0.000 A 
ATOM     33  N   UNL     1      -1.478  12.080  21.019  0.00  0.00    +0.000 NA
ENDBRANCH  27  28
ENDBRANCH  26  27
ENDBRANCH  25  26
ENDBRANCH  23  25
ENDBRANCH  20  21
ENDBRANCH   1  20
TORSDOF 10
ENDMDL
MODEL 4
REMARK VINA RESULT:      -7.0      2.225      2.849
REMARK  Name = 
REMARK  11 active torsions:
REMARK  status: ('A' for Active; 'I' for Inactive)
REMARK    1  A    between atoms: C_1  and  O_2
REMARK    2  A    between atoms: O_2  and  C_3
REMARK    3  A    between atoms: C_9  and  N_10
REMARK    4  A    between atoms: N_10  and  C_11
REMARK    5  A    between atoms: N_10  and  S_24
REMARK    6  A    between atoms: C_11  and  C_12
REMARK    7  A    between atoms: N_14  and  C_15
REMARK    8  A    between atoms: C_15  and  C_16
REMARK    9  A    between atoms: C_16  and  S_17
REMARK   10  A    between atoms: S_17  and  C_18
REMARK   11  A    between atoms: S_24  and  C_27
REMARK                            x       y       z     vdW  Elec       q    Type
REMARK                         _______ _______ _______ _____ _____    ______ ____
ROOT
ATOM      1  N   UNL     1       4.548   5.586  17.433  0.00  0.00    +0.000 N 
ENDROOT
BRANCH   1   8
ATOM      2  C   UNL     1       6.841   5.605  16.328  0.00  0.00    +0.000 A 
ATOM      3  C   UNL     1       7.621   5.258  15.206  0.00  0.00    +0.000 A 
ATOM      4  C   UNL     1       7.049   4.645  14.092  0.00  0.00    +0.000 A 
ATOM      5  C   UNL     1       5.700   4.324  14.114  0.00  0.00    +0.000 A 
ATOM      6 CL   UNL     1       4.999   3.553  12.745  0.00  0.00    +0.000 Cl
ATOM      7  C   UNL     1       4.916   4.629  15.230  0.00  0.00    +0.000 A 
ATOM      8  C   UNL     1       5.462   5.308  16.333  0.00  0.00    +0.000 A 
BRANCH   2  10
ATOM      9  C   UNL     1       7.607   7.601  17.347  0.00  0.00    +0.000 C 
ATOM     10  O   UNL     1       7.388   6.193  17.438  0.00  0.00    +0.000 OA
ENDBRANCH   2  10
ENDBRANCH   1   8
BRANCH   1  11
ATOM     11  S   UNL     1       4.781   4.645  18.866  0.00  0.00    +0.000 S 
ATOM     12  O   UNL     1       5.659   3.552  18.518  0.00  0.00    +0.000 OA
ATOM     13  O   UNL     1       5.145   5.536  19.952  0.00  0.00    +0.000 OA
BRANCH  11  14
ATOM     14  C   UNL     1       3.200   3.905  19.300  0.00  0.00    +0.000 A 
ATOM     15  C   UNL     1       2.527   4.324  20.457  0.00  0.00    +0.000 A 
ATOM     16  C   UNL     1       1.243   3.840  20.736  0.00  0.00    +0.000 A 
ATOM     17  C   UNL     1       0.623   2.949  19.861  0.00  0.00    +0.000 A 
ATOM     18  C   UNL     1       1.267   2.584  18.677  0.00  0.00    +0.000 A 
ATOM     19  C   UNL     1       2.543   3.075  18.386  0.00  0.00    +0.000 A 
ENDBRANCH  11  14
ENDBRANCH   1  11
BRANCH   1  20
ATOM     20  C   UNL     1       4.090   6.973  17.686  0.00  0.00    +0.000 C 
BRANCH  20  21
ATOM     21  C   UNL     1       2.646   7.336  17.990  0.00  0.00    +0.000 C 
ATOM     22  O   UNL     1       1.774   6.471  17.857  0.00  0.00    +0.000 OA
ATOM     23  N   UNL     1       2.305   8.639  18.304  0.00  0.00    +0.000 N 
ATOM     24  H   UNL     1       3.001   9.365  18.180  0.00  0.00    +0.000 HD
BRANCH  23  25
ATOM     25  C   UNL     1       0.881   9.007  18.361  0.00  0.00    +0.000 C 
BRANCH  25  26
ATOM     26  C   UNL     1       0.594  10.493  18.126  0.00  0.00    +0.000 C 
BRANCH  26  27
ATOM     27  S   UNL     1       1.446  11.484  19.416  0.00  0.00    +0.000 S 
BRANCH  27  28
ATOM     28  C   UNL     1       0.704  10.836  20.905  0.00  0.00    +0.000 A 
ATOM     29  C   UNL     1      -0.377  11.512  21.465  0.00  0.00    +0.000 A 
ATOM     30  C   UNL     1      -0.958  11.006  22.626  0.00  0.00    +0.000 A 
ATOM     31  C   UNL     1      -0.448   9.846  23.191  0.00  0.00    +0.000 A 
ATOM     32  C   UNL     1       0.629   9.238  22.568  0.00  0.00    +0.000 A 
ATOM     33  N   UNL     1       1.215   9.708  21.443  0.00  0.00    +0.000 NA
ENDBRANCH  27  28
ENDBRANCH  26  27
ENDBRANCH  25  26
ENDBRANCH  23  25
ENDBRANCH  20  21
ENDBRANCH   1  20
TORSDOF 10
ENDMDL
MODEL 5
REMARK VINA RESULT:      -7.0      2.130      3.206
REMARK  Name = 
REMARK  11 active torsions:
REMARK  status: ('A' for Active; 'I' for Inactive)
REMARK    1  A    between atoms: C_1  and  O_2
REMARK    2  A    between atoms: O_2  and  C_3
REMARK    3  A    between atoms: C_9  and  N_10
REMARK    4  A    between atoms: N_10  and  C_11
REMARK    5  A    between atoms: N_10  and  S_24
REMARK    6  A    between atoms: C_11  and  C_12
REMARK    7  A    between atoms: N_14  and  C_15
REMARK    8  A    between atoms: C_15  and  C_16
REMARK    9  A    between atoms: C_16  and  S_17
REMARK   10  A    between atoms: S_17  and  C_18
REMARK   11  A    between atoms: S_24  and  C_27
REMARK                            x       y       z     vdW  Elec       q    Type
REMARK                         _______ _______ _______ _____ _____    ______ ____
ROOT
ATOM      1  N   UNL     1       3.521   5.291  17.391  0.00  0.00    +0.000 N 
ENDROOT
BRANCH   1   8
ATOM      2  C   UNL     1       6.024   4.873  17.584  0.00  0.00    +0.000 A 
ATOM      3  C   UNL     1       7.222   4.519  16.931  0.00  0.00    +0.000 A 
ATOM      4  C   UNL     1       7.251   4.276  15.559  0.00  0.00    +0.000 A 
ATOM      5  C   UNL     1       6.069   4.331  14.836  0.00  0.00    +0.000 A 
ATOM      6 CL   UNL     1       6.102   4.015  13.146  0.00  0.00    +0.000 Cl
ATOM      7  C   UNL     1       4.864   4.648  15.471  0.00  0.00    +0.000 A 
ATOM      8  C   UNL     1       4.829   4.963  16.840  0.00  0.00    +0.000 A 
BRANCH   2  10
ATOM      9  C   UNL     1       7.151   5.667  19.510  0.00  0.00    +0.000 C 
ATOM     10  O   UNL     1       5.973   5.101  18.935  0.00  0.00    +0.000 OA
ENDBRANCH   2  10
ENDBRANCH   1   8
BRANCH   1  11
ATOM     11  S   UNL     1       2.417   3.970  17.558  0.00  0.00    +0.000 S 
ATOM     12  O   UNL     1       1.103   4.472  17.230  0.00  0.00    +0.000 OA
ATOM     13  O   UNL     1       2.947   2.828  16.835  0.00  0.00    +0.000 OA
BRANCH  11  14
ATOM     14  C   UNL     1       2.365   3.514  19.297  0.00  0.00    +0.000 A 
ATOM     15  C   UNL     1       1.175   3.666  20.023  0.00  0.00    +0.000 A 
ATOM     16  C   UNL     1       1.094   3.201  21.341  0.00  0.00    +0.000 A 
ATOM     17  C   UNL     1       2.191   2.576  21.935  0.00  0.00    +0.000 A 
ATOM     18  C   UNL     1       3.352   2.367  21.189  0.00  0.00    +0.000 A 
ATOM     19  C   UNL     1       3.434   2.816  19.868  0.00  0.00    +0.000 A 
ENDBRANCH  11  14
ENDBRANCH   1  11
BRANCH   1  20
ATOM     20  C   UNL     1       3.398   6.323  18.448  0.00  0.00    +0.000 C 
BRANCH  20  21
ATOM     21  C   UNL     1       2.568   7.587  18.295  0.00  0.00    +0.000 C 
ATOM     22  O   UNL     1       2.642   8.222  17.237  0.00  0.00    +0.000 OA
ATOM     23  N   UNL     1       1.830   8.072  19.359  0.00  0.00    +0.000 N 
ATOM     24  H   UNL     1       1.973   7.660  20.274  0.00  0.00    +0.000 HD
BRANCH  23  25
ATOM     25  C   UNL     1       1.231   9.413  19.257  0.00  0.00    +0.000 C 
BRANCH  25  26
ATOM     26  C   UNL     1       0.796  10.022  20.592  0.00  0.00    +0.000 C 
BRANCH  26  27
ATOM     27  S   UNL     1      -0.017  11.639  20.282  0.00  0.00    +0.000 S 
BRANCH  27  28
ATOM     28  C   UNL     1       1.395  12.707  20.057  0.00  0.00    +0.000 A 
ATOM     29  C   UNL     1       1.840  12.966  18.763  0.00  0.00    +0.000 A 
ATOM     30  C   UNL     1       2.941  13.802  18.586  0.00  0.00    +0.000 A 
ATOM     31  C   UNL     1       3.561  14.353  19.699  0.00  0.00    +0.000 A 
ATOM     32  C   UNL     1       3.051  14.042  20.948  0.00  0.00    +0.000 A 
ATOM     33  N   UNL     1       1.987  13.232  21.151  0.00  0.00    +0.000 NA
ENDBRANCH  27  28
ENDBRANCH  26  27
ENDBRANCH  25  26
ENDBRANCH  23  25
ENDBRANCH  20  21
ENDBRANCH   1  20
TORSDOF 10
ENDMDL
MODEL 6
REMARK VINA RESULT:      -6.9      2.408      2.974
REMARK  Name = 
REMARK  11 active torsions:
REMARK  status: ('A' for Active; 'I' for Inactive)
REMARK    1  A    between atoms: C_1  and  O_2
REMARK    2  A    between atoms: O_2  and  C_3
REMARK    3  A    between atoms: C_9  and  N_10
REMARK    4  A    between atoms: N_10  and  C_11
REMARK    5  A    between atoms: N_10  and  S_24
REMARK    6  A    between atoms: C_11  and  C_12
REMARK    7  A    between atoms: N_14  and  C_15
REMARK    8  A    between atoms: C_15  and  C_16
REMARK    9  A    between atoms: C_16  and  S_17
REMARK   10  A    between atoms: S_17  and  C_18
REMARK   11  A    between atoms: S_24  and  C_27
REMARK                            x       y       z     vdW  Elec       q    Type
REMARK                         _______ _______ _______ _____ _____    ______ ____
ROOT
ATOM      1  N   UNL     1       3.676   5.640  18.002  0.00  0.00    +0.000 N 
ENDROOT
BRANCH   1   8
ATOM      2  C   UNL     1       5.856   6.171  16.801  0.00  0.00    +0.000 A 
ATOM      3  C   UNL     1       7.257   6.303  16.886  0.00  0.00    +0.000 A 
ATOM      4  C   UNL     1       7.934   6.043  18.076  0.00  0.00    +0.000 A 
ATOM      5  C   UNL     1       7.209   5.701  19.208  0.00  0.00    +0.000 A 
ATOM      6 CL   UNL     1       8.044   5.395  20.680  0.00  0.00    +0.000 Cl
ATOM      7  C   UNL     1       5.816   5.596  19.153  0.00  0.00    +0.000 A 
ATOM      8  C   UNL     1       5.125   5.788  17.944  0.00  0.00    +0.000 A 
BRANCH   2  10
ATOM      9  C   UNL     1       5.362   5.500  14.583  0.00  0.00    +0.000 C 
ATOM     10  O   UNL     1       5.171   6.438  15.643  0.00  0.00    +0.000 OA
ENDBRANCH   2  10
ENDBRANCH   1   8
BRANCH   1  11
ATOM     11  S   UNL     1       3.065   4.051  17.696  0.00  0.00    +0.000 S 
ATOM     12  O   UNL     1       1.871   4.203  16.898  0.00  0.00    +0.000 OA
ATOM     13  O   UNL     1       4.152   3.222  17.206  0.00  0.00    +0.000 OA
BRANCH  11  14
ATOM     14  C   UNL     1       2.538   3.352  19.267  0.00  0.00    +0.000 A 
ATOM     15  C   UNL     1       3.496   2.886  20.180  0.00  0.00    +0.000 A 
ATOM     16  C   UNL     1       3.099   2.453  21.451  0.00  0.00    +0.000 A 
ATOM     17  C   UNL     1       1.756   2.493  21.820  0.00  0.00    +0.000 A 
ATOM     18  C   UNL     1       0.813   3.019  20.934  0.00  0.00    +0.000 A 
ATOM     19  C   UNL     1       1.204   3.466  19.669  0.00  0.00    +0.000 A 
ENDBRANCH  11  14
ENDBRANCH   1  11
BRANCH   1  20
ATOM     20  C   UNL     1       2.890   6.412  18.994  0.00  0.00    +0.000 C 
BRANCH  20  21
ATOM     21  C   UNL     1       2.282   7.775  18.705  0.00  0.00    +0.000 C 
ATOM     22  O   UNL     1       2.563   8.338  17.640  0.00  0.00    +0.000 OA
ATOM     23  N   UNL     1       1.519   8.417  19.663  0.00  0.00    +0.000 N 
ATOM     24  H   UNL     1       1.500   8.035  20.601  0.00  0.00    +0.000 HD
BRANCH  23  25
ATOM     25  C   UNL     1       1.145   9.824  19.448  0.00  0.00    +0.000 C 
BRANCH  25  26
ATOM     26  C   UNL     1      -0.359  10.070  19.297  0.00  0.00    +0.000 C 
BRANCH  26  27
ATOM     27  S   UNL     1      -0.629  11.731  18.562  0.00  0.00    +0.000 S 
BRANCH  27  28
ATOM     28  C   UNL     1      -2.280  11.563  17.906  0.00  0.00    +0.000 A 
ATOM     29  C   UNL     1      -3.363  11.849  18.734  0.00  0.00    +0.000 A 
ATOM     30  C   UNL     1      -4.653  11.720  18.222  0.00  0.00    +0.000 A 
ATOM     31  C   UNL     1      -4.823  11.315  16.906  0.00  0.00    +0.000 A 
ATOM     32  C   UNL     1      -3.691  11.052  16.154  0.00  0.00    +0.000 A 
ATOM     33  N   UNL     1      -2.428  11.165  16.624  0.00  0.00    +0.000 NA
ENDBRANCH  27  28
ENDBRANCH  26  27
ENDBRANCH  25  26
ENDBRANCH  23  25
ENDBRANCH  20  21
ENDBRANCH   1  20
TORSDOF 10
ENDMDL
MODEL 7
REMARK VINA RESULT:      -6.9      1.804      2.471
REMARK  Name = 
REMARK  11 active torsions:
REMARK  status: ('A' for Active; 'I' for Inactive)
REMARK    1  A    between atoms: C_1  and  O_2
REMARK    2  A    between atoms: O_2  and  C_3
REMARK    3  A    between atoms: C_9  and  N_10
REMARK    4  A    between atoms: N_10  and  C_11
REMARK    5  A    between atoms: N_10  and  S_24
REMARK    6  A    between atoms: C_11  and  C_12
REMARK    7  A    between atoms: N_14  and  C_15
REMARK    8  A    between atoms: C_15  and  C_16
REMARK    9  A    between atoms: C_16  and  S_17
REMARK   10  A    between atoms: S_17  and  C_18
REMARK   11  A    between atoms: S_24  and  C_27
REMARK                            x       y       z     vdW  Elec       q    Type
REMARK                         _______ _______ _______ _____ _____    ______ ____
ROOT
ATOM      1  N   UNL     1       3.484   5.182  17.617  0.00  0.00    +0.000 N 
ENDROOT
BRANCH   1   8
ATOM      2  C   UNL     1       6.005   4.833  17.591  0.00  0.00    +0.000 A 
ATOM      3  C   UNL     1       7.151   4.514  16.836  0.00  0.00    +0.000 A 
ATOM      4  C   UNL     1       7.067   4.275  15.465  0.00  0.00    +0.000 A 
ATOM      5  C   UNL     1       5.826   4.299  14.848  0.00  0.00    +0.000 A 
ATOM      6 CL   UNL     1       5.722   3.988  13.159  0.00  0.00    +0.000 Cl
ATOM      7  C   UNL     1       4.672   4.581  15.585  0.00  0.00    +0.000 A 
ATOM      8  C   UNL     1       4.748   4.892  16.954  0.00  0.00    +0.000 A 
BRANCH   2  10
ATOM      9  C   UNL     1       7.256   5.689  19.412  0.00  0.00    +0.000 C 
ATOM     10  O   UNL     1       6.065   5.055  18.943  0.00  0.00    +0.000 OA
ENDBRANCH   2  10
ENDBRANCH   1   8
BRANCH   1  11
ATOM     11  S   UNL     1       2.307   3.915  17.592  0.00  0.00    +0.000 S 
ATOM     12  O   UNL     1       1.027   4.531  17.328  0.00  0.00    +0.000 OA
ATOM     13  O   UNL     1       2.783   2.857  16.720  0.00  0.00    +0.000 OA
BRANCH  11  14
ATOM     14  C   UNL     1       2.205   3.226  19.249  0.00  0.00    +0.000 A 
ATOM     15  C   UNL     1       3.349   2.679  19.850  0.00  0.00    +0.000 A 
ATOM     16  C   UNL     1       3.304   2.251  21.182  0.00  0.00    +0.000 A 
ATOM     17  C   UNL     1       2.129   2.376  21.922  0.00  0.00    +0.000 A 
ATOM     18  C   UNL     1       1.011   2.980  21.343  0.00  0.00    +0.000 A 
ATOM     19  C   UNL     1       1.054   3.422  20.018  0.00  0.00    +0.000 A 
ENDBRANCH  11  14
ENDBRANCH   1  11
BRANCH   1  20
ATOM     20  C   UNL     1       3.464   6.004  18.851  0.00  0.00    +0.000 C 
BRANCH  20  21
ATOM     21  C   UNL     1       2.830   7.383  18.931  0.00  0.00    +0.000 C 
ATOM     22  O   UNL     1       2.253   7.713  19.972  0.00  0.00    +0.000 OA
ATOM     23  N   UNL     1       2.807   8.206  17.819  0.00  0.00    +0.000 N 
ATOM     24  H   UNL     1       3.081   7.818  16.924  0.00  0.00    +0.000 HD
BRANCH  23  25
ATOM     25  C   UNL     1       1.986   9.427  17.856  0.00  0.00    +0.000 C 
BRANCH  25  26
ATOM     26  C   UNL     1       0.489   9.185  18.070  0.00  0.00    +0.000 C 
BRANCH  26  27
ATOM     27  S   UNL     1      -0.305  10.749  18.609  0.00  0.00    +0.000 S 
BRANCH  27  28
ATOM     28  C   UNL     1      -0.450  10.484  20.369  0.00  0.00    +0.000 A 
ATOM     29  C   UNL     1      -0.788  11.561  21.183  0.00  0.00    +0.000 A 
ATOM     30  C   UNL     1      -0.904  11.355  22.557  0.00  0.00    +0.000 A 
ATOM     31  C   UNL     1      -0.683  10.086  23.074  0.00  0.00    +0.000 A 
ATOM     32  C   UNL     1      -0.351   9.072  22.191  0.00  0.00    +0.000 A 
ATOM     33  N   UNL     1      -0.228   9.244  20.855  0.00  0.00    +0.000 NA
ENDBRANCH  27  28
ENDBRANCH  26  27
ENDBRANCH  25  26
ENDBRANCH  23  25
ENDBRANCH  20  21
ENDBRANCH   1  20
TORSDOF 10
ENDMDL
MODEL 8
REMARK VINA RESULT:      -6.8      2.456      3.273
REMARK  Name = 
REMARK  11 active torsions:
REMARK  status: ('A' for Active; 'I' for Inactive)
REMARK    1  A    between atoms: C_1  and  O_2
REMARK    2  A    between atoms: O_2  and  C_3
REMARK    3  A    between atoms: C_9  and  N_10
REMARK    4  A    between atoms: N_10  and  C_11
REMARK    5  A    between atoms: N_10  and  S_24
REMARK    6  A    between atoms: C_11  and  C_12
REMARK    7  A    between atoms: N_14  and  C_15
REMARK    8  A    between atoms: C_15  and  C_16
REMARK    9  A    between atoms: C_16  and  S_17
REMARK   10  A    between atoms: S_17  and  C_18
REMARK   11  A    between atoms: S_24  and  C_27
REMARK                            x       y       z     vdW  Elec       q    Type
REMARK                         _______ _______ _______ _____ _____    ______ ____
ROOT
ATOM      1  N   UNL     1       3.773   4.584  17.341  0.00  0.00    +0.000 N 
ENDROOT
BRANCH   1   8
ATOM      2  C   UNL     1       6.258   5.130  17.323  0.00  0.00    +0.000 A 
ATOM      3  C   UNL     1       7.457   5.182  16.582  0.00  0.00    +0.000 A 
ATOM      4  C   UNL     1       7.484   4.843  15.231  0.00  0.00    +0.000 A 
ATOM      5  C   UNL     1       6.322   4.396  14.621  0.00  0.00    +0.000 A 
ATOM      6 CL   UNL     1       6.360   3.962  12.957  0.00  0.00    +0.000 Cl
ATOM      7  C   UNL     1       5.130   4.305  15.346  0.00  0.00    +0.000 A 
ATOM      8  C   UNL     1       5.070   4.709  16.691  0.00  0.00    +0.000 A 
BRANCH   2  10
ATOM      9  C   UNL     1       7.477   5.712  19.269  0.00  0.00    +0.000 C 
ATOM     10  O   UNL     1       6.215   5.445  18.656  0.00  0.00    +0.000 OA
ENDBRANCH   2  10
ENDBRANCH   1   8
BRANCH   1  11
ATOM     11  S   UNL     1       3.189   2.971  17.563  0.00  0.00    +0.000 S 
ATOM     12  O   UNL     1       2.098   2.784  16.636  0.00  0.00    +0.000 OA
ATOM     13  O   UNL     1       4.319   2.060  17.529  0.00  0.00    +0.000 OA
BRANCH  11  14
ATOM     14  C   UNL     1       2.478   2.865  19.211  0.00  0.00    +0.000 A 
ATOM     15  C   UNL     1       3.307   2.611  20.314  0.00  0.00    +0.000 A 
ATOM     16  C   UNL     1       2.778   2.646  21.610  0.00  0.00    +0.000 A 
ATOM     17  C   UNL     1       1.432   2.945  21.813  0.00  0.00    +0.000 A 
ATOM     18  C   UNL     1       0.624   3.262  20.719  0.00  0.00    +0.000 A 
ATOM     19  C   UNL     1       1.149   3.242  19.423  0.00  0.00    +0.000 A 
ENDBRANCH  11  14
ENDBRANCH   1  11
BRANCH   1  20
ATOM     20  C   UNL     1       3.393   5.521  18.426  0.00  0.00    +0.000 C 
BRANCH  20  21
ATOM     21  C   UNL     1       3.040   6.980  18.187  0.00  0.00    +0.000 C 
ATOM     22  O   UNL     1       3.712   7.630  17.379  0.00  0.00    +0.000 OA
ATOM     23  N   UNL     1       2.057   7.594  18.943  0.00  0.00    +0.000 N 
ATOM     24  H   UNL     1       1.689   7.102  19.748  0.00  0.00    +0.000 HD
BRANCH  23  25
ATOM     25  C   UNL     1       1.902   9.055  18.856  0.00  0.00    +0.000 C 
BRANCH  25  26
ATOM     26  C   UNL     1       0.822   9.639  19.770  0.00  0.00    +0.000 C 
BRANCH  26  27
ATOM     27  S   UNL     1       0.350  11.305  19.161  0.00  0.00    +0.000 S 
BRANCH  27  28
ATOM     28  C   UNL     1      -1.250  10.977  18.440  0.00  0.00    +0.000 A 
ATOM     29  C   UNL     1      -2.346  11.717  18.875  0.00  0.00    +0.000 A 
ATOM     30  C   UNL     1      -3.595  11.464  18.311  0.00  0.00    +0.000 A 
ATOM     31  C   UNL     1      -3.712  10.487  17.333  0.00  0.00    +0.000 A 
ATOM     32  C   UNL     1      -2.570   9.800  16.959  0.00  0.00    +0.000 A 
ATOM     33  N   UNL     1      -1.347  10.021  17.491  0.00  0.00    +0.000 NA
ENDBRANCH  27  28
ENDBRANCH  26  27
ENDBRANCH  25  26
ENDBRANCH  23  25
ENDBRANCH  20  21
ENDBRANCH   1  20
TORSDOF 10
ENDMDL
MODEL 9
REMARK VINA RESULT:      -6.8      1.603      2.298
REMARK  Name = 
REMARK  11 active torsions:
REMARK  status: ('A' for Active; 'I' for Inactive)
REMARK    1  A    between atoms: C_1  and  O_2
REMARK    2  A    between atoms: O_2  and  C_3
REMARK    3  A    between atoms: C_9  and  N_10
REMARK    4  A    between atoms: N_10  and  C_11
REMARK    5  A    between atoms: N_10  and  S_24
REMARK    6  A    between atoms: C_11  and  C_12
REMARK    7  A    between atoms: N_14  and  C_15
REMARK    8  A    between atoms: C_15  and  C_16
REMARK    9  A    between atoms: C_16  and  S_17
REMARK   10  A    between atoms: S_17  and  C_18
REMARK   11  A    between atoms: S_24  and  C_27
REMARK                            x       y       z     vdW  Elec       q    Type
REMARK                         _______ _______ _______ _____ _____    ______ ____
ROOT
ATOM      1  N   UNL     1       3.488   5.599  17.736  0.00  0.00    +0.000 N 
ENDROOT
BRANCH   1   8
ATOM      2  C   UNL     1       5.650   5.293  16.429  0.00  0.00    +0.000 A 
ATOM      3  C   UNL     1       7.055   5.190  16.466  0.00  0.00    +0.000 A 
ATOM      4  C   UNL     1       7.748   5.224  17.675  0.00  0.00    +0.000 A 
ATOM      5  C   UNL     1       7.045   5.417  18.854  0.00  0.00    +0.000 A 
ATOM      6 CL   UNL     1       7.903   5.475  20.344  0.00  0.00    +0.000 Cl
ATOM      7  C   UNL     1       5.654   5.555  18.836  0.00  0.00    +0.000 A 
ATOM      8  C   UNL     1       4.934   5.454  17.633  0.00  0.00    +0.000 A 
BRANCH   2  10
ATOM      9  C   UNL     1       5.418   4.350  14.268  0.00  0.00    +0.000 C 
ATOM     10  O   UNL     1       4.952   5.278  15.249  0.00  0.00    +0.000 OA
ENDBRANCH   2  10
ENDBRANCH   1   8
BRANCH   1  11
ATOM     11  S   UNL     1       2.574   4.131  17.690  0.00  0.00    +0.000 S 
ATOM     12  O   UNL     1       1.248   4.471  17.231  0.00  0.00    +0.000 OA
ATOM     13  O   UNL     1       3.343   3.129  16.973  0.00  0.00    +0.000 OA
BRANCH  11  14
ATOM     14  C   UNL     1       2.391   3.544  19.379  0.00  0.00    +0.000 A 
ATOM     15  C   UNL     1       1.127   3.553  19.988  0.00  0.00    +0.000 A 
ATOM     16  C   UNL     1       0.956   2.987  21.257  0.00  0.00    +0.000 A 
ATOM     17  C   UNL     1       2.036   2.402  21.917  0.00  0.00    +0.000 A 
ATOM     18  C   UNL     1       3.278   2.335  21.282  0.00  0.00    +0.000 A 
ATOM     19  C   UNL     1       3.451   2.886  20.009  0.00  0.00    +0.000 A 
ENDBRANCH  11  14
ENDBRANCH   1  11
BRANCH   1  20
ATOM     20  C   UNL     1       2.907   6.648  18.609  0.00  0.00    +0.000 C 
BRANCH  20  21
ATOM     21  C   UNL     1       2.412   7.989  18.092  0.00  0.00    +0.000 C 
ATOM     22  O   UNL     1       2.816   8.389  16.994  0.00  0.00    +0.000 OA
ATOM     23  N   UNL     1       1.613   8.792  18.886  0.00  0.00    +0.000 N 
ATOM     24  H   UNL     1       1.492   8.541  19.860  0.00  0.00    +0.000 HD
BRANCH  23  25
ATOM     25  C   UNL     1       1.348  10.175  18.458  0.00  0.00    +0.000 C 
BRANCH  25  26
ATOM     26  C   UNL     1      -0.079  10.663  18.721  0.00  0.00    +0.000 C 
BRANCH  26  27
ATOM     27  S   UNL     1      -0.152  11.456  20.375  0.00  0.00    +0.000 S 
BRANCH  27  28
ATOM     28  C   UNL     1       0.989  12.813  20.167  0.00  0.00    +0.000 A 
ATOM     29  C   UNL     1       0.763  13.728  19.142  0.00  0.00    +0.000 A 
ATOM     30  C   UNL     1       1.652  14.789  18.979  0.00  0.00    +0.000 A 
ATOM     31  C   UNL     1       2.732  14.907  19.842  0.00  0.00    +0.000 A 
ATOM     32  C   UNL     1       2.881  13.953  20.834  0.00  0.00    +0.000 A 
ATOM     33  N   UNL     1       2.037  12.911  21.012  0.00  0.00    +0.000 NA
ENDBRANCH  27  28
ENDBRANCH  26  27
ENDBRANCH  25  26
ENDBRANCH  23  25
ENDBRANCH  20  21
ENDBRANCH   1  20
TORSDOF 10
ENDMDL
