MODEL 1
REMARK VINA RESULT:      -7.9      0.000      0.000
REMARK  Name = 
REMARK  2 active torsions:
REMARK  status: ('A' for Active; 'I' for Inactive)
REMARK    1  A    between atoms: C_1  and  C_2
REMARK    2  A    between atoms: C_5  and  C_6
REMARK                            x       y       z     vdW  Elec       q    Type
REMARK                         _______ _______ _______ _____ _____    ______ ____
ROOT
ATOM      1  C   UNL     1       4.888   4.271  16.684  0.00  0.00    +0.000 A 
ATOM      2  C   UNL     1       4.805   3.700  15.473  0.00  0.00    +0.000 A 
ATOM      3  C   UNL     1       5.761   4.082  14.456  0.00  0.00    +0.000 A 
ATOM      4  C   UNL     1       5.702   3.517  13.177  0.00  0.00    +0.000 A 
ATOM      5  C   UNL     1       6.629   3.891  12.205  0.00  0.00    +0.000 A 
ATOM      6  C   UNL     1       7.619   4.825  12.505  0.00  0.00    +0.000 A 
ATOM      7  C   UNL     1       7.682   5.390  13.780  0.00  0.00    +0.000 A 
ATOM      8  C   UNL     1       6.750   5.020  14.755  0.00  0.00    +0.000 A 
ATOM      9  C   UNL     1       6.809   5.629  16.106  0.00  0.00    +0.000 A 
ATOM     10  O   UNL     1       7.675   6.454  16.392  0.00  0.00    +0.000 OA
ATOM     11  O   UNL     1       5.858   5.241  17.006  0.00  0.00    +0.000 OA
ENDROOT
BRANCH   1  16
ATOM     12  C   UNL     1       1.181   2.975  20.934  0.00  0.00    +0.000 C 
ATOM     13  C   UNL     1       2.135   3.317  19.828  0.00  0.00    +0.000 A 
ATOM     14  C   UNL     1       1.670   3.818  18.611  0.00  0.00    +0.000 A 
ATOM     15  C   UNL     1       2.566   4.117  17.586  0.00  0.00    +0.000 A 
ATOM     16  C   UNL     1       3.946   3.930  17.759  0.00  0.00    +0.000 A 
ATOM     17  C   UNL     1       4.409   3.421  18.978  0.00  0.00    +0.000 A 
ATOM     18  C   UNL     1       3.511   3.124  20.006  0.00  0.00    +0.000 A 
ENDBRANCH   1  16
TORSDOF 1
ENDMDL
MODEL 2
REMARK VINA RESULT:      -7.9      0.041      1.137
REMARK  Name = 
REMARK  2 active torsions:
REMARK  status: ('A' for Active; 'I' for Inactive)
REMARK    1  A    between atoms: C_1  and  C_2
REMARK    2  A    between atoms: C_5  and  C_6
REMARK                            x       y       z     vdW  Elec       q    Type
REMARK                         _______ _______ _______ _____ _____    ______ ____
ROOT
ATOM      1  C   UNL     1       4.884   4.295  16.706  0.00  0.00    +0.000 A 
ATOM      2  C   UNL     1       4.794   3.714  15.502  0.00  0.00    +0.000 A 
ATOM      3  C   UNL     1       5.748   4.082  14.477  0.00  0.00    +0.000 A 
ATOM      4  C   UNL     1       5.681   3.505  13.203  0.00  0.00    +0.000 A 
ATOM      5  C   UNL     1       6.606   3.865  12.224  0.00  0.00    +0.000 A 
ATOM      6  C   UNL     1       7.602   4.798  12.511  0.00  0.00    +0.000 A 
ATOM      7  C   UNL     1       7.672   5.375  13.781  0.00  0.00    +0.000 A 
ATOM      8  C   UNL     1       6.742   5.018  14.763  0.00  0.00    +0.000 A 
ATOM      9  C   UNL     1       6.809   5.640  16.108  0.00  0.00    +0.000 A 
ATOM     10  O   UNL     1       7.681   6.464  16.383  0.00  0.00    +0.000 OA
ATOM     11  O   UNL     1       5.861   5.264  17.015  0.00  0.00    +0.000 OA
ENDROOT
BRANCH   1  16
ATOM     12  C   UNL     1       1.185   2.968  20.953  0.00  0.00    +0.000 C 
ATOM     13  C   UNL     1       2.150   3.306  19.855  0.00  0.00    +0.000 A 
ATOM     14  C   UNL     1       3.518   3.077  20.010  0.00  0.00    +0.000 A 
ATOM     15  C   UNL     1       4.407   3.410  18.990  0.00  0.00    +0.000 A 
ATOM     16  C   UNL     1       3.946   3.970  17.788  0.00  0.00    +0.000 A 
ATOM     17  C   UNL     1       2.574   4.205  17.638  0.00  0.00    +0.000 A 
ATOM     18  C   UNL     1       1.683   3.869  18.661  0.00  0.00    +0.000 A 
ENDBRANCH   1  16
TORSDOF 1
ENDMDL
MODEL 3
REMARK VINA RESULT:      -7.7      1.591      6.700
REMARK  Name = 
REMARK  2 active torsions:
REMARK  status: ('A' for Active; 'I' for Inactive)
REMARK    1  A    between atoms: C_1  and  C_2
REMARK    2  A    between atoms: C_5  and  C_6
REMARK                            x       y       z     vdW  Elec       q    Type
REMARK                         _______ _______ _______ _____ _____    ______ ____
ROOT
ATOM      1  C   UNL     1       4.688   3.839  17.785  0.00  0.00    +0.000 A 
ATOM      2  C   UNL     1       3.438   4.293  17.949  0.00  0.00    +0.000 A 
ATOM      3  C   UNL     1       2.698   3.887  19.125  0.00  0.00    +0.000 A 
ATOM      4  C   UNL     1       1.386   4.331  19.328  0.00  0.00    +0.000 A 
ATOM      5  C   UNL     1       0.683   3.936  20.465  0.00  0.00    +0.000 A 
ATOM      6  C   UNL     1       1.285   3.100  21.405  0.00  0.00    +0.000 A 
ATOM      7  C   UNL     1       2.594   2.656  21.207  0.00  0.00    +0.000 A 
ATOM      8  C   UNL     1       3.299   3.047  20.063  0.00  0.00    +0.000 A 
ATOM      9  C   UNL     1       4.685   2.566  19.846  0.00  0.00    +0.000 A 
ATOM     10  O   UNL     1       5.236   1.830  20.664  0.00  0.00    +0.000 OA
ATOM     11  O   UNL     1       5.311   2.968  18.702  0.00  0.00    +0.000 OA
ENDROOT
BRANCH   1  16
ATOM     12  C   UNL     1       7.871   5.254  13.165  0.00  0.00    +0.000 C 
ATOM     13  C   UNL     1       7.041   4.880  14.357  0.00  0.00    +0.000 A 
ATOM     14  C   UNL     1       5.788   4.288  14.199  0.00  0.00    +0.000 A 
ATOM     15  C   UNL     1       5.020   3.961  15.314  0.00  0.00    +0.000 A 
ATOM     16  C   UNL     1       5.492   4.209  16.612  0.00  0.00    +0.000 A 
ATOM     17  C   UNL     1       6.747   4.810  16.767  0.00  0.00    +0.000 A 
ATOM     18  C   UNL     1       7.518   5.136  15.649  0.00  0.00    +0.000 A 
ENDBRANCH   1  16
TORSDOF 1
ENDMDL
MODEL 4
REMARK VINA RESULT:      -7.7      1.588      6.772
REMARK  Name = 
REMARK  2 active torsions:
REMARK  status: ('A' for Active; 'I' for Inactive)
REMARK    1  A    between atoms: C_1  and  C_2
REMARK    2  A    between atoms: C_5  and  C_6
REMARK                            x       y       z     vdW  Elec       q    Type
REMARK                         _______ _______ _______ _____ _____    ______ ____
ROOT
ATOM      1  C   UNL     1       4.688   3.823  17.774  0.00  0.00    +0.000 A 
ATOM      2  C   UNL     1       3.438   4.280  17.933  0.00  0.00    +0.000 A 
ATOM      3  C   UNL     1       2.699   3.890  19.114  0.00  0.00    +0.000 A 
ATOM      4  C   UNL     1       1.387   4.337  19.312  0.00  0.00    +0.000 A 
ATOM      5  C   UNL     1       0.684   3.957  20.455  0.00  0.00    +0.000 A 
ATOM      6  C   UNL     1       1.286   3.133  21.405  0.00  0.00    +0.000 A 
ATOM      7  C   UNL     1       2.594   2.686  21.212  0.00  0.00    +0.000 A 
ATOM      8  C   UNL     1       3.300   3.063  20.064  0.00  0.00    +0.000 A 
ATOM      9  C   UNL     1       4.685   2.577  19.853  0.00  0.00    +0.000 A 
ATOM     10  O   UNL     1       5.236   1.852  20.679  0.00  0.00    +0.000 OA
ATOM     11  O   UNL     1       5.311   2.964  18.703  0.00  0.00    +0.000 OA
ENDROOT
BRANCH   1  16
ATOM     12  C   UNL     1       7.834   5.263  13.136  0.00  0.00    +0.000 C 
ATOM     13  C   UNL     1       7.023   4.896  14.344  0.00  0.00    +0.000 A 
ATOM     14  C   UNL     1       7.479   5.194  15.629  0.00  0.00    +0.000 A 
ATOM     15  C   UNL     1       6.724   4.834  16.743  0.00  0.00    +0.000 A 
ATOM     16  C   UNL     1       5.492   4.178  16.597  0.00  0.00    +0.000 A 
ATOM     17  C   UNL     1       5.040   3.875  15.307  0.00  0.00    +0.000 A 
ATOM     18  C   UNL     1       5.797   4.238  14.190  0.00  0.00    +0.000 A 
ENDBRANCH   1  16
TORSDOF 1
ENDMDL
MODEL 5
REMARK VINA RESULT:      -7.5      4.208      5.317
REMARK  Name = 
REMARK  2 active torsions:
REMARK  status: ('A' for Active; 'I' for Inactive)
REMARK    1  A    between atoms: C_1  and  C_2
REMARK    2  A    between atoms: C_5  and  C_6
REMARK                            x       y       z     vdW  Elec       q    Type
REMARK                         _______ _______ _______ _____ _____    ______ ____
ROOT
ATOM      1  C   UNL     1       2.602   6.945  18.763  0.00  0.00    +0.000 A 
ATOM      2  C   UNL     1       3.480   7.270  17.803  0.00  0.00    +0.000 A 
ATOM      3  C   UNL     1       4.170   6.209  17.102  0.00  0.00    +0.000 A 
ATOM      4  C   UNL     1       5.103   6.507  16.101  0.00  0.00    +0.000 A 
ATOM      5  C   UNL     1       5.761   5.476  15.430  0.00  0.00    +0.000 A 
ATOM      6  C   UNL     1       5.491   4.147  15.752  0.00  0.00    +0.000 A 
ATOM      7  C   UNL     1       4.561   3.846  16.749  0.00  0.00    +0.000 A 
ATOM      8  C   UNL     1       3.903   4.878  17.427  0.00  0.00    +0.000 A 
ATOM      9  C   UNL     1       2.924   4.559  18.494  0.00  0.00    +0.000 A 
ATOM     10  O   UNL     1       2.670   3.393  18.792  0.00  0.00    +0.000 OA
ATOM     11  O   UNL     1       2.332   5.611  19.130  0.00  0.00    +0.000 OA
ENDROOT
BRANCH   1  16
ATOM     12  C   UNL     1      -0.318  10.973  21.716  0.00  0.00    +0.000 C 
ATOM     13  C   UNL     1       0.436   9.922  20.957  0.00  0.00    +0.000 A 
ATOM     14  C   UNL     1       0.838   8.740  21.580  0.00  0.00    +0.000 A 
ATOM     15  C   UNL     1       1.552   7.778  20.868  0.00  0.00    +0.000 A 
ATOM     16  C   UNL     1       1.871   7.973  19.515  0.00  0.00    +0.000 A 
ATOM     17  C   UNL     1       1.473   9.163  18.895  0.00  0.00    +0.000 A 
ATOM     18  C   UNL     1       0.755  10.126  19.608  0.00  0.00    +0.000 A 
ENDBRANCH   1  16
TORSDOF 1
ENDMDL
MODEL 6
REMARK VINA RESULT:      -7.5      4.177      5.192
REMARK  Name = 
REMARK  2 active torsions:
REMARK  status: ('A' for Active; 'I' for Inactive)
REMARK    1  A    between atoms: C_1  and  C_2
REMARK    2  A    between atoms: C_5  and  C_6
REMARK                            x       y       z     vdW  Elec       q    Type
REMARK                         _______ _______ _______ _____ _____    ______ ____
ROOT
ATOM      1  C   UNL     1       2.636   6.906  18.742  0.00  0.00    +0.000 A 
ATOM      2  C   UNL     1       3.509   7.239  17.781  0.00  0.00    +0.000 A 
ATOM      3  C   UNL     1       4.205   6.184  17.076  0.00  0.00    +0.000 A 
ATOM      4  C   UNL     1       5.132   6.490  16.073  0.00  0.00    +0.000 A 
ATOM      5  C   UNL     1       5.796   5.466  15.398  0.00  0.00    +0.000 A 
ATOM      6  C   UNL     1       5.537   4.135  15.719  0.00  0.00    +0.000 A 
ATOM      7  C   UNL     1       4.612   3.825  16.718  0.00  0.00    +0.000 A 
ATOM      8  C   UNL     1       3.949   4.851  17.399  0.00  0.00    +0.000 A 
ATOM      9  C   UNL     1       2.976   4.523  18.469  0.00  0.00    +0.000 A 
ATOM     10  O   UNL     1       2.731   3.354  18.767  0.00  0.00    +0.000 OA
ATOM     11  O   UNL     1       2.378   5.570  19.109  0.00  0.00    +0.000 OA
ENDROOT
BRANCH   1  16
ATOM     12  C   UNL     1      -0.225  10.953  21.728  0.00  0.00    +0.000 C 
ATOM     13  C   UNL     1       0.520   9.911  20.948  0.00  0.00    +0.000 A 
ATOM     14  C   UNL     1       0.817  10.104  19.598  0.00  0.00    +0.000 A 
ATOM     15  C   UNL     1       1.495   9.121  18.880  0.00  0.00    +0.000 A 
ATOM     16  C   UNL     1       1.900   7.928  19.498  0.00  0.00    +0.000 A 
ATOM     17  C   UNL     1       1.595   7.734  20.850  0.00  0.00    +0.000 A 
ATOM     18  C   UNL     1       0.917   8.720  21.571  0.00  0.00    +0.000 A 
ENDBRANCH   1  16
TORSDOF 1
ENDMDL
MODEL 7
REMARK VINA RESULT:      -7.3      1.768      6.755
REMARK  Name = 
REMARK  2 active torsions:
REMARK  status: ('A' for Active; 'I' for Inactive)
REMARK    1  A    between atoms: C_1  and  C_2
REMARK    2  A    between atoms: C_5  and  C_6
REMARK                            x       y       z     vdW  Elec       q    Type
REMARK                         _______ _______ _______ _____ _____    ______ ____
ROOT
ATOM      1  C   UNL     1       4.473   3.958  17.089  0.00  0.00    +0.000 A 
ATOM      2  C   UNL     1       3.797   4.895  17.769  0.00  0.00    +0.000 A 
ATOM      3  C   UNL     1       2.919   4.480  18.841  0.00  0.00    +0.000 A 
ATOM      4  C   UNL     1       2.187   5.426  19.568  0.00  0.00    +0.000 A 
ATOM      5  C   UNL     1       1.345   5.016  20.601  0.00  0.00    +0.000 A 
ATOM      6  C   UNL     1       1.230   3.662  20.914  0.00  0.00    +0.000 A 
ATOM      7  C   UNL     1       1.958   2.715  20.192  0.00  0.00    +0.000 A 
ATOM      8  C   UNL     1       2.801   3.124  19.152  0.00  0.00    +0.000 A 
ATOM      9  C   UNL     1       3.565   2.117  18.377  0.00  0.00    +0.000 A 
ATOM     10  O   UNL     1       3.480   0.918  18.638  0.00  0.00    +0.000 OA
ATOM     11  O   UNL     1       4.353   2.580  17.363  0.00  0.00    +0.000 OA
ENDROOT
BRANCH   1  16
ATOM     12  C   UNL     1       8.065   5.312  12.759  0.00  0.00    +0.000 C 
ATOM     13  C   UNL     1       7.131   4.953  13.877  0.00  0.00    +0.000 A 
ATOM     14  C   UNL     1       6.058   4.086  13.663  0.00  0.00    +0.000 A 
ATOM     15  C   UNL     1       5.189   3.773  14.705  0.00  0.00    +0.000 A 
ATOM     16  C   UNL     1       5.379   4.311  15.988  0.00  0.00    +0.000 A 
ATOM     17  C   UNL     1       6.451   5.186  16.198  0.00  0.00    +0.000 A 
ATOM     18  C   UNL     1       7.324   5.498  15.153  0.00  0.00    +0.000 A 
ENDBRANCH   1  16
TORSDOF 1
ENDMDL
MODEL 8
REMARK VINA RESULT:      -7.2      1.776      6.808
REMARK  Name = 
REMARK  2 active torsions:
REMARK  status: ('A' for Active; 'I' for Inactive)
REMARK    1  A    between atoms: C_1  and  C_2
REMARK    2  A    between atoms: C_5  and  C_6
REMARK                            x       y       z     vdW  Elec       q    Type
REMARK                         _______ _______ _______ _____ _____    ______ ____
ROOT
ATOM      1  C   UNL     1       4.501   3.988  17.080  0.00  0.00    +0.000 A 
ATOM      2  C   UNL     1       3.861   4.945  17.767  0.00  0.00    +0.000 A 
ATOM      3  C   UNL     1       2.971   4.556  18.840  0.00  0.00    +0.000 A 
ATOM      4  C   UNL     1       2.276   5.524  19.574  0.00  0.00    +0.000 A 
ATOM      5  C   UNL     1       1.422   5.138  20.607  0.00  0.00    +0.000 A 
ATOM      6  C   UNL     1       1.260   3.788  20.912  0.00  0.00    +0.000 A 
ATOM      7  C   UNL     1       1.952   2.819  20.183  0.00  0.00    +0.000 A 
ATOM      8  C   UNL     1       2.806   3.204  19.143  0.00  0.00    +0.000 A 
ATOM      9  C   UNL     1       3.531   2.174  18.360  0.00  0.00    +0.000 A 
ATOM     10  O   UNL     1       3.404   0.978  18.615  0.00  0.00    +0.000 OA
ATOM     11  O   UNL     1       4.333   2.614  17.347  0.00  0.00    +0.000 OA
ENDROOT
BRANCH   1  16
ATOM     12  C   UNL     1       8.078   5.315  12.729  0.00  0.00    +0.000 C 
ATOM     13  C   UNL     1       7.153   4.980  13.862  0.00  0.00    +0.000 A 
ATOM     14  C   UNL     1       7.343   5.534  15.129  0.00  0.00    +0.000 A 
ATOM     15  C   UNL     1       6.487   5.201  16.176  0.00  0.00    +0.000 A 
ATOM     16  C   UNL     1       5.416   4.316  15.978  0.00  0.00    +0.000 A 
ATOM     17  C   UNL     1       5.232   3.756  14.708  0.00  0.00    +0.000 A 
ATOM     18  C   UNL     1       6.089   4.092  13.657  0.00  0.00    +0.000 A 
ENDBRANCH   1  16
TORSDOF 1
ENDMDL
MODEL 9
REMARK VINA RESULT:      -7.2      3.714      4.590
REMARK  Name = 
REMARK  2 active torsions:
REMARK  status: ('A' for Active; 'I' for Inactive)
REMARK    1  A    between atoms: C_1  and  C_2
REMARK    2  A    between atoms: C_5  and  C_6
REMARK                            x       y       z     vdW  Elec       q    Type
REMARK                         _______ _______ _______ _____ _____    ______ ____
ROOT
ATOM      1  C   UNL     1       3.418   6.775  18.327  0.00  0.00    +0.000 A 
ATOM      2  C   UNL     1       3.869   6.916  17.073  0.00  0.00    +0.000 A 
ATOM      3  C   UNL     1       4.833   5.963  16.567  0.00  0.00    +0.000 A 
ATOM      4  C   UNL     1       5.336   6.082  15.266  0.00  0.00    +0.000 A 
ATOM      5  C   UNL     1       6.264   5.158  14.788  0.00  0.00    +0.000 A 
ATOM      6  C   UNL     1       6.691   4.110  15.602  0.00  0.00    +0.000 A 
ATOM      7  C   UNL     1       6.191   3.987  16.900  0.00  0.00    +0.000 A 
ATOM      8  C   UNL     1       5.264   4.917  17.384  0.00  0.00    +0.000 A 
ATOM      9  C   UNL     1       4.743   4.794  18.766  0.00  0.00    +0.000 A 
ATOM     10  O   UNL     1       5.105   3.876  19.501  0.00  0.00    +0.000 OA
ATOM     11  O   UNL     1       3.856   5.744  19.184  0.00  0.00    +0.000 OA
ENDROOT
BRANCH   1  16
ATOM     12  C   UNL     1      -0.462  10.426  20.582  0.00  0.00    +0.000 C 
ATOM     13  C   UNL     1       0.541   9.473  20.004  0.00  0.00    +0.000 A 
ATOM     14  C   UNL     1       1.059   8.427  20.770  0.00  0.00    +0.000 A 
ATOM     15  C   UNL     1       2.002   7.558  20.227  0.00  0.00    +0.000 A 
ATOM     16  C   UNL     1       2.442   7.709  18.903  0.00  0.00    +0.000 A 
ATOM     17  C   UNL     1       1.926   8.763  18.139  0.00  0.00    +0.000 A 
ATOM     18  C   UNL     1       0.978   9.633  18.683  0.00  0.00    +0.000 A 
ENDBRANCH   1  16
TORSDOF 1
ENDMDL
