MODEL 1
REMARK VINA RESULT:      -6.4      0.000      0.000
REMARK  Name = 
REMARK  4 active torsions:
REMARK  status: ('A' for Active; 'I' for Inactive)
REMARK    1  A    between atoms: C_1  and  N_2
REMARK    2  A    between atoms: N_2  and  C_3
REMARK    3  A    between atoms: N_2  and  C_4
REMARK    4  A    between atoms: C_7  and  C_8
REMARK                            x       y       z     vdW  Elec       q    Type
REMARK                         _______ _______ _______ _____ _____    ______ ____
ROOT
ATOM      1  C   UNL     1       3.795   5.522  18.207  0.00  0.00    +0.000 A 
ATOM      2  C   UNL     1       3.960   4.212  17.735  0.00  0.00    +0.000 A 
ATOM      3  C   UNL     1       4.647   3.923  16.545  0.00  0.00    +0.000 A 
ATOM      4  C   UNL     1       5.204   4.933  15.750  0.00  0.00    +0.000 A 
ATOM      5  C   UNL     1       5.068   6.242  16.227  0.00  0.00    +0.000 A 
ATOM      6  C   UNL     1       4.389   6.524  17.426  0.00  0.00    +0.000 A 
ENDROOT
BRANCH   4   7
ATOM      7  C   UNL     1       5.883   4.621  14.472  0.00  0.00    +0.000 A 
ATOM      8  C   UNL     1       5.316   3.729  13.543  0.00  0.00    +0.000 A 
ATOM      9  C   UNL     1       5.949   3.418  12.336  0.00  0.00    +0.000 A 
ATOM     10  C   UNL     1       7.169   4.009  12.020  0.00  0.00    +0.000 A 
ATOM     11  C   UNL     1       7.750   4.905  12.913  0.00  0.00    +0.000 A 
ATOM     12  C   UNL     1       7.119   5.202  14.125  0.00  0.00    +0.000 A 
ENDBRANCH   4   7
BRANCH   1  14
ATOM     13  C   UNL     1       2.777   4.738  20.323  0.00  0.00    +0.000 C 
ATOM     14  N   UNL     1       3.106   5.805  19.383  0.00  0.00    +0.000 N 
ATOM     15  C   UNL     1       2.397   7.070  19.534  0.00  0.00    +0.000 C 
ENDBRANCH   1  14
TORSDOF 2
ENDMDL
MODEL 2
REMARK VINA RESULT:      -6.3      0.136      1.248
REMARK  Name = 
REMARK  4 active torsions:
REMARK  status: ('A' for Active; 'I' for Inactive)
REMARK    1  A    between atoms: C_1  and  N_2
REMARK    2  A    between atoms: N_2  and  C_3
REMARK    3  A    between atoms: N_2  and  C_4
REMARK    4  A    between atoms: C_7  and  C_8
REMARK                            x       y       z     vdW  Elec       q    Type
REMARK                         _______ _______ _______ _____ _____    ______ ____
ROOT
ATOM      1  C   UNL     1       3.839   5.395  18.187  0.00  0.00    +0.000 A 
ATOM      2  C   UNL     1       3.891   4.113  17.624  0.00  0.00    +0.000 A 
ATOM      3  C   UNL     1       4.564   3.846  16.421  0.00  0.00    +0.000 A 
ATOM      4  C   UNL     1       5.220   4.855  15.703  0.00  0.00    +0.000 A 
ATOM      5  C   UNL     1       5.196   6.134  16.271  0.00  0.00    +0.000 A 
ATOM      6  C   UNL     1       4.530   6.392  17.483  0.00  0.00    +0.000 A 
ENDROOT
BRANCH   4   7
ATOM      7  C   UNL     1       5.883   4.574  14.410  0.00  0.00    +0.000 A 
ATOM      8  C   UNL     1       7.103   5.186  14.067  0.00  0.00    +0.000 A 
ATOM      9  C   UNL     1       7.736   4.936  12.846  0.00  0.00    +0.000 A 
ATOM     10  C   UNL     1       7.166   4.051  11.936  0.00  0.00    +0.000 A 
ATOM     11  C   UNL     1       5.966   3.420  12.251  0.00  0.00    +0.000 A 
ATOM     12  C   UNL     1       5.329   3.684  13.467  0.00  0.00    +0.000 A 
ENDBRANCH   4   7
BRANCH   1  14
ATOM     13  C   UNL     1       2.856   4.574  20.306  0.00  0.00    +0.000 C 
ATOM     14  N   UNL     1       3.164   5.656  19.376  0.00  0.00    +0.000 N 
ATOM     15  C   UNL     1       2.447   6.914  19.554  0.00  0.00    +0.000 C 
ENDBRANCH   1  14
TORSDOF 2
ENDMDL
MODEL 3
REMARK VINA RESULT:      -6.3      0.126      1.232
REMARK  Name = 
REMARK  4 active torsions:
REMARK  status: ('A' for Active; 'I' for Inactive)
REMARK    1  A    between atoms: C_1  and  N_2
REMARK    2  A    between atoms: N_2  and  C_3
REMARK    3  A    between atoms: N_2  and  C_4
REMARK    4  A    between atoms: C_7  and  C_8
REMARK                            x       y       z     vdW  Elec       q    Type
REMARK                         _______ _______ _______ _____ _____    ______ ____
ROOT
ATOM      1  C   UNL     1       3.827   5.438  18.160  0.00  0.00    +0.000 A 
ATOM      2  C   UNL     1       4.427   6.448  17.394  0.00  0.00    +0.000 A 
ATOM      3  C   UNL     1       5.074   6.183  16.175  0.00  0.00    +0.000 A 
ATOM      4  C   UNL     1       5.167   4.886  15.655  0.00  0.00    +0.000 A 
ATOM      5  C   UNL     1       4.547   3.875  16.400  0.00  0.00    +0.000 A 
ATOM      6  C   UNL     1       3.891   4.148  17.612  0.00  0.00    +0.000 A 
ENDROOT
BRANCH   4   7
ATOM      7  C   UNL     1       5.894   4.611  14.396  0.00  0.00    +0.000 A 
ATOM      8  C   UNL     1       5.389   3.706  13.443  0.00  0.00    +0.000 A 
ATOM      9  C   UNL     1       6.070   3.430  12.254  0.00  0.00    +0.000 A 
ATOM     10  C   UNL     1       7.276   4.068  11.980  0.00  0.00    +0.000 A 
ATOM     11  C   UNL     1       7.796   4.978  12.897  0.00  0.00    +0.000 A 
ATOM     12  C   UNL     1       7.119   5.240  14.091  0.00  0.00    +0.000 A 
ENDBRANCH   4   7
BRANCH   1  14
ATOM     13  C   UNL     1       2.933   4.628  20.321  0.00  0.00    +0.000 C 
ATOM     14  N   UNL     1       3.194   5.704  19.370  0.00  0.00    +0.000 N 
ATOM     15  C   UNL     1       2.470   6.955  19.562  0.00  0.00    +0.000 C 
ENDBRANCH   1  14
TORSDOF 2
ENDMDL
MODEL 4
REMARK VINA RESULT:      -6.2      0.284      1.766
REMARK  Name = 
REMARK  4 active torsions:
REMARK  status: ('A' for Active; 'I' for Inactive)
REMARK    1  A    between atoms: C_1  and  N_2
REMARK    2  A    between atoms: N_2  and  C_3
REMARK    3  A    between atoms: N_2  and  C_4
REMARK    4  A    between atoms: C_7  and  C_8
REMARK                            x       y       z     vdW  Elec       q    Type
REMARK                         _______ _______ _______ _____ _____    ______ ____
ROOT
ATOM      1  C   UNL     1       3.874   5.202  18.215  0.00  0.00    +0.000 A 
ATOM      2  C   UNL     1       4.378   6.257  17.442  0.00  0.00    +0.000 A 
ATOM      3  C   UNL     1       5.027   6.047  16.214  0.00  0.00    +0.000 A 
ATOM      4  C   UNL     1       5.217   4.762  15.690  0.00  0.00    +0.000 A 
ATOM      5  C   UNL     1       4.693   3.703  16.442  0.00  0.00    +0.000 A 
ATOM      6  C   UNL     1       4.034   3.922  17.665  0.00  0.00    +0.000 A 
ENDROOT
BRANCH   4   7
ATOM      7  C   UNL     1       5.947   4.548  14.420  0.00  0.00    +0.000 A 
ATOM      8  C   UNL     1       7.171   5.193  14.164  0.00  0.00    +0.000 A 
ATOM      9  C   UNL     1       7.866   5.007  12.966  0.00  0.00    +0.000 A 
ATOM     10  C   UNL     1       7.357   4.153  11.992  0.00  0.00    +0.000 A 
ATOM     11  C   UNL     1       6.154   3.491  12.221  0.00  0.00    +0.000 A 
ATOM     12  C   UNL     1       5.455   3.691  13.415  0.00  0.00    +0.000 A 
ENDBRANCH   4   7
BRANCH   1  14
ATOM     13  C   UNL     1       2.927   4.291  20.313  0.00  0.00    +0.000 C 
ATOM     14  N   UNL     1       3.239   5.414  19.435  0.00  0.00    +0.000 N 
ATOM     15  C   UNL     1       2.560   6.678  19.700  0.00  0.00    +0.000 C 
ENDBRANCH   1  14
TORSDOF 2
ENDMDL
MODEL 5
REMARK VINA RESULT:      -6.1      2.782      5.138
REMARK  Name = 
REMARK  4 active torsions:
REMARK  status: ('A' for Active; 'I' for Inactive)
REMARK    1  A    between atoms: C_1  and  N_2
REMARK    2  A    between atoms: N_2  and  C_3
REMARK    3  A    between atoms: N_2  and  C_4
REMARK    4  A    between atoms: C_7  and  C_8
REMARK                            x       y       z     vdW  Elec       q    Type
REMARK                         _______ _______ _______ _____ _____    ______ ____
ROOT
ATOM      1  C   UNL     1       1.091   9.276  19.904  0.00  0.00    +0.000 A 
ATOM      2  C   UNL     1       1.406   9.421  18.545  0.00  0.00    +0.000 A 
ATOM      3  C   UNL     1       2.145   8.459  17.837  0.00  0.00    +0.000 A 
ATOM      4  C   UNL     1       2.621   7.294  18.452  0.00  0.00    +0.000 A 
ATOM      5  C   UNL     1       2.288   7.127  19.802  0.00  0.00    +0.000 A 
ATOM      6  C   UNL     1       1.538   8.088  20.502  0.00  0.00    +0.000 A 
ENDROOT
BRANCH   4   7
ATOM      7  C   UNL     1       3.441   6.310  17.710  0.00  0.00    +0.000 A 
ATOM      8  C   UNL     1       4.542   6.716  16.932  0.00  0.00    +0.000 A 
ATOM      9  C   UNL     1       5.319   5.800  16.219  0.00  0.00    +0.000 A 
ATOM     10  C   UNL     1       5.020   4.442  16.277  0.00  0.00    +0.000 A 
ATOM     11  C   UNL     1       3.945   4.007  17.047  0.00  0.00    +0.000 A 
ATOM     12  C   UNL     1       3.161   4.929  17.747  0.00  0.00    +0.000 A 
ENDBRANCH   4   7
BRANCH   1  14
ATOM     13  C   UNL     1       0.339  11.621  20.147  0.00  0.00    +0.000 C 
ATOM     14  N   UNL     1       0.366  10.236  20.604  0.00  0.00    +0.000 N 
ATOM     15  C   UNL     1      -0.074   9.973  21.969  0.00  0.00    +0.000 C 
ENDBRANCH   1  14
TORSDOF 2
ENDMDL
MODEL 6
REMARK VINA RESULT:      -6.1      2.376      4.366
REMARK  Name = 
REMARK  4 active torsions:
REMARK  status: ('A' for Active; 'I' for Inactive)
REMARK    1  A    between atoms: C_1  and  N_2
REMARK    2  A    between atoms: N_2  and  C_3
REMARK    3  A    between atoms: N_2  and  C_4
REMARK    4  A    between atoms: C_7  and  C_8
REMARK                            x       y       z     vdW  Elec       q    Type
REMARK                         _______ _______ _______ _____ _____    ______ ____
ROOT
ATOM      1  C   UNL     1       1.420   8.715  19.845  0.00  0.00    +0.000 A 
ATOM      2  C   UNL     1       1.758   9.017  18.519  0.00  0.00    +0.000 A 
ATOM      3  C   UNL     1       2.528   8.152  17.723  0.00  0.00    +0.000 A 
ATOM      4  C   UNL     1       3.015   6.934  18.215  0.00  0.00    +0.000 A 
ATOM      5  C   UNL     1       2.660   6.611  19.530  0.00  0.00    +0.000 A 
ATOM      6  C   UNL     1       1.878   7.476  20.317  0.00  0.00    +0.000 A 
ENDROOT
BRANCH   4   7
ATOM      7  C   UNL     1       3.868   6.054  17.385  0.00  0.00    +0.000 A 
ATOM      8  C   UNL     1       3.747   4.653  17.444  0.00  0.00    +0.000 A 
ATOM      9  C   UNL     1       4.551   3.809  16.673  0.00  0.00    +0.000 A 
ATOM     10  C   UNL     1       5.495   4.351  15.807  0.00  0.00    +0.000 A 
ATOM     11  C   UNL     1       5.631   5.734  15.716  0.00  0.00    +0.000 A 
ATOM     12  C   UNL     1       4.833   6.573  16.500  0.00  0.00    +0.000 A 
ENDBRANCH   4   7
BRANCH   1  14
ATOM     13  C   UNL     1      -0.264   9.052  21.628  0.00  0.00    +0.000 C 
ATOM     14  N   UNL     1       0.664   9.578  20.632  0.00  0.00    +0.000 N 
ATOM     15  C   UNL     1       0.509  10.977  20.249  0.00  0.00    +0.000 C 
ENDBRANCH   1  14
TORSDOF 2
ENDMDL
MODEL 7
REMARK VINA RESULT:      -6.1      2.822      5.088
REMARK  Name = 
REMARK  4 active torsions:
REMARK  status: ('A' for Active; 'I' for Inactive)
REMARK    1  A    between atoms: C_1  and  N_2
REMARK    2  A    between atoms: N_2  and  C_3
REMARK    3  A    between atoms: N_2  and  C_4
REMARK    4  A    between atoms: C_7  and  C_8
REMARK                            x       y       z     vdW  Elec       q    Type
REMARK                         _______ _______ _______ _____ _____    ______ ____
ROOT
ATOM      1  C   UNL     1       1.001   9.333  19.790  0.00  0.00    +0.000 A 
ATOM      2  C   UNL     1       1.482   8.178  20.421  0.00  0.00    +0.000 A 
ATOM      3  C   UNL     1       2.282   7.234  19.755  0.00  0.00    +0.000 A 
ATOM      4  C   UNL     1       2.641   7.389  18.410  0.00  0.00    +0.000 A 
ATOM      5  C   UNL     1       2.188   8.554  17.779  0.00  0.00    +0.000 A 
ATOM      6  C   UNL     1       1.398   9.500  18.455  0.00  0.00    +0.000 A 
ENDROOT
BRANCH   4   7
ATOM      7  C   UNL     1       3.442   6.364  17.704  0.00  0.00    +0.000 A 
ATOM      8  C   UNL     1       4.569   6.718  16.939  0.00  0.00    +0.000 A 
ATOM      9  C   UNL     1       5.329   5.762  16.260  0.00  0.00    +0.000 A 
ATOM     10  C   UNL     1       4.985   4.416  16.340  0.00  0.00    +0.000 A 
ATOM     11  C   UNL     1       3.883   4.033  17.098  0.00  0.00    +0.000 A 
ATOM     12  C   UNL     1       3.117   4.994  17.764  0.00  0.00    +0.000 A 
ENDBRANCH   4   7
BRANCH   1  14
ATOM     13  C   UNL     1      -0.336  11.416  19.740  0.00  0.00    +0.000 C 
ATOM     14  N   UNL     1       0.202  10.261  20.452  0.00  0.00    +0.000 N 
ATOM     15  C   UNL     1       0.179  10.305  21.909  0.00  0.00    +0.000 C 
ENDBRANCH   1  14
TORSDOF 2
ENDMDL
MODEL 8
REMARK VINA RESULT:      -6.1      2.821      5.058
REMARK  Name = 
REMARK  4 active torsions:
REMARK  status: ('A' for Active; 'I' for Inactive)
REMARK    1  A    between atoms: C_1  and  N_2
REMARK    2  A    between atoms: N_2  and  C_3
REMARK    3  A    between atoms: N_2  and  C_4
REMARK    4  A    between atoms: C_7  and  C_8
REMARK                            x       y       z     vdW  Elec       q    Type
REMARK                         _______ _______ _______ _____ _____    ______ ____
ROOT
ATOM      1  C   UNL     1       1.083   9.356  19.844  0.00  0.00    +0.000 A 
ATOM      2  C   UNL     1       1.416   9.483  18.489  0.00  0.00    +0.000 A 
ATOM      3  C   UNL     1       2.152   8.505  17.800  0.00  0.00    +0.000 A 
ATOM      4  C   UNL     1       2.607   7.341  18.433  0.00  0.00    +0.000 A 
ATOM      5  C   UNL     1       2.257   7.193  19.781  0.00  0.00    +0.000 A 
ATOM      6  C   UNL     1       1.509   8.171  20.461  0.00  0.00    +0.000 A 
ENDROOT
BRANCH   4   7
ATOM      7  C   UNL     1       3.425   6.341  17.712  0.00  0.00    +0.000 A 
ATOM      8  C   UNL     1       3.115   4.969  17.764  0.00  0.00    +0.000 A 
ATOM      9  C   UNL     1       3.883   4.012  17.096  0.00  0.00    +0.000 A 
ATOM     10  C   UNL     1       4.982   4.409  16.340  0.00  0.00    +0.000 A 
ATOM     11  C   UNL     1       5.308   5.760  16.258  0.00  0.00    +0.000 A 
ATOM     12  C   UNL     1       4.545   6.712  16.940  0.00  0.00    +0.000 A 
ENDBRANCH   4   7
BRANCH   1  14
ATOM     13  C   UNL     1       0.430  11.729  20.109  0.00  0.00    +0.000 C 
ATOM     14  N   UNL     1       0.361  10.332  20.525  0.00  0.00    +0.000 N 
ATOM     15  C   UNL     1      -0.180  10.055  21.851  0.00  0.00    +0.000 C 
ENDBRANCH   1  14
TORSDOF 2
ENDMDL
MODEL 9
REMARK VINA RESULT:      -6.1      2.331      4.302
REMARK  Name = 
REMARK  4 active torsions:
REMARK  status: ('A' for Active; 'I' for Inactive)
REMARK    1  A    between atoms: C_1  and  N_2
REMARK    2  A    between atoms: N_2  and  C_3
REMARK    3  A    between atoms: N_2  and  C_4
REMARK    4  A    between atoms: C_7  and  C_8
REMARK                            x       y       z     vdW  Elec       q    Type
REMARK                         _______ _______ _______ _____ _____    ______ ____
ROOT
ATOM      1  C   UNL     1       1.436   8.604  19.890  0.00  0.00    +0.000 A 
ATOM      2  C   UNL     1       1.932   7.373  20.342  0.00  0.00    +0.000 A 
ATOM      3  C   UNL     1       2.739   6.547  19.543  0.00  0.00    +0.000 A 
ATOM      4  C   UNL     1       3.091   6.903  18.234  0.00  0.00    +0.000 A 
ATOM      5  C   UNL     1       2.623   8.142  17.783  0.00  0.00    +0.000 A 
ATOM      6  C   UNL     1       1.825   8.970  18.593  0.00  0.00    +0.000 A 
ENDROOT
BRANCH   4   7
ATOM      7  C   UNL     1       3.901   6.003  17.382  0.00  0.00    +0.000 A 
ATOM      8  C   UNL     1       4.792   6.513  16.421  0.00  0.00    +0.000 A 
ATOM      9  C   UNL     1       5.555   5.675  15.604  0.00  0.00    +0.000 A 
ATOM     10  C   UNL     1       5.455   4.294  15.739  0.00  0.00    +0.000 A 
ATOM     11  C   UNL     1       4.591   3.758  16.689  0.00  0.00    +0.000 A 
ATOM     12  C   UNL     1       3.819   4.600  17.495  0.00  0.00    +0.000 A 
ENDBRANCH   4   7
BRANCH   1  14
ATOM     13  C   UNL     1      -0.292   8.825  21.648  0.00  0.00    +0.000 C 
ATOM     14  N   UNL     1       0.630   9.415  20.683  0.00  0.00    +0.000 N 
ATOM     15  C   UNL     1       0.423  10.815  20.330  0.00  0.00    +0.000 C 
ENDBRANCH   1  14
TORSDOF 2
ENDMDL
