MODEL 1
REMARK VINA RESULT:      -7.6      0.000      0.000
REMARK  Name = 
REMARK  5 active torsions:
REMARK  status: ('A' for Active; 'I' for Inactive)
REMARK    1  A    between atoms: C_1  and  C_2
REMARK    2  A    between atoms: C_2  and  C_3
REMARK    3  A    between atoms: C_4  and  C_5
REMARK    4  A    between atoms: C_5  and  N_6
REMARK    5  A    between atoms: N_17  and  C_18
REMARK                            x       y       z     vdW  Elec       q    Type
REMARK                         _______ _______ _______ _____ _____    ______ ____
ROOT
ATOM      1  N   UNL     1       5.272   3.933  17.318  0.00  0.00    +0.000 N 
ATOM      2  C   UNL     1       5.677   4.129  18.633  0.00  0.00    +0.000 C 
ATOM      3  O   UNL     1       6.725   4.677  18.962  0.00  0.00    +0.000 OA
ATOM      4  C   UNL     1       4.631   3.733  19.661  0.00  0.00    +0.000 C 
ATOM      5  C   UNL     1       4.000   2.364  19.386  0.00  0.00    +0.000 C 
ATOM      6  C   UNL     1       3.806   2.080  17.903  0.00  0.00    +0.000 C 
ATOM      7  C   UNL     1       3.950   3.352  17.070  0.00  0.00    +0.000 C 
ATOM      8  C   UNL     1       2.797   4.339  17.361  0.00  0.00    +0.000 C 
ATOM      9  N   UNL     1       3.025   5.311  18.438  0.00  0.00    +0.000 N 
ATOM     10  C   UNL     1       2.180   6.427  18.403  0.00  0.00    +0.000 C 
ATOM     11  O   UNL     1       1.234   6.504  17.616  0.00  0.00    +0.000 OA
ATOM     12  N   UNL     1       2.548   7.444  19.261  0.00  0.00    +0.000 N 
ATOM     13  C   UNL     1       3.593   4.861  19.718  0.00  0.00    +0.000 C 
ATOM     14  H   UNL     1       3.554   7.578  19.293  0.00  0.00    +0.000 HD
ENDROOT
BRANCH  12  15
ATOM     15  C   UNL     1       1.795   8.640  19.333  0.00  0.00    +0.000 A 
ATOM     16  C   UNL     1       1.821   9.588  18.306  0.00  0.00    +0.000 A 
ATOM     17  C   UNL     1       1.102  10.778  18.441  0.00  0.00    +0.000 A 
ATOM     18  C   UNL     1       0.378  11.018  19.607  0.00  0.00    +0.000 A 
ATOM     19  F   UNL     1      -0.280  12.177  19.745  0.00  0.00    +0.000 F 
ATOM     20  C   UNL     1       0.329  10.079  20.628  0.00  0.00    +0.000 A 
ATOM     21  C   UNL     1       1.021   8.884  20.473  0.00  0.00    +0.000 A 
ATOM     22  F   UNL     1       0.994   7.979  21.463  0.00  0.00    +0.000 F 
ENDBRANCH  12  15
BRANCH   1  23
ATOM     23  C   UNL     1       5.940   4.656  16.247  0.00  0.00    +0.000 C 
BRANCH  23  27
ATOM     24  C   UNL     1       5.908   3.378  12.556  0.00  0.00    +0.000 C 
ATOM     25  C   UNL     1       6.299   4.178  13.769  0.00  0.00    +0.000 C 
ATOM     26  C   UNL     1       7.504   5.065  13.643  0.00  0.00    +0.000 C 
ATOM     27  C   UNL     1       5.599   4.050  14.918  0.00  0.00    +0.000 C 
ENDBRANCH  23  27
ENDBRANCH   1  23
TORSDOF 3
ENDMDL
MODEL 2
REMARK VINA RESULT:      -7.5      0.896      1.305
REMARK  Name = 
REMARK  5 active torsions:
REMARK  status: ('A' for Active; 'I' for Inactive)
REMARK    1  A    between atoms: C_1  and  C_2
REMARK    2  A    between atoms: C_2  and  C_3
REMARK    3  A    between atoms: C_4  and  C_5
REMARK    4  A    between atoms: C_5  and  N_6
REMARK    5  A    between atoms: N_17  and  C_18
REMARK                            x       y       z     vdW  Elec       q    Type
REMARK                         _______ _______ _______ _____ _____    ______ ____
ROOT
ATOM      1  N   UNL     1       5.187   3.903  17.332  0.00  0.00    +0.000 N 
ATOM      2  C   UNL     1       5.617   4.058  18.645  0.00  0.00    +0.000 C 
ATOM      3  O   UNL     1       6.665   4.609  18.972  0.00  0.00    +0.000 OA
ATOM      4  C   UNL     1       4.598   3.612  19.679  0.00  0.00    +0.000 C 
ATOM      5  C   UNL     1       3.979   2.245  19.369  0.00  0.00    +0.000 C 
ATOM      6  C   UNL     1       3.758   2.011  17.881  0.00  0.00    +0.000 C 
ATOM      7  C   UNL     1       3.867   3.314  17.091  0.00  0.00    +0.000 C 
ATOM      8  C   UNL     1       2.708   4.274  17.442  0.00  0.00    +0.000 C 
ATOM      9  N   UNL     1       2.946   5.210  18.548  0.00  0.00    +0.000 N 
ATOM     10  C   UNL     1       2.087   6.315  18.570  0.00  0.00    +0.000 C 
ATOM     11  O   UNL     1       1.123   6.407  17.806  0.00  0.00    +0.000 OA
ATOM     12  N   UNL     1       2.459   7.306  19.455  0.00  0.00    +0.000 N 
ATOM     13  C   UNL     1       3.547   4.723  19.799  0.00  0.00    +0.000 C 
ATOM     14  H   UNL     1       3.464   7.453  19.471  0.00  0.00    +0.000 HD
ENDROOT
BRANCH  12  15
ATOM     15  C   UNL     1       1.692   8.488  19.586  0.00  0.00    +0.000 A 
ATOM     16  C   UNL     1       0.921   8.742  20.724  0.00  0.00    +0.000 A 
ATOM     17  C   UNL     1       0.139   9.898  20.791  0.00  0.00    +0.000 A 
ATOM     18  C   UNL     1       0.121  10.780  19.714  0.00  0.00    +0.000 A 
ATOM     19  F   UNL     1      -0.659  11.868  19.769  0.00  0.00    +0.000 F 
ATOM     20  C   UNL     1       0.894  10.551  18.583  0.00  0.00    +0.000 A 
ATOM     21  C   UNL     1       1.693   9.415  18.538  0.00  0.00    +0.000 A 
ATOM     22  F   UNL     1       2.429   9.176  17.442  0.00  0.00    +0.000 F 
ENDBRANCH  12  15
BRANCH   1  23
ATOM     23  C   UNL     1       5.822   4.673  16.275  0.00  0.00    +0.000 C 
BRANCH  23  27
ATOM     24  C   UNL     1       5.858   3.403  12.581  0.00  0.00    +0.000 C 
ATOM     25  C   UNL     1       6.238   4.188  13.807  0.00  0.00    +0.000 C 
ATOM     26  C   UNL     1       7.474   5.037  13.718  0.00  0.00    +0.000 C 
ATOM     27  C   UNL     1       5.502   4.081  14.935  0.00  0.00    +0.000 C 
ENDBRANCH  23  27
ENDBRANCH   1  23
TORSDOF 3
ENDMDL
MODEL 3
REMARK VINA RESULT:      -7.0      3.404      8.267
REMARK  Name = 
REMARK  5 active torsions:
REMARK  status: ('A' for Active; 'I' for Inactive)
REMARK    1  A    between atoms: C_1  and  C_2
REMARK    2  A    between atoms: C_2  and  C_3
REMARK    3  A    between atoms: C_4  and  C_5
REMARK    4  A    between atoms: C_5  and  N_6
REMARK    5  A    between atoms: N_17  and  C_18
REMARK                            x       y       z     vdW  Elec       q    Type
REMARK                         _______ _______ _______ _____ _____    ______ ____
ROOT
ATOM      1  N   UNL     1      -0.253  10.391  18.471  0.00  0.00    +0.000 N 
ATOM      2  C   UNL     1      -0.513   9.988  19.775  0.00  0.00    +0.000 C 
ATOM      3  O   UNL     1      -1.592   9.551  20.165  0.00  0.00    +0.000 OA
ATOM      4  C   UNL     1       0.712   9.993  20.673  0.00  0.00    +0.000 C 
ATOM      5  C   UNL     1       1.543  11.275  20.557  0.00  0.00    +0.000 C 
ATOM      6  C   UNL     1       1.592  11.831  19.140  0.00  0.00    +0.000 C 
ATOM      7  C   UNL     1       1.111  10.800  18.121  0.00  0.00    +0.000 C 
ATOM      8  C   UNL     1       2.090   9.608  18.033  0.00  0.00    +0.000 C 
ATOM      9  N   UNL     1       1.829   8.479  18.935  0.00  0.00    +0.000 N 
ATOM     10  C   UNL     1       2.443   7.278  18.556  0.00  0.00    +0.000 C 
ATOM     11  O   UNL     1       3.248   7.223  17.624  0.00  0.00    +0.000 OA
ATOM     12  N   UNL     1       2.009   6.173  19.260  0.00  0.00    +0.000 N 
ATOM     13  C   UNL     1       1.525   8.732  20.351  0.00  0.00    +0.000 C 
ATOM     14  H   UNL     1       1.009   6.191  19.431  0.00  0.00    +0.000 HD
ENDROOT
BRANCH  12  15
ATOM     15  C   UNL     1       2.533   4.887  18.986  0.00  0.00    +0.000 A 
ATOM     16  C   UNL     1       3.609   4.363  19.708  0.00  0.00    +0.000 A 
ATOM     17  C   UNL     1       4.128   3.111  19.371  0.00  0.00    +0.000 A 
ATOM     18  C   UNL     1       3.578   2.400  18.307  0.00  0.00    +0.000 A 
ATOM     19  F   UNL     1       4.103   1.216  17.966  0.00  0.00    +0.000 F 
ATOM     20  C   UNL     1       2.499   2.900  17.590  0.00  0.00    +0.000 A 
ATOM     21  C   UNL     1       1.969   4.133  17.952  0.00  0.00    +0.000 A 
ATOM     22  F   UNL     1       0.937   4.631  17.253  0.00  0.00    +0.000 F 
ENDBRANCH  12  15
BRANCH   1  23
ATOM     23  C   UNL     1      -1.175  10.020  17.410  0.00  0.00    +0.000 C 
BRANCH  23  27
ATOM     24  C   UNL     1      -4.635  11.735  16.824  0.00  0.00    +0.000 C 
ATOM     25  C   UNL     1      -3.363  10.987  16.530  0.00  0.00    +0.000 C 
ATOM     26  C   UNL     1      -3.229  10.380  15.162  0.00  0.00    +0.000 C 
ATOM     27  C   UNL     1      -2.421  10.851  17.488  0.00  0.00    +0.000 C 
ENDBRANCH  23  27
ENDBRANCH   1  23
TORSDOF 3
ENDMDL
MODEL 4
REMARK VINA RESULT:      -6.9      3.518      8.203
REMARK  Name = 
REMARK  5 active torsions:
REMARK  status: ('A' for Active; 'I' for Inactive)
REMARK    1  A    between atoms: C_1  and  C_2
REMARK    2  A    between atoms: C_2  and  C_3
REMARK    3  A    between atoms: C_4  and  C_5
REMARK    4  A    between atoms: C_5  and  N_6
REMARK    5  A    between atoms: N_17  and  C_18
REMARK                            x       y       z     vdW  Elec       q    Type
REMARK                         _______ _______ _______ _____ _____    ______ ____
ROOT
ATOM      1  N   UNL     1      -0.832  10.670  19.329  0.00  0.00    +0.000 N 
ATOM      2  C   UNL     1      -0.505  10.641  20.679  0.00  0.00    +0.000 C 
ATOM      3  O   UNL     1      -1.275  10.299  21.572  0.00  0.00    +0.000 OA
ATOM      4  C   UNL     1       0.959  10.933  20.961  0.00  0.00    +0.000 C 
ATOM      5  C   UNL     1       1.489  12.155  20.203  0.00  0.00    +0.000 C 
ATOM      6  C   UNL     1       0.904  12.293  18.804  0.00  0.00    +0.000 C 
ATOM      7  C   UNL     1       0.216  11.004  18.360  0.00  0.00    +0.000 C 
ATOM      8  C   UNL     1       1.242   9.865  18.169  0.00  0.00    +0.000 C 
ATOM      9  N   UNL     1       1.514   9.026  19.343  0.00  0.00    +0.000 N 
ATOM     10  C   UNL     1       2.095   7.786  19.050  0.00  0.00    +0.000 C 
ATOM     11  O   UNL     1       2.475   7.497  17.913  0.00  0.00    +0.000 OA
ATOM     12  N   UNL     1       2.130   6.911  20.116  0.00  0.00    +0.000 N 
ATOM     13  C   UNL     1       1.751   9.657  20.650  0.00  0.00    +0.000 C 
ATOM     14  H   UNL     1       1.283   6.947  20.674  0.00  0.00    +0.000 HD
ENDROOT
BRANCH  12  15
ATOM     15  C   UNL     1       2.682   5.615  19.972  0.00  0.00    +0.000 A 
ATOM     16  C   UNL     1       4.004   5.422  19.558  0.00  0.00    +0.000 A 
ATOM     17  C   UNL     1       4.493   4.125  19.381  0.00  0.00    +0.000 A 
ATOM     18  C   UNL     1       3.655   3.035  19.603  0.00  0.00    +0.000 A 
ATOM     19  F   UNL     1       4.120   1.796  19.396  0.00  0.00    +0.000 F 
ATOM     20  C   UNL     1       2.346   3.211  20.030  0.00  0.00    +0.000 A 
ATOM     21  C   UNL     1       1.876   4.503  20.234  0.00  0.00    +0.000 A 
ATOM     22  F   UNL     1       0.606   4.682  20.630  0.00  0.00    +0.000 F 
ENDBRANCH  12  15
BRANCH   1  23
ATOM     23  C   UNL     1      -2.031   9.990  18.867  0.00  0.00    +0.000 C 
BRANCH  23  27
ATOM     24  C   UNL     1      -2.902  10.536  15.099  0.00  0.00    +0.000 C 
ATOM     25  C   UNL     1      -3.073  10.478  16.592  0.00  0.00    +0.000 C 
ATOM     26  C   UNL     1      -4.353  11.027  17.155  0.00  0.00    +0.000 C 
ATOM     27  C   UNL     1      -2.083   9.984  17.369  0.00  0.00    +0.000 C 
ENDBRANCH  23  27
ENDBRANCH   1  23
TORSDOF 3
ENDMDL
MODEL 5
REMARK VINA RESULT:      -6.8      3.293      8.312
REMARK  Name = 
REMARK  5 active torsions:
REMARK  status: ('A' for Active; 'I' for Inactive)
REMARK    1  A    between atoms: C_1  and  C_2
REMARK    2  A    between atoms: C_2  and  C_3
REMARK    3  A    between atoms: C_4  and  C_5
REMARK    4  A    between atoms: C_5  and  N_6
REMARK    5  A    between atoms: N_17  and  C_18
REMARK                            x       y       z     vdW  Elec       q    Type
REMARK                         _______ _______ _______ _____ _____    ______ ____
ROOT
ATOM      1  N   UNL     1      -0.352  10.505  18.506  0.00  0.00    +0.000 N 
ATOM      2  C   UNL     1      -0.575  10.019  19.789  0.00  0.00    +0.000 C 
ATOM      3  O   UNL     1      -1.636   9.535  20.173  0.00  0.00    +0.000 OA
ATOM      4  C   UNL     1       0.668   9.999  20.661  0.00  0.00    +0.000 C 
ATOM      5  C   UNL     1       1.468  11.305  20.605  0.00  0.00    +0.000 C 
ATOM      6  C   UNL     1       1.475  11.945  19.224  0.00  0.00    +0.000 C 
ATOM      7  C   UNL     1       0.995  10.966  18.155  0.00  0.00    +0.000 C 
ATOM      8  C   UNL     1       1.998   9.804  17.976  0.00  0.00    +0.000 C 
ATOM      9  N   UNL     1       1.781   8.617  18.813  0.00  0.00    +0.000 N 
ATOM     10  C   UNL     1       2.413   7.456  18.351  0.00  0.00    +0.000 C 
ATOM     11  O   UNL     1       3.199   7.476  17.402  0.00  0.00    +0.000 OA
ATOM     12  N   UNL     1       2.018   6.302  18.995  0.00  0.00    +0.000 N 
ATOM     13  C   UNL     1       1.501   8.779  20.248  0.00  0.00    +0.000 C 
ATOM     14  H   UNL     1       1.021   6.287  19.187  0.00  0.00    +0.000 HD
ENDROOT
BRANCH  12  15
ATOM     15  C   UNL     1       2.564   5.047  18.634  0.00  0.00    +0.000 A 
ATOM     16  C   UNL     1       1.878   4.160  17.799  0.00  0.00    +0.000 A 
ATOM     17  C   UNL     1       2.431   2.910  17.509  0.00  0.00    +0.000 A 
ATOM     18  C   UNL     1       3.655   2.551  18.068  0.00  0.00    +0.000 A 
ATOM     19  F   UNL     1       4.162   1.338  17.815  0.00  0.00    +0.000 F 
ATOM     20  C   UNL     1       4.357   3.427  18.885  0.00  0.00    +0.000 A 
ATOM     21  C   UNL     1       3.814   4.681  19.144  0.00  0.00    +0.000 A 
ATOM     22  F   UNL     1       4.477   5.527  19.947  0.00  0.00    +0.000 F 
ENDBRANCH  12  15
BRANCH   1  23
ATOM     23  C   UNL     1      -1.288  10.177  17.443  0.00  0.00    +0.000 C 
BRANCH  23  27
ATOM     24  C   UNL     1      -4.790  11.853  17.018  0.00  0.00    +0.000 C 
ATOM     25  C   UNL     1      -3.527  11.115  16.666  0.00  0.00    +0.000 C 
ATOM     26  C   UNL     1      -3.456  10.496  15.299  0.00  0.00    +0.000 C 
ATOM     27  C   UNL     1      -2.536  10.997  17.577  0.00  0.00    +0.000 C 
ENDBRANCH  23  27
ENDBRANCH   1  23
TORSDOF 3
ENDMDL
MODEL 6
REMARK VINA RESULT:      -6.8      2.604      3.452
REMARK  Name = 
REMARK  5 active torsions:
REMARK  status: ('A' for Active; 'I' for Inactive)
REMARK    1  A    between atoms: C_1  and  C_2
REMARK    2  A    between atoms: C_2  and  C_3
REMARK    3  A    between atoms: C_4  and  C_5
REMARK    4  A    between atoms: C_5  and  N_6
REMARK    5  A    between atoms: N_17  and  C_18
REMARK                            x       y       z     vdW  Elec       q    Type
REMARK                         _______ _______ _______ _____ _____    ______ ____
ROOT
ATOM      1  N   UNL     1       6.692   5.815  17.548  0.00  0.00    +0.000 N 
ATOM      2  C   UNL     1       6.050   4.839  18.301  0.00  0.00    +0.000 C 
ATOM      3  O   UNL     1       6.384   4.506  19.435  0.00  0.00    +0.000 OA
ATOM      4  C   UNL     1       4.783   4.303  17.657  0.00  0.00    +0.000 C 
ATOM      5  C   UNL     1       4.959   3.951  16.176  0.00  0.00    +0.000 C 
ATOM      6  C   UNL     1       5.884   4.909  15.438  0.00  0.00    +0.000 C 
ATOM      7  C   UNL     1       6.126   6.182  16.246  0.00  0.00    +0.000 C 
ATOM      8  C   UNL     1       4.831   7.015  16.369  0.00  0.00    +0.000 C 
ATOM      9  N   UNL     1       3.978   6.732  17.531  0.00  0.00    +0.000 N 
ATOM     10  C   UNL     1       3.068   7.748  17.846  0.00  0.00    +0.000 C 
ATOM     11  O   UNL     1       2.906   8.728  17.116  0.00  0.00    +0.000 OA
ATOM     12  N   UNL     1       2.441   7.589  19.065  0.00  0.00    +0.000 N 
ATOM     13  C   UNL     1       3.675   5.338  17.890  0.00  0.00    +0.000 C 
ATOM     14  H   UNL     1       3.070   7.241  19.782  0.00  0.00    +0.000 HD
ENDROOT
BRANCH  12  15
ATOM     15  C   UNL     1       1.498   8.539  19.525  0.00  0.00    +0.000 A 
ATOM     16  C   UNL     1       1.014   9.556  18.695  0.00  0.00    +0.000 A 
ATOM     17  C   UNL     1       0.123  10.503  19.205  0.00  0.00    +0.000 A 
ATOM     18  C   UNL     1      -0.265  10.437  20.541  0.00  0.00    +0.000 A 
ATOM     19  F   UNL     1      -1.092  11.369  21.032  0.00  0.00    +0.000 F 
ATOM     20  C   UNL     1       0.193   9.424  21.373  0.00  0.00    +0.000 A 
ATOM     21  C   UNL     1       1.056   8.467  20.850  0.00  0.00    +0.000 A 
ATOM     22  F   UNL     1       1.517   7.495  21.652  0.00  0.00    +0.000 F 
ENDBRANCH  12  15
BRANCH   1  23
ATOM     23  C   UNL     1       7.623   6.724  18.197  0.00  0.00    +0.000 C 
BRANCH  23  27
ATOM     24  C   UNL     1       7.977  10.505  17.281  0.00  0.00    +0.000 C 
ATOM     25  C   UNL     1       8.124   9.219  18.048  0.00  0.00    +0.000 C 
ATOM     26  C   UNL     1       9.047   9.233  19.233  0.00  0.00    +0.000 C 
ATOM     27  C   UNL     1       7.473   8.108  17.639  0.00  0.00    +0.000 C 
ENDBRANCH  23  27
ENDBRANCH   1  23
TORSDOF 3
ENDMDL
MODEL 7
REMARK VINA RESULT:      -6.8      2.246      3.782
REMARK  Name = 
REMARK  5 active torsions:
REMARK  status: ('A' for Active; 'I' for Inactive)
REMARK    1  A    between atoms: C_1  and  C_2
REMARK    2  A    between atoms: C_2  and  C_3
REMARK    3  A    between atoms: C_4  and  C_5
REMARK    4  A    between atoms: C_5  and  N_6
REMARK    5  A    between atoms: N_17  and  C_18
REMARK                            x       y       z     vdW  Elec       q    Type
REMARK                         _______ _______ _______ _____ _____    ______ ____
ROOT
ATOM      1  N   UNL     1       4.918   4.620  17.063  0.00  0.00    +0.000 N 
ATOM      2  C   UNL     1       5.416   5.604  16.217  0.00  0.00    +0.000 C 
ATOM      3  O   UNL     1       5.269   5.611  14.998  0.00  0.00    +0.000 OA
ATOM      4  C   UNL     1       6.048   6.776  16.948  0.00  0.00    +0.000 C 
ATOM      5  C   UNL     1       7.009   6.349  18.062  0.00  0.00    +0.000 C 
ATOM      6  C   UNL     1       6.548   5.102  18.805  0.00  0.00    +0.000 C 
ATOM      7  C   UNL     1       5.083   4.789  18.510  0.00  0.00    +0.000 C 
ATOM      8  C   UNL     1       4.154   5.875  19.096  0.00  0.00    +0.000 C 
ATOM      9  N   UNL     1       3.835   7.007  18.217  0.00  0.00    +0.000 N 
ATOM     10  C   UNL     1       2.697   7.732  18.593  0.00  0.00    +0.000 C 
ATOM     11  O   UNL     1       2.107   7.517  19.654  0.00  0.00    +0.000 OA
ATOM     12  N   UNL     1       2.263   8.637  17.645  0.00  0.00    +0.000 N 
ATOM     13  C   UNL     1       4.909   7.667  17.460  0.00  0.00    +0.000 C 
ATOM     14  H   UNL     1       2.335   8.272  16.700  0.00  0.00    +0.000 HD
ENDROOT
BRANCH  12  15
ATOM     15  C   UNL     1       1.121   9.440  17.878  0.00  0.00    +0.000 A 
ATOM     16  C   UNL     1      -0.159   9.022  17.503  0.00  0.00    +0.000 A 
ATOM     17  C   UNL     1      -1.253   9.867  17.705  0.00  0.00    +0.000 A 
ATOM     18  C   UNL     1      -1.056  11.128  18.264  0.00  0.00    +0.000 A 
ATOM     19  F   UNL     1      -2.104  11.947  18.422  0.00  0.00    +0.000 F 
ATOM     20  C   UNL     1       0.207  11.551  18.657  0.00  0.00    +0.000 A 
ATOM     21  C   UNL     1       1.285  10.691  18.481  0.00  0.00    +0.000 A 
ATOM     22  F   UNL     1       2.512  11.099  18.840  0.00  0.00    +0.000 F 
ENDBRANCH  12  15
BRANCH   1  23
ATOM     23  C   UNL     1       3.915   3.690  16.569  0.00  0.00    +0.000 C 
BRANCH  23  27
ATOM     24  C   UNL     1       1.696   1.997  19.301  0.00  0.00    +0.000 C 
ATOM     25  C   UNL     1       2.159   3.006  18.285  0.00  0.00    +0.000 C 
ATOM     26  C   UNL     1       1.208   4.116  17.943  0.00  0.00    +0.000 C 
ATOM     27  C   UNL     1       3.368   2.867  17.696  0.00  0.00    +0.000 C 
ENDBRANCH  23  27
ENDBRANCH   1  23
TORSDOF 3
ENDMDL
MODEL 8
REMARK VINA RESULT:      -6.8      5.520      6.187
REMARK  Name = 
REMARK  5 active torsions:
REMARK  status: ('A' for Active; 'I' for Inactive)
REMARK    1  A    between atoms: C_1  and  C_2
REMARK    2  A    between atoms: C_2  and  C_3
REMARK    3  A    between atoms: C_4  and  C_5
REMARK    4  A    between atoms: C_5  and  N_6
REMARK    5  A    between atoms: N_17  and  C_18
REMARK                            x       y       z     vdW  Elec       q    Type
REMARK                         _______ _______ _______ _____ _____    ______ ____
ROOT
ATOM      1  N   UNL     1       6.772   5.079  16.572  0.00  0.00    +0.000 N 
ATOM      2  C   UNL     1       7.453   4.641  17.702  0.00  0.00    +0.000 C 
ATOM      3  O   UNL     1       8.492   3.988  17.677  0.00  0.00    +0.000 OA
ATOM      4  C   UNL     1       6.879   5.169  19.006  0.00  0.00    +0.000 C 
ATOM      5  C   UNL     1       5.354   5.041  19.092  0.00  0.00    +0.000 C 
ATOM      6  C   UNL     1       4.656   5.279  17.759  0.00  0.00    +0.000 C 
ATOM      7  C   UNL     1       5.596   5.935  16.749  0.00  0.00    +0.000 C 
ATOM      8  C   UNL     1       5.961   7.372  17.183  0.00  0.00    +0.000 C 
ATOM      9  N   UNL     1       7.157   7.519  18.023  0.00  0.00    +0.000 N 
ATOM     10  C   UNL     1       7.695   8.811  18.048  0.00  0.00    +0.000 C 
ATOM     11  O   UNL     1       7.121   9.767  17.523  0.00  0.00    +0.000 OA
ATOM     12  N   UNL     1       8.941   8.895  18.636  0.00  0.00    +0.000 N 
ATOM     13  C   UNL     1       7.358   6.617  19.167  0.00  0.00    +0.000 C 
ATOM     14  H   UNL     1       9.537   8.109  18.394  0.00  0.00    +0.000 HD
ENDROOT
BRANCH  12  15
ATOM     15  C   UNL     1       9.617  10.135  18.730  0.00  0.00    +0.000 A 
ATOM     16  C   UNL     1      10.221  10.728  17.618  0.00  0.00    +0.000 A 
ATOM     17  C   UNL     1      10.922  11.928  17.766  0.00  0.00    +0.000 A 
ATOM     18  C   UNL     1      11.026  12.515  19.025  0.00  0.00    +0.000 A 
ATOM     19  F   UNL     1      11.730  13.646  19.166  0.00  0.00    +0.000 F 
ATOM     20  C   UNL     1      10.418  11.946  20.136  0.00  0.00    +0.000 A 
ATOM     21  C   UNL     1       9.696  10.769  19.975  0.00  0.00    +0.000 A 
ATOM     22  F   UNL     1       9.120  10.203  21.046  0.00  0.00    +0.000 F 
ENDBRANCH  12  15
BRANCH   1  23
ATOM     23  C   UNL     1       7.435   5.045  15.279  0.00  0.00    +0.000 C 
BRANCH  23  27
ATOM     24  C   UNL     1       5.990   3.235  12.133  0.00  0.00    +0.000 C 
ATOM     25  C   UNL     1       6.759   4.230  12.960  0.00  0.00    +0.000 C 
ATOM     26  C   UNL     1       7.677   5.164  12.225  0.00  0.00    +0.000 C 
ATOM     27  C   UNL     1       6.638   4.229  14.306  0.00  0.00    +0.000 C 
ENDBRANCH  23  27
ENDBRANCH   1  23
TORSDOF 3
ENDMDL
MODEL 9
REMARK VINA RESULT:      -6.6      2.400      4.300
REMARK  Name = 
REMARK  5 active torsions:
REMARK  status: ('A' for Active; 'I' for Inactive)
REMARK    1  A    between atoms: C_1  and  C_2
REMARK    2  A    between atoms: C_2  and  C_3
REMARK    3  A    between atoms: C_4  and  C_5
REMARK    4  A    between atoms: C_5  and  N_6
REMARK    5  A    between atoms: N_17  and  C_18
REMARK                            x       y       z     vdW  Elec       q    Type
REMARK                         _______ _______ _______ _____ _____    ______ ____
ROOT
ATOM      1  N   UNL     1       4.007   4.131  18.039  0.00  0.00    +0.000 N 
ATOM      2  C   UNL     1       4.353   4.726  16.832  0.00  0.00    +0.000 C 
ATOM      3  O   UNL     1       3.922   4.375  15.737  0.00  0.00    +0.000 OA
ATOM      4  C   UNL     1       5.214   5.967  16.986  0.00  0.00    +0.000 C 
ATOM      5  C   UNL     1       6.382   5.777  17.960  0.00  0.00    +0.000 C 
ATOM      6  C   UNL     1       6.031   4.898  19.153  0.00  0.00    +0.000 C 
ATOM      7  C   UNL     1       4.520   4.714  19.282  0.00  0.00    +0.000 C 
ATOM      8  C   UNL     1       3.829   6.046  19.649  0.00  0.00    +0.000 C 
ATOM      9  N   UNL     1       3.385   6.884  18.527  0.00  0.00    +0.000 N 
ATOM     10  C   UNL     1       2.418   7.840  18.862  0.00  0.00    +0.000 C 
ATOM     11  O   UNL     1       2.084   8.047  20.031  0.00  0.00    +0.000 OA
ATOM     12  N   UNL     1       1.832   8.458  17.776  0.00  0.00    +0.000 N 
ATOM     13  C   UNL     1       4.290   7.122  17.393  0.00  0.00    +0.000 C 
ATOM     14  H   UNL     1       1.654   7.812  17.013  0.00  0.00    +0.000 HD
ENDROOT
BRANCH  12  15
ATOM     15  C   UNL     1       0.832   9.443  17.955  0.00  0.00    +0.000 A 
ATOM     16  C   UNL     1      -0.520   9.167  17.730  0.00  0.00    +0.000 A 
ATOM     17  C   UNL     1      -1.469  10.183  17.870  0.00  0.00    +0.000 A 
ATOM     18  C   UNL     1      -1.058  11.468  18.215  0.00  0.00    +0.000 A 
ATOM     19  F   UNL     1      -1.969  12.445  18.312  0.00  0.00    +0.000 F 
ATOM     20  C   UNL     1       0.278  11.754  18.458  0.00  0.00    +0.000 A 
ATOM     21  C   UNL     1       1.213  10.730  18.348  0.00  0.00    +0.000 A 
ATOM     22  F   UNL     1       2.509  11.002  18.563  0.00  0.00    +0.000 F 
ENDBRANCH  12  15
BRANCH   1  23
ATOM     23  C   UNL     1       2.858   3.242  18.096  0.00  0.00    +0.000 C 
BRANCH  23  27
ATOM     24  C   UNL     1       1.612   2.356  21.691  0.00  0.00    +0.000 C 
ATOM     25  C   UNL     1       1.759   3.102  20.392  0.00  0.00    +0.000 C 
ATOM     26  C   UNL     1       0.817   4.247  20.152  0.00  0.00    +0.000 C 
ATOM     27  C   UNL     1       2.681   2.708  19.486  0.00  0.00    +0.000 C 
ENDBRANCH  23  27
ENDBRANCH   1  23
TORSDOF 3
ENDMDL
