MODEL 1
REMARK VINA RESULT:      -7.6      0.000      0.000
REMARK  Name = 
REMARK  10 active torsions:
REMARK  status: ('A' for Active; 'I' for Inactive)
REMARK    1  A    between atoms: C_1  and  C_2
REMARK    2  A    between atoms: C_2  and  C_3
REMARK    3  A    between atoms: C_2  and  C_4
REMARK    4  A    between atoms: C_2  and  N_12
REMARK    5  A    between atoms: C_4  and  C_5
REMARK    6  A    between atoms: C_5  and  C_6
REMARK    7  A    between atoms: N_12  and  C_13
REMARK    8  A    between atoms: C_13  and  C_14
REMARK    9  A    between atoms: C_14  and  O_15
REMARK   10  A    between atoms: C_14  and  C_16
REMARK                            x       y       z     vdW  Elec       q    Type
REMARK                         _______ _______ _______ _____ _____    ______ ____
ROOT
ATOM      1  C   UNL     1       3.908   2.559  17.485  0.00  0.00    +0.000 C 
ENDROOT
BRANCH   1   2
ATOM      2  C   UNL     1       4.503   3.944  17.316  0.00  0.00    +0.000 A 
ATOM      3  C   UNL     1       4.383   4.744  16.171  0.00  0.00    +0.000 A 
ATOM      4  C   UNL     1       5.129   5.926  16.047  0.00  0.00    +0.000 A 
ATOM      5  C   UNL     1       6.035   6.293  17.048  0.00  0.00    +0.000 A 
ATOM      6  C   UNL     1       6.150   5.513  18.196  0.00  0.00    +0.000 A 
ATOM      7  C   UNL     1       5.352   4.378  18.344  0.00  0.00    +0.000 A 
ATOM      8  C   UNL     1       7.099   5.879  19.293  0.00  0.00    +0.000 C 
ATOM      9  C   UNL     1       8.216   6.798  18.841  0.00  0.00    +0.000 C 
ATOM     10  C   UNL     1       7.831   7.777  17.759  0.00  0.00    +0.000 C 
ATOM     11  O   UNL     1       8.469   8.812  17.573  0.00  0.00    +0.000 OA
ATOM     12  N   UNL     1       6.825   7.427  16.902  0.00  0.00    +0.000 N 
ATOM     13  H   UNL     1       6.688   8.050  16.117  0.00  0.00    +0.000 HD
ENDBRANCH   1   2
BRANCH   1  14
ATOM     14  O   UNL     1       2.616   2.577  16.848  0.00  0.00    +0.000 OA
ATOM     15  H   UNL     1       2.258   1.675  16.908  0.00  0.00    +0.000 HD
ENDBRANCH   1  14
BRANCH   1  16
ATOM     16  C   UNL     1       3.713   2.066  18.929  0.00  0.00    +0.000 C 
BRANCH  16  17
ATOM     17  N   UNL     1       2.281   1.997  19.285  0.00  0.00    +0.000 NA
ATOM     18  H   UNL     1       1.751   2.099  18.415  0.00  0.00    +0.000 HD
BRANCH  17  20
ATOM     19  C   UNL     1       1.923   2.391  21.727  0.00  0.00    +0.000 C 
ATOM     20  C   UNL     1       1.835   2.968  20.301  0.00  0.00    +0.000 C 
ATOM     21  C   UNL     1       0.374   3.374  20.007  0.00  0.00    +0.000 C 
BRANCH  20  22
ATOM     22  C   UNL     1       2.688   4.272  20.208  0.00  0.00    +0.000 C 
BRANCH  22  23
ATOM     23  C   UNL     1       2.153   5.499  20.960  0.00  0.00    +0.000 C 
BRANCH  23  24
ATOM     24  C   UNL     1       2.051   6.708  20.056  0.00  0.00    +0.000 A 
ATOM     25  C   UNL     1       2.560   6.669  18.751  0.00  0.00    +0.000 A 
ATOM     26  C   UNL     1       2.473   7.789  17.922  0.00  0.00    +0.000 A 
ATOM     27  C   UNL     1       1.881   8.961  18.390  0.00  0.00    +0.000 A 
ATOM     28  C   UNL     1       1.380   9.015  19.688  0.00  0.00    +0.000 A 
ATOM     29  C   UNL     1       1.467   7.896  20.519  0.00  0.00    +0.000 A 
ENDBRANCH  23  24
ENDBRANCH  22  23
ENDBRANCH  20  22
ENDBRANCH  17  20
ENDBRANCH  16  17
ENDBRANCH   1  16
TORSDOF 8
ENDMDL
MODEL 2
REMARK VINA RESULT:      -7.6      2.780      5.649
REMARK  Name = 
REMARK  10 active torsions:
REMARK  status: ('A' for Active; 'I' for Inactive)
REMARK    1  A    between atoms: C_1  and  C_2
REMARK    2  A    between atoms: C_2  and  C_3
REMARK    3  A    between atoms: C_2  and  C_4
REMARK    4  A    between atoms: C_2  and  N_12
REMARK    5  A    between atoms: C_4  and  C_5
REMARK    6  A    between atoms: C_5  and  C_6
REMARK    7  A    between atoms: N_12  and  C_13
REMARK    8  A    between atoms: C_13  and  C_14
REMARK    9  A    between atoms: C_14  and  O_15
REMARK   10  A    between atoms: C_14  and  C_16
REMARK                            x       y       z     vdW  Elec       q    Type
REMARK                         _______ _______ _______ _____ _____    ______ ____
ROOT
ATOM      1  C   UNL     1       2.703   5.914  20.468  0.00  0.00    +0.000 C 
ENDROOT
BRANCH   1   2
ATOM      2  C   UNL     1       2.119   7.107  19.736  0.00  0.00    +0.000 A 
ATOM      3  C   UNL     1       2.327   7.407  18.381  0.00  0.00    +0.000 A 
ATOM      4  C   UNL     1       1.899   8.634  17.851  0.00  0.00    +0.000 A 
ATOM      5  C   UNL     1       1.300   9.588  18.681  0.00  0.00    +0.000 A 
ATOM      6  C   UNL     1       1.076   9.292  20.024  0.00  0.00    +0.000 A 
ATOM      7  C   UNL     1       1.439   8.043  20.527  0.00  0.00    +0.000 A 
ATOM      8  C   UNL     1       0.429  10.282  20.940  0.00  0.00    +0.000 C 
ATOM      9  C   UNL     1       0.522  11.711  20.445  0.00  0.00    +0.000 C 
ATOM     10  C   UNL     1       0.478  11.865  18.945  0.00  0.00    +0.000 C 
ATOM     11  O   UNL     1       0.149  12.926  18.417  0.00  0.00    +0.000 OA
ATOM     12  N   UNL     1       0.933  10.829  18.177  0.00  0.00    +0.000 N 
ATOM     13  H   UNL     1       1.008  11.023  17.187  0.00  0.00    +0.000 HD
ENDBRANCH   1   2
BRANCH   1  14
ATOM     14  O   UNL     1       4.056   5.756  20.001  0.00  0.00    +0.000 OA
ATOM     15  H   UNL     1       4.622   5.687  20.789  0.00  0.00    +0.000 HD
ENDBRANCH   1  14
BRANCH   1  16
ATOM     16  C   UNL     1       1.979   4.569  20.278  0.00  0.00    +0.000 C 
BRANCH  16  17
ATOM     17  N   UNL     1       2.920   3.506  19.867  0.00  0.00    +0.000 NA
ATOM     18  H   UNL     1       3.854   3.925  19.843  0.00  0.00    +0.000 HD
BRANCH  17  20
ATOM     19  C   UNL     1       1.108   2.465  18.496  0.00  0.00    +0.000 C 
ATOM     20  C   UNL     1       2.600   2.838  18.592  0.00  0.00    +0.000 C 
ATOM     21  C   UNL     1       3.454   1.557  18.464  0.00  0.00    +0.000 C 
BRANCH  20  22
ATOM     22  C   UNL     1       2.990   3.757  17.392  0.00  0.00    +0.000 C 
BRANCH  22  23
ATOM     23  C   UNL     1       4.375   3.526  16.770  0.00  0.00    +0.000 C 
BRANCH  23  24
ATOM     24  C   UNL     1       5.316   4.675  17.057  0.00  0.00    +0.000 A 
ATOM     25  C   UNL     1       5.049   5.958  16.563  0.00  0.00    +0.000 A 
ATOM     26  C   UNL     1       5.924   7.015  16.822  0.00  0.00    +0.000 A 
ATOM     27  C   UNL     1       7.078   6.799  17.573  0.00  0.00    +0.000 A 
ATOM     28  C   UNL     1       7.360   5.525  18.062  0.00  0.00    +0.000 A 
ATOM     29  C   UNL     1       6.486   4.467  17.803  0.00  0.00    +0.000 A 
ENDBRANCH  23  24
ENDBRANCH  22  23
ENDBRANCH  20  22
ENDBRANCH  17  20
ENDBRANCH  16  17
ENDBRANCH   1  16
TORSDOF 8
ENDMDL
MODEL 3
REMARK VINA RESULT:      -7.5      3.161      6.364
REMARK  Name = 
REMARK  10 active torsions:
REMARK  status: ('A' for Active; 'I' for Inactive)
REMARK    1  A    between atoms: C_1  and  C_2
REMARK    2  A    between atoms: C_2  and  C_3
REMARK    3  A    between atoms: C_2  and  C_4
REMARK    4  A    between atoms: C_2  and  N_12
REMARK    5  A    between atoms: C_4  and  C_5
REMARK    6  A    between atoms: C_5  and  C_6
REMARK    7  A    between atoms: N_12  and  C_13
REMARK    8  A    between atoms: C_13  and  C_14
REMARK    9  A    between atoms: C_14  and  O_15
REMARK   10  A    between atoms: C_14  and  C_16
REMARK                            x       y       z     vdW  Elec       q    Type
REMARK                         _______ _______ _______ _____ _____    ______ ____
ROOT
ATOM      1  C   UNL     1       3.164   6.528  18.514  0.00  0.00    +0.000 C 
ENDROOT
BRANCH   1   2
ATOM      2  C   UNL     1       2.240   7.708  18.742  0.00  0.00    +0.000 A 
ATOM      3  C   UNL     1       2.080   8.793  17.867  0.00  0.00    +0.000 A 
ATOM      4  C   UNL     1       1.346   9.923  18.261  0.00  0.00    +0.000 A 
ATOM      5  C   UNL     1       0.803   9.994  19.549  0.00  0.00    +0.000 A 
ATOM      6  C   UNL     1       0.944   8.916  20.419  0.00  0.00    +0.000 A 
ATOM      7  C   UNL     1       1.613   7.768  19.994  0.00  0.00    +0.000 A 
ATOM      8  C   UNL     1       0.368   8.950  21.799  0.00  0.00    +0.000 C 
ATOM      9  C   UNL     1       0.109  10.354  22.308  0.00  0.00    +0.000 C 
ATOM     10  C   UNL     1      -0.301  11.345  21.247  0.00  0.00    +0.000 C 
ATOM     11  O   UNL     1      -0.912  12.374  21.532  0.00  0.00    +0.000 OA
ATOM     12  N   UNL     1       0.131  11.136  19.968  0.00  0.00    +0.000 N 
ATOM     13  H   UNL     1      -0.055  11.888  19.317  0.00  0.00    +0.000 HD
ENDBRANCH   1   2
BRANCH   1  14
ATOM     14  O   UNL     1       3.739   6.193  19.792  0.00  0.00    +0.000 OA
ATOM     15  H   UNL     1       3.030   6.281  20.453  0.00  0.00    +0.000 HD
ENDBRANCH   1  14
BRANCH   1  16
ATOM     16  C   UNL     1       4.319   6.740  17.520  0.00  0.00    +0.000 C 
BRANCH  16  17
ATOM     17  N   UNL     1       5.547   6.052  17.969  0.00  0.00    +0.000 NA
ATOM     18  H   UNL     1       6.323   6.709  17.842  0.00  0.00    +0.000 HD
BRANCH  17  20
ATOM     19  C   UNL     1       7.329   4.573  17.028  0.00  0.00    +0.000 C 
ATOM     20  C   UNL     1       5.826   4.763  17.309  0.00  0.00    +0.000 C 
ATOM     21  C   UNL     1       5.047   4.698  15.977  0.00  0.00    +0.000 C 
BRANCH  20  22
ATOM     22  C   UNL     1       5.303   3.586  18.190  0.00  0.00    +0.000 C 
BRANCH  22  23
ATOM     23  C   UNL     1       3.946   2.983  17.798  0.00  0.00    +0.000 C 
BRANCH  23  24
ATOM     24  C   UNL     1       2.990   2.948  18.971  0.00  0.00    +0.000 A 
ATOM     25  C   UNL     1       1.622   3.184  18.785  0.00  0.00    +0.000 A 
ATOM     26  C   UNL     1       0.744   3.160  19.870  0.00  0.00    +0.000 A 
ATOM     27  C   UNL     1       1.225   2.906  21.153  0.00  0.00    +0.000 A 
ATOM     28  C   UNL     1       2.585   2.678  21.352  0.00  0.00    +0.000 A 
ATOM     29  C   UNL     1       3.465   2.703  20.268  0.00  0.00    +0.000 A 
ENDBRANCH  23  24
ENDBRANCH  22  23
ENDBRANCH  20  22
ENDBRANCH  17  20
ENDBRANCH  16  17
ENDBRANCH   1  16
TORSDOF 8
ENDMDL
MODEL 4
REMARK VINA RESULT:      -7.3      3.326      6.527
REMARK  Name = 
REMARK  10 active torsions:
REMARK  status: ('A' for Active; 'I' for Inactive)
REMARK    1  A    between atoms: C_1  and  C_2
REMARK    2  A    between atoms: C_2  and  C_3
REMARK    3  A    between atoms: C_2  and  C_4
REMARK    4  A    between atoms: C_2  and  N_12
REMARK    5  A    between atoms: C_4  and  C_5
REMARK    6  A    between atoms: C_5  and  C_6
REMARK    7  A    between atoms: N_12  and  C_13
REMARK    8  A    between atoms: C_13  and  C_14
REMARK    9  A    between atoms: C_14  and  O_15
REMARK   10  A    between atoms: C_14  and  C_16
REMARK                            x       y       z     vdW  Elec       q    Type
REMARK                         _______ _______ _______ _____ _____    ______ ____
ROOT
ATOM      1  C   UNL     1       2.808   6.487  19.111  0.00  0.00    +0.000 C 
ENDROOT
BRANCH   1   2
ATOM      2  C   UNL     1       1.936   7.717  19.267  0.00  0.00    +0.000 A 
ATOM      3  C   UNL     1       1.902   8.805  18.382  0.00  0.00    +0.000 A 
ATOM      4  C   UNL     1       1.204   9.975  18.718  0.00  0.00    +0.000 A 
ATOM      5  C   UNL     1       0.572  10.083  19.962  0.00  0.00    +0.000 A 
ATOM      6  C   UNL     1       0.587   9.003  20.841  0.00  0.00    +0.000 A 
ATOM      7  C   UNL     1       1.222   7.818  20.469  0.00  0.00    +0.000 A 
ATOM      8  C   UNL     1      -0.087   9.077  22.174  0.00  0.00    +0.000 C 
ATOM      9  C   UNL     1      -0.306  10.495  22.661  0.00  0.00    +0.000 C 
ATOM     10  C   UNL     1      -0.581  11.502  21.571  0.00  0.00    +0.000 C 
ATOM     11  O   UNL     1      -1.153  12.564  21.808  0.00  0.00    +0.000 OA
ATOM     12  N   UNL     1      -0.066  11.262  20.328  0.00  0.00    +0.000 N 
ATOM     13  H   UNL     1      -0.161  12.020  19.664  0.00  0.00    +0.000 HD
ENDBRANCH   1   2
BRANCH   1  14
ATOM     14  O   UNL     1       3.091   6.002  20.438  0.00  0.00    +0.000 OA
ATOM     15  H   UNL     1       3.798   5.338  20.352  0.00  0.00    +0.000 HD
ENDBRANCH   1  14
BRANCH   1  16
ATOM     16  C   UNL     1       4.151   6.683  18.386  0.00  0.00    +0.000 C 
BRANCH  16  17
ATOM     17  N   UNL     1       4.114   6.115  17.022  0.00  0.00    +0.000 NA
ATOM     18  H   UNL     1       3.131   6.089  16.735  0.00  0.00    +0.000 HD
BRANCH  17  20
ATOM     19  C   UNL     1       5.775   4.517  17.989  0.00  0.00    +0.000 C 
ATOM     20  C   UNL     1       4.750   4.793  16.872  0.00  0.00    +0.000 C 
ATOM     21  C   UNL     1       5.461   4.727  15.502  0.00  0.00    +0.000 C 
BRANCH  20  22
ATOM     22  C   UNL     1       3.664   3.672  16.865  0.00  0.00    +0.000 C 
BRANCH  22  23
ATOM     23  C   UNL     1       3.841   2.537  17.885  0.00  0.00    +0.000 C 
BRANCH  23  24
ATOM     24  C   UNL     1       2.934   2.715  19.082  0.00  0.00    +0.000 A 
ATOM     25  C   UNL     1       3.431   2.569  20.384  0.00  0.00    +0.000 A 
ATOM     26  C   UNL     1       2.590   2.724  21.487  0.00  0.00    +0.000 A 
ATOM     27  C   UNL     1       1.241   3.021  21.301  0.00  0.00    +0.000 A 
ATOM     28  C   UNL     1       0.732   3.159  20.011  0.00  0.00    +0.000 A 
ATOM     29  C   UNL     1       1.572   3.003  18.907  0.00  0.00    +0.000 A 
ENDBRANCH  23  24
ENDBRANCH  22  23
ENDBRANCH  20  22
ENDBRANCH  17  20
ENDBRANCH  16  17
ENDBRANCH   1  16
TORSDOF 8
ENDMDL
MODEL 5
REMARK VINA RESULT:      -7.2      2.542      3.940
REMARK  Name = 
REMARK  10 active torsions:
REMARK  status: ('A' for Active; 'I' for Inactive)
REMARK    1  A    between atoms: C_1  and  C_2
REMARK    2  A    between atoms: C_2  and  C_3
REMARK    3  A    between atoms: C_2  and  C_4
REMARK    4  A    between atoms: C_2  and  N_12
REMARK    5  A    between atoms: C_4  and  C_5
REMARK    6  A    between atoms: C_5  and  C_6
REMARK    7  A    between atoms: N_12  and  C_13
REMARK    8  A    between atoms: C_13  and  C_14
REMARK    9  A    between atoms: C_14  and  O_15
REMARK   10  A    between atoms: C_14  and  C_16
REMARK                            x       y       z     vdW  Elec       q    Type
REMARK                         _______ _______ _______ _____ _____    ______ ____
ROOT
ATOM      1  C   UNL     1       4.878   3.975  19.746  0.00  0.00    +0.000 C 
ENDROOT
BRANCH   1   2
ATOM      2  C   UNL     1       5.786   4.369  18.598  0.00  0.00    +0.000 A 
ATOM      3  C   UNL     1       6.704   5.429  18.617  0.00  0.00    +0.000 A 
ATOM      4  C   UNL     1       7.357   5.828  17.441  0.00  0.00    +0.000 A 
ATOM      5  C   UNL     1       7.063   5.198  16.226  0.00  0.00    +0.000 A 
ATOM      6  C   UNL     1       6.164   4.134  16.200  0.00  0.00    +0.000 A 
ATOM      7  C   UNL     1       5.574   3.697  17.386  0.00  0.00    +0.000 A 
ATOM      8  C   UNL     1       5.833   3.429  14.923  0.00  0.00    +0.000 C 
ATOM      9  C   UNL     1       6.126   4.253  13.686  0.00  0.00    +0.000 C 
ATOM     10  C   UNL     1       7.319   5.169  13.805  0.00  0.00    +0.000 C 
ATOM     11  O   UNL     1       7.911   5.585  12.810  0.00  0.00    +0.000 OA
ATOM     12  N   UNL     1       7.656   5.629  15.047  0.00  0.00    +0.000 N 
ATOM     13  H   UNL     1       8.377   6.340  15.066  0.00  0.00    +0.000 HD
ENDBRANCH   1   2
BRANCH   1  14
ATOM     14  O   UNL     1       4.810   2.536  19.752  0.00  0.00    +0.000 OA
ATOM     15  H   UNL     1       4.453   2.273  20.618  0.00  0.00    +0.000 HD
ENDBRANCH   1  14
BRANCH   1  16
ATOM     16  C   UNL     1       3.436   4.512  19.698  0.00  0.00    +0.000 C 
BRANCH  16  17
ATOM     17  N   UNL     1       3.407   5.984  19.827  0.00  0.00    +0.000 NA
ATOM     18  H   UNL     1       3.014   6.197  20.749  0.00  0.00    +0.000 HD
BRANCH  17  20
ATOM     19  C   UNL     1       1.694   5.775  18.019  0.00  0.00    +0.000 C 
ATOM     20  C   UNL     1       2.682   6.697  18.760  0.00  0.00    +0.000 C 
ATOM     21  C   UNL     1       3.702   7.265  17.748  0.00  0.00    +0.000 C 
BRANCH  20  22
ATOM     22  C   UNL     1       1.915   7.919  19.355  0.00  0.00    +0.000 C 
BRANCH  22  23
ATOM     23  C   UNL     1       1.403   7.774  20.796  0.00  0.00    +0.000 C 
BRANCH  23  24
ATOM     24  C   UNL     1       0.605   8.984  21.229  0.00  0.00    +0.000 A 
ATOM     25  C   UNL     1       0.388  10.051  20.347  0.00  0.00    +0.000 A 
ATOM     26  C   UNL     1      -0.341  11.170  20.753  0.00  0.00    +0.000 A 
ATOM     27  C   UNL     1      -0.857  11.238  22.046  0.00  0.00    +0.000 A 
ATOM     28  C   UNL     1      -0.640  10.187  22.935  0.00  0.00    +0.000 A 
ATOM     29  C   UNL     1       0.090   9.068  22.531  0.00  0.00    +0.000 A 
ENDBRANCH  23  24
ENDBRANCH  22  23
ENDBRANCH  20  22
ENDBRANCH  17  20
ENDBRANCH  16  17
ENDBRANCH   1  16
TORSDOF 8
ENDMDL
MODEL 6
REMARK VINA RESULT:      -7.2      2.955      5.913
REMARK  Name = 
REMARK  10 active torsions:
REMARK  status: ('A' for Active; 'I' for Inactive)
REMARK    1  A    between atoms: C_1  and  C_2
REMARK    2  A    between atoms: C_2  and  C_3
REMARK    3  A    between atoms: C_2  and  C_4
REMARK    4  A    between atoms: C_2  and  N_12
REMARK    5  A    between atoms: C_4  and  C_5
REMARK    6  A    between atoms: C_5  and  C_6
REMARK    7  A    between atoms: N_12  and  C_13
REMARK    8  A    between atoms: C_13  and  C_14
REMARK    9  A    between atoms: C_14  and  O_15
REMARK   10  A    between atoms: C_14  and  C_16
REMARK                            x       y       z     vdW  Elec       q    Type
REMARK                         _______ _______ _______ _____ _____    ______ ____
ROOT
ATOM      1  C   UNL     1       2.305   6.283  20.525  0.00  0.00    +0.000 C 
ENDROOT
BRANCH   1   2
ATOM      2  C   UNL     1       1.895   7.523  19.755  0.00  0.00    +0.000 A 
ATOM      3  C   UNL     1       2.338   7.862  18.468  0.00  0.00    +0.000 A 
ATOM      4  C   UNL     1       2.049   9.123  17.925  0.00  0.00    +0.000 A 
ATOM      5  C   UNL     1       1.352  10.071  18.682  0.00  0.00    +0.000 A 
ATOM      6  C   UNL     1       0.896   9.739  19.955  0.00  0.00    +0.000 A 
ATOM      7  C   UNL     1       1.125   8.459  20.460  0.00  0.00    +0.000 A 
ATOM      8  C   UNL     1       0.139  10.722  20.790  0.00  0.00    +0.000 C 
ATOM      9  C   UNL     1       0.364  12.163  20.377  0.00  0.00    +0.000 C 
ATOM     10  C   UNL     1       0.578  12.370  18.898  0.00  0.00    +0.000 C 
ATOM     11  O   UNL     1       0.380  13.462  18.367  0.00  0.00    +0.000 OA
ATOM     12  N   UNL     1       1.119  11.344  18.176  0.00  0.00    +0.000 N 
ATOM     13  H   UNL     1       1.366  11.568  17.220  0.00  0.00    +0.000 HD
ENDBRANCH   1   2
BRANCH   1  14
ATOM     14  O   UNL     1       3.651   5.965  20.123  0.00  0.00    +0.000 OA
ATOM     15  H   UNL     1       3.701   6.113  19.162  0.00  0.00    +0.000 HD
ENDBRANCH   1  14
BRANCH   1  16
ATOM     16  C   UNL     1       1.442   5.026  20.314  0.00  0.00    +0.000 C 
BRANCH  16  17
ATOM     17  N   UNL     1       2.270   3.863  19.935  0.00  0.00    +0.000 NA
ATOM     18  H   UNL     1       3.248   4.166  19.972  0.00  0.00    +0.000 HD
BRANCH  17  20
ATOM     19  C   UNL     1       1.369   4.289  17.643  0.00  0.00    +0.000 C 
ATOM     20  C   UNL     1       1.947   3.256  18.630  0.00  0.00    +0.000 C 
ATOM     21  C   UNL     1       0.919   2.123  18.840  0.00  0.00    +0.000 C 
BRANCH  20  22
ATOM     22  C   UNL     1       3.221   2.596  18.015  0.00  0.00    +0.000 C 
BRANCH  22  23
ATOM     23  C   UNL     1       4.554   3.319  18.255  0.00  0.00    +0.000 C 
BRANCH  23  24
ATOM     24  C   UNL     1       4.992   4.102  17.037  0.00  0.00    +0.000 A 
ATOM     25  C   UNL     1       4.831   5.493  16.985  0.00  0.00    +0.000 A 
ATOM     26  C   UNL     1       5.227   6.212  15.856  0.00  0.00    +0.000 A 
ATOM     27  C   UNL     1       5.783   5.548  14.764  0.00  0.00    +0.000 A 
ATOM     28  C   UNL     1       5.940   4.165  14.799  0.00  0.00    +0.000 A 
ATOM     29  C   UNL     1       5.543   3.444  15.927  0.00  0.00    +0.000 A 
ENDBRANCH  23  24
ENDBRANCH  22  23
ENDBRANCH  20  22
ENDBRANCH  17  20
ENDBRANCH  16  17
ENDBRANCH   1  16
TORSDOF 8
ENDMDL
MODEL 7
REMARK VINA RESULT:      -7.2      3.371      6.717
REMARK  Name = 
REMARK  10 active torsions:
REMARK  status: ('A' for Active; 'I' for Inactive)
REMARK    1  A    between atoms: C_1  and  C_2
REMARK    2  A    between atoms: C_2  and  C_3
REMARK    3  A    between atoms: C_2  and  C_4
REMARK    4  A    between atoms: C_2  and  N_12
REMARK    5  A    between atoms: C_4  and  C_5
REMARK    6  A    between atoms: C_5  and  C_6
REMARK    7  A    between atoms: N_12  and  C_13
REMARK    8  A    between atoms: C_13  and  C_14
REMARK    9  A    between atoms: C_14  and  O_15
REMARK   10  A    between atoms: C_14  and  C_16
REMARK                            x       y       z     vdW  Elec       q    Type
REMARK                         _______ _______ _______ _____ _____    ______ ____
ROOT
ATOM      1  C   UNL     1       2.575   6.426  19.241  0.00  0.00    +0.000 C 
ENDROOT
BRANCH   1   2
ATOM      2  C   UNL     1       1.873   7.618  19.862  0.00  0.00    +0.000 A 
ATOM      3  C   UNL     1       1.311   7.649  21.147  0.00  0.00    +0.000 A 
ATOM      4  C   UNL     1       0.519   8.734  21.551  0.00  0.00    +0.000 A 
ATOM      5  C   UNL     1       0.246   9.777  20.658  0.00  0.00    +0.000 A 
ATOM      6  C   UNL     1       0.812   9.762  19.385  0.00  0.00    +0.000 A 
ATOM      7  C   UNL     1       1.657   8.714  19.016  0.00  0.00    +0.000 A 
ATOM      8  C   UNL     1       0.552  10.863  18.406  0.00  0.00    +0.000 C 
ATOM      9  C   UNL     1      -0.705  11.653  18.708  0.00  0.00    +0.000 C 
ATOM     10  C   UNL     1      -1.023  11.799  20.176  0.00  0.00    +0.000 C 
ATOM     11  O   UNL     1      -1.743  12.706  20.590  0.00  0.00    +0.000 OA
ATOM     12  N   UNL     1      -0.591  10.822  21.029  0.00  0.00    +0.000 N 
ATOM     13  H   UNL     1      -0.935  10.891  21.978  0.00  0.00    +0.000 HD
ENDBRANCH   1   2
BRANCH   1  14
ATOM     14  O   UNL     1       3.617   6.031  20.155  0.00  0.00    +0.000 OA
ATOM     15  H   UNL     1       3.335   5.192  20.560  0.00  0.00    +0.000 HD
ENDBRANCH   1  14
BRANCH   1  16
ATOM     16  C   UNL     1       3.220   6.650  17.862  0.00  0.00    +0.000 C 
BRANCH  16  17
ATOM     17  N   UNL     1       4.661   6.322  17.883  0.00  0.00    +0.000 NA
ATOM     18  H   UNL     1       5.166   7.171  17.614  0.00  0.00    +0.000 HD
BRANCH  17  20
ATOM     19  C   UNL     1       6.281   4.436  17.625  0.00  0.00    +0.000 C 
ATOM     20  C   UNL     1       5.059   5.175  17.045  0.00  0.00    +0.000 C 
ATOM     21  C   UNL     1       5.396   5.679  15.625  0.00  0.00    +0.000 C 
BRANCH  20  22
ATOM     22  C   UNL     1       3.866   4.180  16.895  0.00  0.00    +0.000 C 
BRANCH  22  23
ATOM     23  C   UNL     1       3.957   2.871  17.693  0.00  0.00    +0.000 C 
BRANCH  23  24
ATOM     24  C   UNL     1       3.022   2.874  18.882  0.00  0.00    +0.000 A 
ATOM     25  C   UNL     1       1.650   3.100  18.712  0.00  0.00    +0.000 A 
ATOM     26  C   UNL     1       0.791   3.112  19.812  0.00  0.00    +0.000 A 
ATOM     27  C   UNL     1       1.295   2.903  21.095  0.00  0.00    +0.000 A 
ATOM     28  C   UNL     1       2.658   2.686  21.278  0.00  0.00    +0.000 A 
ATOM     29  C   UNL     1       3.519   2.675  20.179  0.00  0.00    +0.000 A 
ENDBRANCH  23  24
ENDBRANCH  22  23
ENDBRANCH  20  22
ENDBRANCH  17  20
ENDBRANCH  16  17
ENDBRANCH   1  16
TORSDOF 8
ENDMDL
MODEL 8
REMARK VINA RESULT:      -7.1      2.596      4.046
REMARK  Name = 
REMARK  10 active torsions:
REMARK  status: ('A' for Active; 'I' for Inactive)
REMARK    1  A    between atoms: C_1  and  C_2
REMARK    2  A    between atoms: C_2  and  C_3
REMARK    3  A    between atoms: C_2  and  C_4
REMARK    4  A    between atoms: C_2  and  N_12
REMARK    5  A    between atoms: C_4  and  C_5
REMARK    6  A    between atoms: C_5  and  C_6
REMARK    7  A    between atoms: N_12  and  C_13
REMARK    8  A    between atoms: C_13  and  C_14
REMARK    9  A    between atoms: C_14  and  O_15
REMARK   10  A    between atoms: C_14  and  C_16
REMARK                            x       y       z     vdW  Elec       q    Type
REMARK                         _______ _______ _______ _____ _____    ______ ____
ROOT
ATOM      1  C   UNL     1       4.904   4.087  19.762  0.00  0.00    +0.000 C 
ENDROOT
BRANCH   1   2
ATOM      2  C   UNL     1       5.809   4.449  18.600  0.00  0.00    +0.000 A 
ATOM      3  C   UNL     1       6.754   5.484  18.600  0.00  0.00    +0.000 A 
ATOM      4  C   UNL     1       7.403   5.856  17.413  0.00  0.00    +0.000 A 
ATOM      5  C   UNL     1       7.079   5.224  16.207  0.00  0.00    +0.000 A 
ATOM      6  C   UNL     1       6.152   4.184  16.200  0.00  0.00    +0.000 A 
ATOM      7  C   UNL     1       5.565   3.772  17.397  0.00  0.00    +0.000 A 
ATOM      8  C   UNL     1       5.787   3.477  14.933  0.00  0.00    +0.000 C 
ATOM      9  C   UNL     1       6.087   4.283  13.686  0.00  0.00    +0.000 C 
ATOM     10  C   UNL     1       7.305   5.168  13.783  0.00  0.00    +0.000 C 
ATOM     11  O   UNL     1       7.896   5.560  12.778  0.00  0.00    +0.000 OA
ATOM     12  N   UNL     1       7.669   5.630  15.017  0.00  0.00    +0.000 N 
ATOM     13  H   UNL     1       8.408   6.322  15.021  0.00  0.00    +0.000 HD
ENDBRANCH   1   2
BRANCH   1  14
ATOM     14  O   UNL     1       4.888   2.650  19.850  0.00  0.00    +0.000 OA
ATOM     15  H   UNL     1       4.917   2.310  18.939  0.00  0.00    +0.000 HD
ENDBRANCH   1  14
BRANCH   1  16
ATOM     16  C   UNL     1       3.445   4.569  19.673  0.00  0.00    +0.000 C 
BRANCH  16  17
ATOM     17  N   UNL     1       3.360   6.042  19.745  0.00  0.00    +0.000 NA
ATOM     18  H   UNL     1       2.884   6.272  20.622  0.00  0.00    +0.000 HD
BRANCH  17  20
ATOM     19  C   UNL     1       1.705   5.755  17.894  0.00  0.00    +0.000 C 
ATOM     20  C   UNL     1       2.706   6.694  18.595  0.00  0.00    +0.000 C 
ATOM     21  C   UNL     1       3.786   7.133  17.581  0.00  0.00    +0.000 C 
BRANCH  20  22
ATOM     22  C   UNL     1       1.974   7.992  19.059  0.00  0.00    +0.000 C 
BRANCH  22  23
ATOM     23  C   UNL     1       1.639   9.020  17.968  0.00  0.00    +0.000 C 
BRANCH  23  24
ATOM     24  C   UNL     1       0.470   9.894  18.364  0.00  0.00    +0.000 A 
ATOM     25  C   UNL     1      -0.762   9.780  17.707  0.00  0.00    +0.000 A 
ATOM     26  C   UNL     1      -1.837  10.595  18.068  0.00  0.00    +0.000 A 
ATOM     27  C   UNL     1      -1.690  11.536  19.085  0.00  0.00    +0.000 A 
ATOM     28  C   UNL     1      -0.467  11.666  19.739  0.00  0.00    +0.000 A 
ATOM     29  C   UNL     1       0.610  10.853  19.378  0.00  0.00    +0.000 A 
ENDBRANCH  23  24
ENDBRANCH  22  23
ENDBRANCH  20  22
ENDBRANCH  17  20
ENDBRANCH  16  17
ENDBRANCH   1  16
TORSDOF 8
ENDMDL
MODEL 9
REMARK VINA RESULT:      -7.1      2.905      5.737
REMARK  Name = 
REMARK  10 active torsions:
REMARK  status: ('A' for Active; 'I' for Inactive)
REMARK    1  A    between atoms: C_1  and  C_2
REMARK    2  A    between atoms: C_2  and  C_3
REMARK    3  A    between atoms: C_2  and  C_4
REMARK    4  A    between atoms: C_2  and  N_12
REMARK    5  A    between atoms: C_4  and  C_5
REMARK    6  A    between atoms: C_5  and  C_6
REMARK    7  A    between atoms: N_12  and  C_13
REMARK    8  A    between atoms: C_13  and  C_14
REMARK    9  A    between atoms: C_14  and  O_15
REMARK   10  A    between atoms: C_14  and  C_16
REMARK                            x       y       z     vdW  Elec       q    Type
REMARK                         _______ _______ _______ _____ _____    ______ ____
ROOT
ATOM      1  C   UNL     1       2.712   6.198  20.568  0.00  0.00    +0.000 C 
ENDROOT
BRANCH   1   2
ATOM      2  C   UNL     1       2.095   7.335  19.777  0.00  0.00    +0.000 A 
ATOM      3  C   UNL     1       2.409   7.663  18.450  0.00  0.00    +0.000 A 
ATOM      4  C   UNL     1       1.922   8.846  17.874  0.00  0.00    +0.000 A 
ATOM      5  C   UNL     1       1.153   9.733  18.637  0.00  0.00    +0.000 A 
ATOM      6  C   UNL     1       0.824   9.409  19.950  0.00  0.00    +0.000 A 
ATOM      7  C   UNL     1       1.252   8.196  20.492  0.00  0.00    +0.000 A 
ATOM      8  C   UNL     1      -0.005  10.326  20.793  0.00  0.00    +0.000 C 
ATOM      9  C   UNL     1       0.001  11.761  20.306  0.00  0.00    +0.000 C 
ATOM     10  C   UNL     1       0.095  11.920  18.808  0.00  0.00    +0.000 C 
ATOM     11  O   UNL     1      -0.279  12.949  18.247  0.00  0.00    +0.000 OA
ATOM     12  N   UNL     1       0.722  10.937  18.094  0.00  0.00    +0.000 N 
ATOM     13  H   UNL     1       0.878  11.144  17.116  0.00  0.00    +0.000 HD
ENDBRANCH   1   2
BRANCH   1  14
ATOM     14  O   UNL     1       3.975   5.892  19.947  0.00  0.00    +0.000 OA
ATOM     15  H   UNL     1       3.973   4.937  19.758  0.00  0.00    +0.000 HD
ENDBRANCH   1  14
BRANCH   1  16
ATOM     16  C   UNL     1       1.899   4.894  20.648  0.00  0.00    +0.000 C 
BRANCH  16  17
ATOM     17  N   UNL     1       1.397   4.492  19.317  0.00  0.00    +0.000 NA
ATOM     18  H   UNL     1       0.376   4.461  19.379  0.00  0.00    +0.000 HD
BRANCH  17  20
ATOM     19  C   UNL     1       0.833   2.181  18.549  0.00  0.00    +0.000 C 
ATOM     20  C   UNL     1       1.941   3.224  18.795  0.00  0.00    +0.000 C 
ATOM     21  C   UNL     1       2.959   2.655  19.807  0.00  0.00    +0.000 C 
BRANCH  20  22
ATOM     22  C   UNL     1       2.724   3.482  17.470  0.00  0.00    +0.000 C 
BRANCH  22  23
ATOM     23  C   UNL     1       4.219   3.131  17.475  0.00  0.00    +0.000 C 
BRANCH  23  24
ATOM     24  C   UNL     1       5.083   4.364  17.322  0.00  0.00    +0.000 A 
ATOM     25  C   UNL     1       6.325   4.450  17.963  0.00  0.00    +0.000 A 
ATOM     26  C   UNL     1       7.116   5.593  17.828  0.00  0.00    +0.000 A 
ATOM     27  C   UNL     1       6.671   6.664  17.054  0.00  0.00    +0.000 A 
ATOM     28  C   UNL     1       5.433   6.593  16.419  0.00  0.00    +0.000 A 
ATOM     29  C   UNL     1       4.641   5.452  16.555  0.00  0.00    +0.000 A 
ENDBRANCH  23  24
ENDBRANCH  22  23
ENDBRANCH  20  22
ENDBRANCH  17  20
ENDBRANCH  16  17
ENDBRANCH   1  16
TORSDOF 8
ENDMDL
