MODEL 1
REMARK VINA RESULT:      -8.6      0.000      0.000
REMARK  Name = 
REMARK  9 active torsions:
REMARK  status: ('A' for Active; 'I' for Inactive)
REMARK    1  A    between atoms: C_2  and  O_3
REMARK    2  A    between atoms: C_2  and  C_4
REMARK    3  A    between atoms: C_9  and  C_10
REMARK    4  A    between atoms: C_10  and  C_11
REMARK    5  A    between atoms: C_11  and  C_12
REMARK    6  A    between atoms: C_12  and  C_13
REMARK    7  A    between atoms: C_14  and  C_15
REMARK    8  A    between atoms: C_20  and  C_21
REMARK    9  A    between atoms: C_21  and  C_22
REMARK                            x       y       z     vdW  Elec       q    Type
REMARK                         _______ _______ _______ _____ _____    ______ ____
ROOT
ATOM      1  C   UNL     1       1.813   8.663  18.959  0.00  0.00    +0.000 C 
ATOM      2  C   UNL     1       1.271   9.215  19.884  0.00  0.00    +0.000 C 
ENDROOT
BRANCH   2   3
ATOM      3  C   UNL     1       0.491   9.747  20.965  0.00  0.00    +0.000 A 
ATOM      4  C   UNL     1       0.592   9.116  22.214  0.00  0.00    +0.000 A 
ATOM      5  C   UNL     1      -0.171   9.553  23.298  0.00  0.00    +0.000 A 
ATOM      6  C   UNL     1      -1.042  10.624  23.143  0.00  0.00    +0.000 A 
ATOM      7  C   UNL     1      -1.150  11.260  21.905  0.00  0.00    +0.000 A 
ATOM      8  C   UNL     1      -0.387  10.838  20.798  0.00  0.00    +0.000 A 
BRANCH   8   9
ATOM      9  C   UNL     1      -0.531  11.605  19.497  0.00  0.00    +0.000 C 
BRANCH   9  10
ATOM     10  C   UNL     1      -1.636  11.152  18.564  0.00  0.00    +0.000 A 
ATOM     11  C   UNL     1      -2.910  11.738  18.611  0.00  0.00    +0.000 A 
ATOM     12  C   UNL     1      -3.895  11.377  17.685  0.00  0.00    +0.000 A 
ATOM     13  C   UNL     1      -3.623  10.423  16.707  0.00  0.00    +0.000 A 
ATOM     14  C   UNL     1      -2.369   9.821  16.661  0.00  0.00    +0.000 A 
ATOM     15  C   UNL     1      -1.384  10.184  17.583  0.00  0.00    +0.000 A 
ENDBRANCH   9  10
ENDBRANCH   8   9
ENDBRANCH   2   3
BRANCH   1  16
ATOM     16  C   UNL     1       2.181   7.862  17.787  0.00  0.00    +0.000 C 
BRANCH  16  17
ATOM     17  C   UNL     1       3.337   6.883  17.948  0.00  0.00    +0.000 C 
BRANCH  17  18
ATOM     18  C   UNL     1       3.176   5.880  19.097  0.00  0.00    +0.000 C 
BRANCH  18  24
ATOM     19  C   UNL     1       3.406   3.474  18.197  0.00  0.00    +0.000 C 
ATOM     20  C   UNL     1       2.592   2.245  17.753  0.00  0.00    +0.000 C 
ATOM     21  N   UNL     1       1.667   1.748  18.777  0.00  0.00    +0.000 NA
ATOM     22  C   UNL     1       0.750   2.788  19.232  0.00  0.00    +0.000 C 
ATOM     23  C   UNL     1       1.475   4.041  19.728  0.00  0.00    +0.000 C 
ATOM     24  C   UNL     1       2.443   4.591  18.660  0.00  0.00    +0.000 C 
ATOM     25  H   UNL     1       2.232   1.439  19.580  0.00  0.00    +0.000 HD
BRANCH  19  27
ATOM     26  O   UNL     1       4.184   2.330  20.207  0.00  0.00    +0.000 OA
ATOM     27  C   UNL     1       4.424   3.058  19.256  0.00  0.00    +0.000 C 
BRANCH  27  28
ATOM     28  O   UNL     1       5.654   3.587  19.065  0.00  0.00    +0.000 OA
ATOM     29  H   UNL     1       5.751   4.517  19.338  0.00  0.00    +0.000 HD
ENDBRANCH  27  28
ENDBRANCH  19  27
ENDBRANCH  18  24
ENDBRANCH  17  18
ENDBRANCH  16  17
ENDBRANCH   1  16
TORSDOF 9
ENDMDL
MODEL 2
REMARK VINA RESULT:      -8.4      4.179      8.856
REMARK  Name = 
REMARK  9 active torsions:
REMARK  status: ('A' for Active; 'I' for Inactive)
REMARK    1  A    between atoms: C_2  and  O_3
REMARK    2  A    between atoms: C_2  and  C_4
REMARK    3  A    between atoms: C_9  and  C_10
REMARK    4  A    between atoms: C_10  and  C_11
REMARK    5  A    between atoms: C_11  and  C_12
REMARK    6  A    between atoms: C_12  and  C_13
REMARK    7  A    between atoms: C_14  and  C_15
REMARK    8  A    between atoms: C_20  and  C_21
REMARK    9  A    between atoms: C_21  and  C_22
REMARK                            x       y       z     vdW  Elec       q    Type
REMARK                         _______ _______ _______ _____ _____    ______ ____
ROOT
ATOM      1  C   UNL     1       2.474   7.450  18.116  0.00  0.00    +0.000 C 
ATOM      2  C   UNL     1       2.394   6.315  18.518  0.00  0.00    +0.000 C 
ENDROOT
BRANCH   2   3
ATOM      3  C   UNL     1       2.134   5.014  19.063  0.00  0.00    +0.000 A 
ATOM      4  C   UNL     1       1.518   4.947  20.322  0.00  0.00    +0.000 A 
ATOM      5  C   UNL     1       1.274   3.716  20.933  0.00  0.00    +0.000 A 
ATOM      6  C   UNL     1       1.645   2.540  20.291  0.00  0.00    +0.000 A 
ATOM      7  C   UNL     1       2.258   2.595  19.038  0.00  0.00    +0.000 A 
ATOM      8  C   UNL     1       2.510   3.827  18.401  0.00  0.00    +0.000 A 
BRANCH   8   9
ATOM      9  C   UNL     1       3.143   3.803  17.024  0.00  0.00    +0.000 C 
BRANCH   9  10
ATOM     10  C   UNL     1       4.634   4.066  16.960  0.00  0.00    +0.000 A 
ATOM     11  C   UNL     1       5.298   4.176  15.728  0.00  0.00    +0.000 A 
ATOM     12  C   UNL     1       6.656   4.510  15.679  0.00  0.00    +0.000 A 
ATOM     13  C   UNL     1       7.368   4.728  16.855  0.00  0.00    +0.000 A 
ATOM     14  C   UNL     1       6.726   4.603  18.084  0.00  0.00    +0.000 A 
ATOM     15  C   UNL     1       5.370   4.275  18.134  0.00  0.00    +0.000 A 
ENDBRANCH   9  10
ENDBRANCH   8   9
ENDBRANCH   2   3
BRANCH   1  16
ATOM     16  C   UNL     1       2.334   8.882  17.837  0.00  0.00    +0.000 C 
BRANCH  16  17
ATOM     17  C   UNL     1       0.921   9.453  17.822  0.00  0.00    +0.000 C 
BRANCH  17  18
ATOM     18  C   UNL     1       0.398   9.915  19.188  0.00  0.00    +0.000 C 
BRANCH  18  24
ATOM     19  C   UNL     1      -1.267  11.861  19.494  0.00  0.00    +0.000 C 
ATOM     20  C   UNL     1      -2.766  12.215  19.448  0.00  0.00    +0.000 C 
ATOM     21  N   UNL     1      -3.407  11.898  18.167  0.00  0.00    +0.000 NA
ATOM     22  C   UNL     1      -3.238  10.493  17.808  0.00  0.00    +0.000 C 
ATOM     23  C   UNL     1      -1.771  10.059  17.793  0.00  0.00    +0.000 C 
ATOM     24  C   UNL     1      -1.078  10.369  19.136  0.00  0.00    +0.000 C 
ATOM     25  H   UNL     1      -2.957  12.474  17.444  0.00  0.00    +0.000 HD
BRANCH  19  27
ATOM     26  O   UNL     1       0.499  13.449  18.936  0.00  0.00    +0.000 OA
ATOM     27  C   UNL     1      -0.488  12.815  18.593  0.00  0.00    +0.000 C 
BRANCH  27  28
ATOM     28  O   UNL     1      -0.997  12.923  17.345  0.00  0.00    +0.000 OA
ATOM     29  H   UNL     1      -1.934  13.184  17.303  0.00  0.00    +0.000 HD
ENDBRANCH  27  28
ENDBRANCH  19  27
ENDBRANCH  18  24
ENDBRANCH  17  18
ENDBRANCH  16  17
ENDBRANCH   1  16
TORSDOF 9
ENDMDL
MODEL 3
REMARK VINA RESULT:      -8.3      4.184      8.961
REMARK  Name = 
REMARK  9 active torsions:
REMARK  status: ('A' for Active; 'I' for Inactive)
REMARK    1  A    between atoms: C_2  and  O_3
REMARK    2  A    between atoms: C_2  and  C_4
REMARK    3  A    between atoms: C_9  and  C_10
REMARK    4  A    between atoms: C_10  and  C_11
REMARK    5  A    between atoms: C_11  and  C_12
REMARK    6  A    between atoms: C_12  and  C_13
REMARK    7  A    between atoms: C_14  and  C_15
REMARK    8  A    between atoms: C_20  and  C_21
REMARK    9  A    between atoms: C_21  and  C_22
REMARK                            x       y       z     vdW  Elec       q    Type
REMARK                         _______ _______ _______ _____ _____    ______ ____
ROOT
ATOM      1  C   UNL     1       2.353   7.144  18.183  0.00  0.00    +0.000 C 
ATOM      2  C   UNL     1       2.391   5.942  18.278  0.00  0.00    +0.000 C 
ENDROOT
BRANCH   2   3
ATOM      3  C   UNL     1       2.611   4.526  18.329  0.00  0.00    +0.000 A 
ATOM      4  C   UNL     1       1.812   3.773  19.202  0.00  0.00    +0.000 A 
ATOM      5  C   UNL     1       2.000   2.397  19.336  0.00  0.00    +0.000 A 
ATOM      6  C   UNL     1       2.992   1.760  18.599  0.00  0.00    +0.000 A 
ATOM      7  C   UNL     1       3.794   2.500  17.728  0.00  0.00    +0.000 A 
ATOM      8  C   UNL     1       3.618   3.889  17.574  0.00  0.00    +0.000 A 
BRANCH   8   9
ATOM      9  C   UNL     1       4.502   4.616  16.578  0.00  0.00    +0.000 C 
BRANCH   9  10
ATOM     10  C   UNL     1       5.694   5.358  17.147  0.00  0.00    +0.000 A 
ATOM     11  C   UNL     1       5.978   6.676  16.760  0.00  0.00    +0.000 A 
ATOM     12  C   UNL     1       7.026   7.384  17.359  0.00  0.00    +0.000 A 
ATOM     13  C   UNL     1       7.806   6.783  18.344  0.00  0.00    +0.000 A 
ATOM     14  C   UNL     1       7.546   5.470  18.724  0.00  0.00    +0.000 A 
ATOM     15  C   UNL     1       6.497   4.764  18.130  0.00  0.00    +0.000 A 
ENDBRANCH   9  10
ENDBRANCH   8   9
ENDBRANCH   2   3
BRANCH   1  16
ATOM     16  C   UNL     1       2.569   8.565  17.890  0.00  0.00    +0.000 C 
BRANCH  16  17
ATOM     17  C   UNL     1       1.337   9.458  17.823  0.00  0.00    +0.000 C 
BRANCH  17  18
ATOM     18  C   UNL     1       0.719   9.805  19.184  0.00  0.00    +0.000 C 
BRANCH  18  24
ATOM     19  C   UNL     1      -0.958  11.738  19.501  0.00  0.00    +0.000 C 
ATOM     20  C   UNL     1      -2.450  12.102  19.384  0.00  0.00    +0.000 C 
ATOM     21  N   UNL     1      -3.012  11.864  18.051  0.00  0.00    +0.000 NA
ATOM     22  C   UNL     1      -2.824  10.482  17.620  0.00  0.00    +0.000 C 
ATOM     23  C   UNL     1      -1.359  10.041  17.670  0.00  0.00    +0.000 C 
ATOM     24  C   UNL     1      -0.750  10.268  19.069  0.00  0.00    +0.000 C 
ATOM     25  H   UNL     1      -2.517  12.480  17.392  0.00  0.00    +0.000 HD
BRANCH  19  27
ATOM     26  O   UNL     1       1.088  12.873  18.809  0.00  0.00    +0.000 OA
ATOM     27  C   UNL     1      -0.123  12.739  18.708  0.00  0.00    +0.000 C 
BRANCH  27  28
ATOM     28  O   UNL     1      -0.849  13.506  17.864  0.00  0.00    +0.000 OA
ATOM     29  H   UNL     1      -1.316  14.252  18.282  0.00  0.00    +0.000 HD
ENDBRANCH  27  28
ENDBRANCH  19  27
ENDBRANCH  18  24
ENDBRANCH  17  18
ENDBRANCH  16  17
ENDBRANCH   1  16
TORSDOF 9
ENDMDL
MODEL 4
REMARK VINA RESULT:      -8.3      0.580      1.102
REMARK  Name = 
REMARK  9 active torsions:
REMARK  status: ('A' for Active; 'I' for Inactive)
REMARK    1  A    between atoms: C_2  and  O_3
REMARK    2  A    between atoms: C_2  and  C_4
REMARK    3  A    between atoms: C_9  and  C_10
REMARK    4  A    between atoms: C_10  and  C_11
REMARK    5  A    between atoms: C_11  and  C_12
REMARK    6  A    between atoms: C_12  and  C_13
REMARK    7  A    between atoms: C_14  and  C_15
REMARK    8  A    between atoms: C_20  and  C_21
REMARK    9  A    between atoms: C_21  and  C_22
REMARK                            x       y       z     vdW  Elec       q    Type
REMARK                         _______ _______ _______ _____ _____    ______ ____
ROOT
ATOM      1  C   UNL     1       1.768   8.538  19.093  0.00  0.00    +0.000 C 
ATOM      2  C   UNL     1       1.222   9.018  20.055  0.00  0.00    +0.000 C 
ENDROOT
BRANCH   2   3
ATOM      3  C   UNL     1       0.450   9.658  21.080  0.00  0.00    +0.000 A 
ATOM      4  C   UNL     1       0.434   9.064  22.351  0.00  0.00    +0.000 A 
ATOM      5  C   UNL     1      -0.331   9.609  23.384  0.00  0.00    +0.000 A 
ATOM      6  C   UNL     1      -1.088  10.751  23.156  0.00  0.00    +0.000 A 
ATOM      7  C   UNL     1      -1.080  11.350  21.895  0.00  0.00    +0.000 A 
ATOM      8  C   UNL     1      -0.312  10.820  20.839  0.00  0.00    +0.000 A 
BRANCH   8   9
ATOM      9  C   UNL     1      -0.325  11.550  19.510  0.00  0.00    +0.000 C 
BRANCH   9  10
ATOM     10  C   UNL     1      -1.424  11.171  18.539  0.00  0.00    +0.000 A 
ATOM     11  C   UNL     1      -1.233  10.155  17.589  0.00  0.00    +0.000 A 
ATOM     12  C   UNL     1      -2.284   9.750  16.759  0.00  0.00    +0.000 A 
ATOM     13  C   UNL     1      -3.533  10.357  16.861  0.00  0.00    +0.000 A 
ATOM     14  C   UNL     1      -3.731  11.378  17.786  0.00  0.00    +0.000 A 
ATOM     15  C   UNL     1      -2.683  11.781  18.618  0.00  0.00    +0.000 A 
ENDBRANCH   9  10
ENDBRANCH   8   9
ENDBRANCH   2   3
BRANCH   1  16
ATOM     16  C   UNL     1       2.251   8.165  17.759  0.00  0.00    +0.000 C 
BRANCH  16  17
ATOM     17  C   UNL     1       3.392   7.157  17.689  0.00  0.00    +0.000 C 
BRANCH  17  18
ATOM     18  C   UNL     1       3.523   6.246  18.917  0.00  0.00    +0.000 C 
BRANCH  18  24
ATOM     19  C   UNL     1       2.896   3.844  18.218  0.00  0.00    +0.000 C 
ATOM     20  C   UNL     1       1.760   2.805  18.270  0.00  0.00    +0.000 C 
ATOM     21  N   UNL     1       1.297   2.506  19.629  0.00  0.00    +0.000 NA
ATOM     22  C   UNL     1       0.875   3.710  20.337  0.00  0.00    +0.000 C 
ATOM     23  C   UNL     1       1.959   4.789  20.367  0.00  0.00    +0.000 C 
ATOM     24  C   UNL     1       2.451   5.132  18.946  0.00  0.00    +0.000 C 
ATOM     25  H   UNL     1       2.086   2.088  20.140  0.00  0.00    +0.000 HD
BRANCH  19  27
ATOM     26  O   UNL     1       4.246   2.573  19.805  0.00  0.00    +0.000 OA
ATOM     27  C   UNL     1       4.177   3.230  18.777  0.00  0.00    +0.000 C 
BRANCH  27  28
ATOM     28  O   UNL     1       5.275   3.488  18.030  0.00  0.00    +0.000 OA
ATOM     29  H   UNL     1       5.401   4.424  17.791  0.00  0.00    +0.000 HD
ENDBRANCH  27  28
ENDBRANCH  19  27
ENDBRANCH  18  24
ENDBRANCH  17  18
ENDBRANCH  16  17
ENDBRANCH   1  16
TORSDOF 9
ENDMDL
MODEL 5
REMARK VINA RESULT:      -8.3      4.248      8.667
REMARK  Name = 
REMARK  9 active torsions:
REMARK  status: ('A' for Active; 'I' for Inactive)
REMARK    1  A    between atoms: C_2  and  O_3
REMARK    2  A    between atoms: C_2  and  C_4
REMARK    3  A    between atoms: C_9  and  C_10
REMARK    4  A    between atoms: C_10  and  C_11
REMARK    5  A    between atoms: C_11  and  C_12
REMARK    6  A    between atoms: C_12  and  C_13
REMARK    7  A    between atoms: C_14  and  C_15
REMARK    8  A    between atoms: C_20  and  C_21
REMARK    9  A    between atoms: C_21  and  C_22
REMARK                            x       y       z     vdW  Elec       q    Type
REMARK                         _______ _______ _______ _____ _____    ______ ____
ROOT
ATOM      1  C   UNL     1       2.331   7.824  18.643  0.00  0.00    +0.000 C 
ATOM      2  C   UNL     1       2.435   6.751  19.185  0.00  0.00    +0.000 C 
ENDROOT
BRANCH   2   3
ATOM      3  C   UNL     1       2.555   5.403  19.658  0.00  0.00    +0.000 A 
ATOM      4  C   UNL     1       1.799   5.036  20.782  0.00  0.00    +0.000 A 
ATOM      5  C   UNL     1       1.900   3.754  21.323  0.00  0.00    +0.000 A 
ATOM      6  C   UNL     1       2.758   2.825  20.747  0.00  0.00    +0.000 A 
ATOM      7  C   UNL     1       3.515   3.179  19.629  0.00  0.00    +0.000 A 
ATOM      8  C   UNL     1       3.426   4.467  19.063  0.00  0.00    +0.000 A 
BRANCH   8   9
ATOM      9  C   UNL     1       4.251   4.762  17.825  0.00  0.00    +0.000 C 
BRANCH   9  10
ATOM     10  C   UNL     1       5.516   5.570  18.031  0.00  0.00    +0.000 A 
ATOM     11  C   UNL     1       6.438   5.230  19.033  0.00  0.00    +0.000 A 
ATOM     12  C   UNL     1       7.646   5.925  19.156  0.00  0.00    +0.000 A 
ATOM     13  C   UNL     1       7.944   6.972  18.287  0.00  0.00    +0.000 A 
ATOM     14  C   UNL     1       7.030   7.332  17.301  0.00  0.00    +0.000 A 
ATOM     15  C   UNL     1       5.826   6.635  17.175  0.00  0.00    +0.000 A 
ENDBRANCH   9  10
ENDBRANCH   8   9
ENDBRANCH   2   3
BRANCH   1  16
ATOM     16  C   UNL     1       2.117   8.952  17.731  0.00  0.00    +0.000 C 
BRANCH  16  17
ATOM     17  C   UNL     1       1.395  10.172  18.290  0.00  0.00    +0.000 C 
BRANCH  17  18
ATOM     18  C   UNL     1       0.352   9.863  19.372  0.00  0.00    +0.000 C 
BRANCH  18  24
ATOM     19  C   UNL     1      -1.499  11.659  19.379  0.00  0.00    +0.000 C 
ATOM     20  C   UNL     1      -2.948  11.932  18.933  0.00  0.00    +0.000 C 
ATOM     21  N   UNL     1      -3.167  11.744  17.495  0.00  0.00    +0.000 NA
ATOM     22  C   UNL     1      -2.778  10.408  17.056  0.00  0.00    +0.000 C 
ATOM     23  C   UNL     1      -1.334  10.061  17.426  0.00  0.00    +0.000 C 
ATOM     24  C   UNL     1      -1.083  10.237  18.938  0.00  0.00    +0.000 C 
ATOM     25  H   UNL     1      -2.584  12.432  17.001  0.00  0.00    +0.000 HD
BRANCH  19  27
ATOM     26  O   UNL     1       0.306  13.297  19.495  0.00  0.00    +0.000 OA
ATOM     27  C   UNL     1      -0.584  12.761  18.852  0.00  0.00    +0.000 C 
BRANCH  27  28
ATOM     28  O   UNL     1      -0.850  13.125  17.577  0.00  0.00    +0.000 OA
ATOM     29  H   UNL     1      -0.146  13.636  17.138  0.00  0.00    +0.000 HD
ENDBRANCH  27  28
ENDBRANCH  19  27
ENDBRANCH  18  24
ENDBRANCH  17  18
ENDBRANCH  16  17
ENDBRANCH   1  16
TORSDOF 9
ENDMDL
MODEL 6
REMARK VINA RESULT:      -8.2      0.881      1.032
REMARK  Name = 
REMARK  9 active torsions:
REMARK  status: ('A' for Active; 'I' for Inactive)
REMARK    1  A    between atoms: C_2  and  O_3
REMARK    2  A    between atoms: C_2  and  C_4
REMARK    3  A    between atoms: C_9  and  C_10
REMARK    4  A    between atoms: C_10  and  C_11
REMARK    5  A    between atoms: C_11  and  C_12
REMARK    6  A    between atoms: C_12  and  C_13
REMARK    7  A    between atoms: C_14  and  C_15
REMARK    8  A    between atoms: C_20  and  C_21
REMARK    9  A    between atoms: C_21  and  C_22
REMARK                            x       y       z     vdW  Elec       q    Type
REMARK                         _______ _______ _______ _____ _____    ______ ____
ROOT
ATOM      1  C   UNL     1       1.891   8.395  18.760  0.00  0.00    +0.000 C 
ATOM      2  C   UNL     1       1.211   8.874  19.633  0.00  0.00    +0.000 C 
ENDROOT
BRANCH   2   3
ATOM      3  C   UNL     1       0.560   9.499  20.748  0.00  0.00    +0.000 A 
ATOM      4  C   UNL     1       0.688   8.887  22.005  0.00  0.00    +0.000 A 
ATOM      5  C   UNL     1       0.046   9.417  23.125  0.00  0.00    +0.000 A 
ATOM      6  C   UNL     1      -0.732  10.562  23.000  0.00  0.00    +0.000 A 
ATOM      7  C   UNL     1      -0.866  11.178  21.755  0.00  0.00    +0.000 A 
ATOM      8  C   UNL     1      -0.223  10.664  20.611  0.00  0.00    +0.000 A 
BRANCH   8   9
ATOM      9  C   UNL     1      -0.386  11.413  19.302  0.00  0.00    +0.000 C 
BRANCH   9  10
ATOM     10  C   UNL     1      -1.610  11.074  18.476  0.00  0.00    +0.000 A 
ATOM     11  C   UNL     1      -2.819  11.763  18.657  0.00  0.00    +0.000 A 
ATOM     12  C   UNL     1      -3.916  11.506  17.828  0.00  0.00    +0.000 A 
ATOM     13  C   UNL     1      -3.823  10.554  16.815  0.00  0.00    +0.000 A 
ATOM     14  C   UNL     1      -2.635   9.851  16.637  0.00  0.00    +0.000 A 
ATOM     15  C   UNL     1      -1.538  10.110  17.462  0.00  0.00    +0.000 A 
ENDBRANCH   9  10
ENDBRANCH   8   9
ENDBRANCH   2   3
BRANCH   1  16
ATOM     16  C   UNL     1       2.957   7.853  17.911  0.00  0.00    +0.000 C 
BRANCH  16  17
ATOM     17  C   UNL     1       3.556   6.512  18.316  0.00  0.00    +0.000 C 
BRANCH  17  18
ATOM     18  C   UNL     1       2.913   5.291  17.645  0.00  0.00    +0.000 C 
BRANCH  18  24
ATOM     19  C   UNL     1       2.368   2.912  18.477  0.00  0.00    +0.000 C 
ATOM     20  C   UNL     1       1.500   2.129  19.480  0.00  0.00    +0.000 C 
ATOM     21  N   UNL     1       1.685   2.549  20.873  0.00  0.00    +0.000 NA
ATOM     22  C   UNL     1       1.443   3.978  21.047  0.00  0.00    +0.000 C 
ATOM     23  C   UNL     1       2.293   4.840  20.112  0.00  0.00    +0.000 C 
ATOM     24  C   UNL     1       2.104   4.426  18.638  0.00  0.00    +0.000 C 
ATOM     25  H   UNL     1       2.661   2.351  21.129  0.00  0.00    +0.000 HD
BRANCH  19  27
ATOM     26  O   UNL     1       4.387   2.350  19.728  0.00  0.00    +0.000 OA
ATOM     27  C   UNL     1       3.832   2.519  18.652  0.00  0.00    +0.000 C 
BRANCH  27  28
ATOM     28  O   UNL     1       4.502   2.381  17.485  0.00  0.00    +0.000 OA
ATOM     29  H   UNL     1       4.895   1.502  17.337  0.00  0.00    +0.000 HD
ENDBRANCH  27  28
ENDBRANCH  19  27
ENDBRANCH  18  24
ENDBRANCH  17  18
ENDBRANCH  16  17
ENDBRANCH   1  16
TORSDOF 9
ENDMDL
MODEL 7
REMARK VINA RESULT:      -8.1      1.562      2.728
REMARK  Name = 
REMARK  9 active torsions:
REMARK  status: ('A' for Active; 'I' for Inactive)
REMARK    1  A    between atoms: C_2  and  O_3
REMARK    2  A    between atoms: C_2  and  C_4
REMARK    3  A    between atoms: C_9  and  C_10
REMARK    4  A    between atoms: C_10  and  C_11
REMARK    5  A    between atoms: C_11  and  C_12
REMARK    6  A    between atoms: C_12  and  C_13
REMARK    7  A    between atoms: C_14  and  C_15
REMARK    8  A    between atoms: C_20  and  C_21
REMARK    9  A    between atoms: C_21  and  C_22
REMARK                            x       y       z     vdW  Elec       q    Type
REMARK                         _______ _______ _______ _____ _____    ______ ____
ROOT
ATOM      1  C   UNL     1       1.866   8.421  19.057  0.00  0.00    +0.000 C 
ATOM      2  C   UNL     1       1.229   8.889  19.968  0.00  0.00    +0.000 C 
ENDROOT
BRANCH   2   3
ATOM      3  C   UNL     1       0.475   9.604  20.957  0.00  0.00    +0.000 A 
ATOM      4  C   UNL     1       0.474   9.100  22.266  0.00  0.00    +0.000 A 
ATOM      5  C   UNL     1      -0.272   9.721  23.269  0.00  0.00    +0.000 A 
ATOM      6  C   UNL     1      -1.025  10.850  22.973  0.00  0.00    +0.000 A 
ATOM      7  C   UNL     1      -1.032  11.360  21.673  0.00  0.00    +0.000 A 
ATOM      8  C   UNL     1      -0.283  10.752  20.646  0.00  0.00    +0.000 A 
BRANCH   8   9
ATOM      9  C   UNL     1      -0.310  11.388  19.270  0.00  0.00    +0.000 C 
BRANCH   9  10
ATOM     10  C   UNL     1       0.671  12.517  19.026  0.00  0.00    +0.000 A 
ATOM     11  C   UNL     1       1.976  12.259  18.578  0.00  0.00    +0.000 A 
ATOM     12  C   UNL     1       2.844  13.311  18.269  0.00  0.00    +0.000 A 
ATOM     13  C   UNL     1       2.425  14.632  18.411  0.00  0.00    +0.000 A 
ATOM     14  C   UNL     1       1.140  14.902  18.872  0.00  0.00    +0.000 A 
ATOM     15  C   UNL     1       0.271  13.851  19.177  0.00  0.00    +0.000 A 
ENDBRANCH   9  10
ENDBRANCH   8   9
ENDBRANCH   2   3
BRANCH   1  16
ATOM     16  C   UNL     1       2.696   8.161  17.876  0.00  0.00    +0.000 C 
BRANCH  16  17
ATOM     17  C   UNL     1       3.441   6.833  17.828  0.00  0.00    +0.000 C 
BRANCH  17  18
ATOM     18  C   UNL     1       3.170   5.899  19.015  0.00  0.00    +0.000 C 
BRANCH  18  24
ATOM     19  C   UNL     1       3.420   3.476  18.167  0.00  0.00    +0.000 C 
ATOM     20  C   UNL     1       2.615   2.236  17.736  0.00  0.00    +0.000 C 
ATOM     21  N   UNL     1       1.678   1.757  18.758  0.00  0.00    +0.000 NA
ATOM     22  C   UNL     1       0.752   2.803  19.179  0.00  0.00    +0.000 C 
ATOM     23  C   UNL     1       1.466   4.068  19.659  0.00  0.00    +0.000 C 
ATOM     24  C   UNL     1       2.448   4.599  18.594  0.00  0.00    +0.000 C 
ATOM     25  H   UNL     1       2.232   1.466  19.574  0.00  0.00    +0.000 HD
BRANCH  19  27
ATOM     26  O   UNL     1       4.167   2.395  20.223  0.00  0.00    +0.000 OA
ATOM     27  C   UNL     1       4.424   3.085  19.248  0.00  0.00    +0.000 C 
BRANCH  27  28
ATOM     28  O   UNL     1       5.663   3.589  19.047  0.00  0.00    +0.000 OA
ATOM     29  H   UNL     1       6.256   3.028  18.516  0.00  0.00    +0.000 HD
ENDBRANCH  27  28
ENDBRANCH  19  27
ENDBRANCH  18  24
ENDBRANCH  17  18
ENDBRANCH  16  17
ENDBRANCH   1  16
TORSDOF 9
ENDMDL
MODEL 8
REMARK VINA RESULT:      -8.1      4.154      8.820
REMARK  Name = 
REMARK  9 active torsions:
REMARK  status: ('A' for Active; 'I' for Inactive)
REMARK    1  A    between atoms: C_2  and  O_3
REMARK    2  A    between atoms: C_2  and  C_4
REMARK    3  A    between atoms: C_9  and  C_10
REMARK    4  A    between atoms: C_10  and  C_11
REMARK    5  A    between atoms: C_11  and  C_12
REMARK    6  A    between atoms: C_12  and  C_13
REMARK    7  A    between atoms: C_14  and  C_15
REMARK    8  A    between atoms: C_20  and  C_21
REMARK    9  A    between atoms: C_21  and  C_22
REMARK                            x       y       z     vdW  Elec       q    Type
REMARK                         _______ _______ _______ _____ _____    ______ ____
ROOT
ATOM      1  C   UNL     1       2.470   7.412  18.405  0.00  0.00    +0.000 C 
ATOM      2  C   UNL     1       2.376   6.303  18.869  0.00  0.00    +0.000 C 
ENDROOT
BRANCH   2   3
ATOM      3  C   UNL     1       2.136   4.953  19.291  0.00  0.00    +0.000 A 
ATOM      4  C   UNL     1       1.543   4.758  20.548  0.00  0.00    +0.000 A 
ATOM      5  C   UNL     1       1.320   3.472  21.040  0.00  0.00    +0.000 A 
ATOM      6  C   UNL     1       1.689   2.367  20.282  0.00  0.00    +0.000 A 
ATOM      7  C   UNL     1       2.280   2.549  19.030  0.00  0.00    +0.000 A 
ATOM      8  C   UNL     1       2.511   3.839  18.511  0.00  0.00    +0.000 A 
BRANCH   8   9
ATOM      9  C   UNL     1       3.121   3.954  17.128  0.00  0.00    +0.000 C 
BRANCH   9  10
ATOM     10  C   UNL     1       4.624   4.134  17.063  0.00  0.00    +0.000 A 
ATOM     11  C   UNL     1       5.307   4.093  15.838  0.00  0.00    +0.000 A 
ATOM     12  C   UNL     1       6.680   4.351  15.779  0.00  0.00    +0.000 A 
ATOM     13  C   UNL     1       7.390   4.645  16.941  0.00  0.00    +0.000 A 
ATOM     14  C   UNL     1       6.728   4.671  18.165  0.00  0.00    +0.000 A 
ATOM     15  C   UNL     1       5.355   4.417  18.224  0.00  0.00    +0.000 A 
ENDBRANCH   9  10
ENDBRANCH   8   9
ENDBRANCH   2   3
BRANCH   1  16
ATOM     16  C   UNL     1       2.304   8.688  17.701  0.00  0.00    +0.000 C 
BRANCH  16  17
ATOM     17  C   UNL     1       1.130   9.565  18.117  0.00  0.00    +0.000 C 
BRANCH  17  18
ATOM     18  C   UNL     1       1.511  10.985  18.555  0.00  0.00    +0.000 C 
BRANCH  18  24
ATOM     19  C   UNL     1      -0.237  12.553  19.621  0.00  0.00    +0.000 C 
ATOM     20  C   UNL     1      -0.881  12.943  20.965  0.00  0.00    +0.000 C 
ATOM     21  N   UNL     1      -1.495  11.815  21.673  0.00  0.00    +0.000 NA
ATOM     22  C   UNL     1      -0.543  10.731  21.898  0.00  0.00    +0.000 C 
ATOM     23  C   UNL     1       0.123  10.252  20.606  0.00  0.00    +0.000 C 
ATOM     24  C   UNL     1       0.789  11.420  19.850  0.00  0.00    +0.000 C 
ATOM     25  H   UNL     1      -2.260  11.459  21.085  0.00  0.00    +0.000 HD
BRANCH  19  27
ATOM     26  O   UNL     1      -2.290  11.486  18.845  0.00  0.00    +0.000 OA
ATOM     27  C   UNL     1      -1.328  12.203  18.613  0.00  0.00    +0.000 C 
BRANCH  27  28
ATOM     28  O   UNL     1      -1.137  12.751  17.392  0.00  0.00    +0.000 OA
ATOM     29  H   UNL     1      -0.618  13.576  17.386  0.00  0.00    +0.000 HD
ENDBRANCH  27  28
ENDBRANCH  19  27
ENDBRANCH  18  24
ENDBRANCH  17  18
ENDBRANCH  16  17
ENDBRANCH   1  16
TORSDOF 9
ENDMDL
MODEL 9
REMARK VINA RESULT:      -8.1      1.191      1.829
REMARK  Name = 
REMARK  9 active torsions:
REMARK  status: ('A' for Active; 'I' for Inactive)
REMARK    1  A    between atoms: C_2  and  O_3
REMARK    2  A    between atoms: C_2  and  C_4
REMARK    3  A    between atoms: C_9  and  C_10
REMARK    4  A    between atoms: C_10  and  C_11
REMARK    5  A    between atoms: C_11  and  C_12
REMARK    6  A    between atoms: C_12  and  C_13
REMARK    7  A    between atoms: C_14  and  C_15
REMARK    8  A    between atoms: C_20  and  C_21
REMARK    9  A    between atoms: C_21  and  C_22
REMARK                            x       y       z     vdW  Elec       q    Type
REMARK                         _______ _______ _______ _____ _____    ______ ____
ROOT
ATOM      1  C   UNL     1       1.919   8.144  18.926  0.00  0.00    +0.000 C 
ATOM      2  C   UNL     1       1.262   8.658  19.797  0.00  0.00    +0.000 C 
ENDROOT
BRANCH   2   3
ATOM      3  C   UNL     1       0.616   9.396  20.843  0.00  0.00    +0.000 A 
ATOM      4  C   UNL     1       0.638   8.851  22.136  0.00  0.00    +0.000 A 
ATOM      5  C   UNL     1      -0.007   9.494  23.193  0.00  0.00    +0.000 A 
ATOM      6  C   UNL     1      -0.684  10.686  22.968  0.00  0.00    +0.000 A 
ATOM      7  C   UNL     1      -0.714  11.238  21.686  0.00  0.00    +0.000 A 
ATOM      8  C   UNL     1      -0.065  10.609  20.605  0.00  0.00    +0.000 A 
BRANCH   8   9
ATOM      9  C   UNL     1      -0.109  11.290  19.251  0.00  0.00    +0.000 C 
BRANCH   9  10
ATOM     10  C   UNL     1      -1.336  11.029  18.401  0.00  0.00    +0.000 A 
ATOM     11  C   UNL     1      -1.352   9.997  17.450  0.00  0.00    +0.000 A 
ATOM     12  C   UNL     1      -2.519   9.704  16.735  0.00  0.00    +0.000 A 
ATOM     13  C   UNL     1      -3.679  10.443  16.955  0.00  0.00    +0.000 A 
ATOM     14  C   UNL     1      -3.671  11.481  17.882  0.00  0.00    +0.000 A 
ATOM     15  C   UNL     1      -2.508  11.770  18.598  0.00  0.00    +0.000 A 
ENDBRANCH   9  10
ENDBRANCH   8   9
ENDBRANCH   2   3
BRANCH   1  16
ATOM     16  C   UNL     1       2.953   7.704  17.984  0.00  0.00    +0.000 C 
BRANCH  16  17
ATOM     17  C   UNL     1       3.381   6.243  18.053  0.00  0.00    +0.000 C 
BRANCH  17  18
ATOM     18  C   UNL     1       2.236   5.230  17.927  0.00  0.00    +0.000 C 
BRANCH  18  24
ATOM     19  C   UNL     1       1.503   3.112  19.204  0.00  0.00    +0.000 C 
ATOM     20  C   UNL     1       1.080   2.599  20.593  0.00  0.00    +0.000 C 
ATOM     21  N   UNL     1       2.069   2.863  21.644  0.00  0.00    +0.000 NA
ATOM     22  C   UNL     1       2.396   4.282  21.740  0.00  0.00    +0.000 C 
ATOM     23  C   UNL     1       2.862   4.873  20.407  0.00  0.00    +0.000 C 
ATOM     24  C   UNL     1       1.830   4.621  19.288  0.00  0.00    +0.000 C 
ATOM     25  H   UNL     1       2.925   2.348  21.400  0.00  0.00    +0.000 HD
BRANCH  19  27
ATOM     26  O   UNL     1       3.675   2.004  19.287  0.00  0.00    +0.000 OA
ATOM     27  C   UNL     1       2.651   2.260  18.671  0.00  0.00    +0.000 C 
BRANCH  27  28
ATOM     28  O   UNL     1       2.453   1.805  17.413  0.00  0.00    +0.000 OA
ATOM     29  H   UNL     1       3.065   1.104  17.126  0.00  0.00    +0.000 HD
ENDBRANCH  27  28
ENDBRANCH  19  27
ENDBRANCH  18  24
ENDBRANCH  17  18
ENDBRANCH  16  17
ENDBRANCH   1  16
TORSDOF 9
ENDMDL
