MODEL 1
REMARK VINA RESULT:      -8.4      0.000      0.000
REMARK  Name = 
REMARK  3 active torsions:
REMARK  status: ('A' for Active; 'I' for Inactive)
REMARK    1  A    between atoms: C_1  and  C_2
REMARK    2  A    between atoms: C_3  and  C_4
REMARK    3  A    between atoms: C_12  and  C_13
REMARK                            x       y       z     vdW  Elec       q    Type
REMARK                         _______ _______ _______ _____ _____    ______ ____
ROOT
ATOM      1  C   UNL     1      -0.031   9.503  22.519  0.00  0.00    +0.000 C 
ATOM      2  C   UNL     1       0.204  10.285  21.250  0.00  0.00    +0.000 C 
ATOM      3  C   UNL     1      -0.247  11.524  20.944  0.00  0.00    +0.000 C 
ATOM      4  C   UNL     1       0.228  12.191  19.655  0.00  0.00    +0.000 C 
ATOM      5  N   UNL     1       0.938  11.314  18.682  0.00  0.00    +0.000 NA
ATOM      6  C   UNL     1       1.283  10.136  19.087  0.00  0.00    +0.000 C 
ATOM      7  N   UNL     1       1.995   9.332  18.252  0.00  0.00    +0.000 N 
ATOM      8  C   UNL     1       2.462   8.090  18.450  0.00  0.00    +0.000 A 
ATOM      9  N   UNL     1       2.307   7.296  19.494  0.00  0.00    +0.000 NA
ATOM     10  C   UNL     1       2.992   6.160  19.137  0.00  0.00    +0.000 A 
ATOM     11  C   UNL     1       3.190   4.952  19.817  0.00  0.00    +0.000 A 
ATOM     12  C   UNL     1       3.955   3.958  19.185  0.00  0.00    +0.000 A 
ATOM     13  C   UNL     1       4.508   4.167  17.915  0.00  0.00    +0.000 A 
ATOM     14  C   UNL     1       4.316   5.369  17.224  0.00  0.00    +0.000 A 
ATOM     15  C   UNL     1       3.551   6.325  17.882  0.00  0.00    +0.000 A 
ATOM     16  O   UNL     1       3.208   7.564  17.433  0.00  0.00    +0.000 OA
ATOM     17  N   UNL     1       0.991   9.640  20.320  0.00  0.00    +0.000 N 
ATOM     18  H   UNL     1       2.216   9.768  17.366  0.00  0.00    +0.000 HD
ATOM     19  H   UNL     1       1.312   8.698  20.541  0.00  0.00    +0.000 HD
ENDROOT
BRANCH   3  20
ATOM     20  C   UNL     1      -1.067  12.328  21.912  0.00  0.00    +0.000 C 
ATOM     21  O   UNL     1      -0.495  12.998  22.770  0.00  0.00    +0.000 OA
ATOM     22  N   UNL     1      -2.429  12.239  21.750  0.00  0.00    +0.000 N 
ATOM     23  C   UNL     1      -3.378  12.852  22.546  0.00  0.00    +0.000 A 
ATOM     24  N   UNL     1      -4.665  12.600  22.425  0.00  0.00    +0.000 NA
ATOM     25  N   UNL     1      -5.421  13.275  23.372  0.00  0.00    +0.000 NA
ATOM     26  C   UNL     1      -4.669  14.030  24.140  0.00  0.00    +0.000 A 
ATOM     27  S   UNL     1      -3.003  13.990  23.760  0.00  0.00    +0.000 S 
ATOM     28  H   UNL     1      -2.842  11.630  21.059  0.00  0.00    +0.000 HD
ENDBRANCH   3  20
BRANCH   4  29
ATOM     29  C   UNL     1       1.137  13.379  19.964  0.00  0.00    +0.000 A 
ATOM     30  C   UNL     1       2.321  13.143  20.700  0.00  0.00    +0.000 A 
ATOM     31  C   UNL     1       3.184  14.183  21.032  0.00  0.00    +0.000 A 
ATOM     32 CL   UNL     1       4.605  13.859  21.941  0.00  0.00    +0.000 Cl
ATOM     33  C   UNL     1       2.895  15.482  20.628  0.00  0.00    +0.000 A 
ATOM     34  C   UNL     1       1.743  15.734  19.880  0.00  0.00    +0.000 A 
ATOM     35  C   UNL     1       0.868  14.691  19.547  0.00  0.00    +0.000 A 
ATOM     36 CL   UNL     1      -0.527  15.099  18.616  0.00  0.00    +0.000 Cl
ENDBRANCH   4  29
TORSDOF 2
ENDMDL
MODEL 2
REMARK VINA RESULT:      -8.2      1.401      1.503
REMARK  Name = 
REMARK  3 active torsions:
REMARK  status: ('A' for Active; 'I' for Inactive)
REMARK    1  A    between atoms: C_1  and  C_2
REMARK    2  A    between atoms: C_3  and  C_4
REMARK    3  A    between atoms: C_12  and  C_13
REMARK                            x       y       z     vdW  Elec       q    Type
REMARK                         _______ _______ _______ _____ _____    ______ ____
ROOT
ATOM      1  C   UNL     1      -0.413   9.634  22.251  0.00  0.00    +0.000 C 
ATOM      2  C   UNL     1      -0.047  10.444  21.032  0.00  0.00    +0.000 C 
ATOM      3  C   UNL     1      -0.450  11.697  20.718  0.00  0.00    +0.000 C 
ATOM      4  C   UNL     1       0.156  12.390  19.500  0.00  0.00    +0.000 C 
ATOM      5  N   UNL     1       0.945  11.528  18.576  0.00  0.00    +0.000 NA
ATOM      6  C   UNL     1       1.235  10.334  18.980  0.00  0.00    +0.000 C 
ATOM      7  N   UNL     1       2.013   9.541  18.196  0.00  0.00    +0.000 N 
ATOM      8  C   UNL     1       2.442   8.288  18.404  0.00  0.00    +0.000 A 
ATOM      9  N   UNL     1       2.177   7.470  19.406  0.00  0.00    +0.000 NA
ATOM     10  C   UNL     1       2.879   6.333  19.086  0.00  0.00    +0.000 A 
ATOM     11  C   UNL     1       2.994   5.104  19.749  0.00  0.00    +0.000 A 
ATOM     12  C   UNL     1       3.804   4.115  19.167  0.00  0.00    +0.000 A 
ATOM     13  C   UNL     1       4.480   4.348  17.962  0.00  0.00    +0.000 A 
ATOM     14  C   UNL     1       4.370   5.571  17.289  0.00  0.00    +0.000 A 
ATOM     15  C   UNL     1       3.558   6.521  17.895  0.00  0.00    +0.000 A 
ATOM     16  O   UNL     1       3.277   7.777  17.449  0.00  0.00    +0.000 OA
ATOM     17  N   UNL     1       0.818   9.812  20.165  0.00  0.00    +0.000 N 
ATOM     18  H   UNL     1       2.324   9.997  17.348  0.00  0.00    +0.000 HD
ATOM     19  H   UNL     1       1.104   8.859  20.391  0.00  0.00    +0.000 HD
ENDROOT
BRANCH   3  20
ATOM     20  C   UNL     1      -1.348  12.489  21.624  0.00  0.00    +0.000 C 
ATOM     21  O   UNL     1      -2.564  12.449  21.448  0.00  0.00    +0.000 OA
ATOM     22  N   UNL     1      -0.711  13.217  22.601  0.00  0.00    +0.000 N 
ATOM     23  C   UNL     1      -1.324  14.051  23.516  0.00  0.00    +0.000 A 
ATOM     24  N   UNL     1      -0.638  14.833  24.323  0.00  0.00    +0.000 NA
ATOM     25  N   UNL     1      -1.462  15.630  25.105  0.00  0.00    +0.000 NA
ATOM     26  C   UNL     1      -2.732  15.384  24.871  0.00  0.00    +0.000 A 
ATOM     27  S   UNL     1      -3.015  14.165  23.708  0.00  0.00    +0.000 S 
ATOM     28  H   UNL     1       0.297  13.252  22.662  0.00  0.00    +0.000 HD
ENDBRANCH   3  20
BRANCH   4  29
ATOM     29  C   UNL     1       1.047  13.556  19.926  0.00  0.00    +0.000 A 
ATOM     30  C   UNL     1       2.232  13.266  20.640  0.00  0.00    +0.000 A 
ATOM     31  C   UNL     1       3.079  14.282  21.076  0.00  0.00    +0.000 A 
ATOM     32 CL   UNL     1       4.502  13.890  21.954  0.00  0.00    +0.000 Cl
ATOM     33  C   UNL     1       2.772  15.609  20.800  0.00  0.00    +0.000 A 
ATOM     34  C   UNL     1       1.618  15.916  20.076  0.00  0.00    +0.000 A 
ATOM     35  C   UNL     1       0.759  14.898  19.639  0.00  0.00    +0.000 A 
ATOM     36 CL   UNL     1      -0.640  15.375  18.748  0.00  0.00    +0.000 Cl
ENDBRANCH   4  29
TORSDOF 2
ENDMDL
MODEL 3
REMARK VINA RESULT:      -8.2      3.098      5.127
REMARK  Name = 
REMARK  3 active torsions:
REMARK  status: ('A' for Active; 'I' for Inactive)
REMARK    1  A    between atoms: C_1  and  C_2
REMARK    2  A    between atoms: C_3  and  C_4
REMARK    3  A    between atoms: C_12  and  C_13
REMARK                            x       y       z     vdW  Elec       q    Type
REMARK                         _______ _______ _______ _____ _____    ______ ____
ROOT
ATOM      1  C   UNL     1       2.213  11.830  17.825  0.00  0.00    +0.000 C 
ATOM      2  C   UNL     1       1.294  11.557  18.990  0.00  0.00    +0.000 C 
ATOM      3  C   UNL     1       0.483  12.431  19.629  0.00  0.00    +0.000 C 
ATOM      4  C   UNL     1      -0.476  11.912  20.698  0.00  0.00    +0.000 C 
ATOM      5  N   UNL     1      -0.252  10.514  21.161  0.00  0.00    +0.000 NA
ATOM      6  C   UNL     1       0.578   9.790  20.484  0.00  0.00    +0.000 C 
ATOM      7  N   UNL     1       0.757   8.488  20.833  0.00  0.00    +0.000 N 
ATOM      8  C   UNL     1       1.549   7.555  20.285  0.00  0.00    +0.000 A 
ATOM      9  N   UNL     1       2.409   7.670  19.289  0.00  0.00    +0.000 NA
ATOM     10  C   UNL     1       2.931   6.405  19.168  0.00  0.00    +0.000 A 
ATOM     11  C   UNL     1       3.899   5.887  18.298  0.00  0.00    +0.000 A 
ATOM     12  C   UNL     1       4.228   4.526  18.414  0.00  0.00    +0.000 A 
ATOM     13  C   UNL     1       3.607   3.709  19.368  0.00  0.00    +0.000 A 
ATOM     14  C   UNL     1       2.640   4.216  20.245  0.00  0.00    +0.000 A 
ATOM     15  C   UNL     1       2.345   5.566  20.100  0.00  0.00    +0.000 A 
ATOM     16  O   UNL     1       1.458   6.303  20.825  0.00  0.00    +0.000 OA
ATOM     17  N   UNL     1       1.288  10.246  19.417  0.00  0.00    +0.000 N 
ATOM     18  H   UNL     1       0.174   8.196  21.607  0.00  0.00    +0.000 HD
ATOM     19  H   UNL     1       1.916   9.592  18.950  0.00  0.00    +0.000 HD
ENDROOT
BRANCH   3  20
ATOM     20  C   UNL     1       0.378  13.868  19.204  0.00  0.00    +0.000 C 
ATOM     21  O   UNL     1      -0.416  14.175  18.317  0.00  0.00    +0.000 OA
ATOM     22  N   UNL     1       1.210  14.742  19.863  0.00  0.00    +0.000 N 
ATOM     23  C   UNL     1       1.320  16.097  19.611  0.00  0.00    +0.000 A 
ATOM     24  N   UNL     1       2.246  16.842  20.177  0.00  0.00    +0.000 NA
ATOM     25  N   UNL     1       2.209  18.153  19.724  0.00  0.00    +0.000 NA
ATOM     26  C   UNL     1       1.234  18.339  18.864  0.00  0.00    +0.000 A 
ATOM     27  S   UNL     1       0.286  16.950  18.556  0.00  0.00    +0.000 S 
ATOM     28  H   UNL     1       1.880  14.422  20.547  0.00  0.00    +0.000 HD
ENDBRANCH   3  20
BRANCH   4  29
ATOM     29  C   UNL     1      -1.925  12.021  20.225  0.00  0.00    +0.000 A 
ATOM     30  C   UNL     1      -2.272  11.428  18.989  0.00  0.00    +0.000 A 
ATOM     31  C   UNL     1      -3.570  11.507  18.491  0.00  0.00    +0.000 A 
ATOM     32 CL   UNL     1      -3.949  10.787  16.978  0.00  0.00    +0.000 Cl
ATOM     33  C   UNL     1      -4.555  12.167  19.216  0.00  0.00    +0.000 A 
ATOM     34  C   UNL     1      -4.238  12.740  20.450  0.00  0.00    +0.000 A 
ATOM     35  C   UNL     1      -2.933  12.668  20.955  0.00  0.00    +0.000 A 
ATOM     36 CL   UNL     1      -2.639  13.401  22.490  0.00  0.00    +0.000 Cl
ENDBRANCH   4  29
TORSDOF 2
ENDMDL
MODEL 4
REMARK VINA RESULT:      -8.1      3.138      4.843
REMARK  Name = 
REMARK  3 active torsions:
REMARK  status: ('A' for Active; 'I' for Inactive)
REMARK    1  A    between atoms: C_1  and  C_2
REMARK    2  A    between atoms: C_3  and  C_4
REMARK    3  A    between atoms: C_12  and  C_13
REMARK                            x       y       z     vdW  Elec       q    Type
REMARK                         _______ _______ _______ _____ _____    ______ ____
ROOT
ATOM      1  C   UNL     1       2.782  12.362  17.788  0.00  0.00    +0.000 C 
ATOM      2  C   UNL     1       1.745  11.601  18.576  0.00  0.00    +0.000 C 
ATOM      3  C   UNL     1       0.713  12.105  19.292  0.00  0.00    +0.000 C 
ATOM      4  C   UNL     1      -0.309  11.148  19.900  0.00  0.00    +0.000 C 
ATOM      5  N   UNL     1       0.059   9.704  19.899  0.00  0.00    +0.000 NA
ATOM      6  C   UNL     1       1.092   9.355  19.204  0.00  0.00    +0.000 C 
ATOM      7  N   UNL     1       1.419   8.037  19.121  0.00  0.00    +0.000 N 
ATOM      8  C   UNL     1       2.428   7.445  18.467  0.00  0.00    +0.000 A 
ATOM      9  N   UNL     1       3.406   7.992  17.768  0.00  0.00    +0.000 NA
ATOM     10  C   UNL     1       4.136   6.911  17.337  0.00  0.00    +0.000 A 
ATOM     11  C   UNL     1       5.301   6.835  16.563  0.00  0.00    +0.000 A 
ATOM     12  C   UNL     1       5.821   5.562  16.278  0.00  0.00    +0.000 A 
ATOM     13  C   UNL     1       5.195   4.401  16.749  0.00  0.00    +0.000 A 
ATOM     14  C   UNL     1       4.032   4.463  17.527  0.00  0.00    +0.000 A 
ATOM     15  C   UNL     1       3.552   5.741  17.789  0.00  0.00    +0.000 A 
ATOM     16  O   UNL     1       2.454   6.079  18.520  0.00  0.00    +0.000 OA
ATOM     17  N   UNL     1       1.881  10.230  18.524  0.00  0.00    +0.000 N 
ATOM     18  H   UNL     1       0.774   7.433  19.614  0.00  0.00    +0.000 HD
ATOM     19  H   UNL     1       2.672   9.851  18.004  0.00  0.00    +0.000 HD
ENDROOT
BRANCH   3  20
ATOM     20  C   UNL     1       0.448  13.582  19.364  0.00  0.00    +0.000 C 
ATOM     21  O   UNL     1      -0.156  14.130  18.445  0.00  0.00    +0.000 OA
ATOM     22  N   UNL     1       0.925  14.214  20.489  0.00  0.00    +0.000 N 
ATOM     23  C   UNL     1       0.840  15.568  20.752  0.00  0.00    +0.000 A 
ATOM     24  N   UNL     1       1.452  16.124  21.776  0.00  0.00    +0.000 NA
ATOM     25  N   UNL     1       1.282  17.500  21.802  0.00  0.00    +0.000 NA
ATOM     26  C   UNL     1       0.521  17.911  20.813  0.00  0.00    +0.000 A 
ATOM     27  S   UNL     1      -0.054  16.662  19.797  0.00  0.00    +0.000 S 
ATOM     28  H   UNL     1       1.462  13.719  21.187  0.00  0.00    +0.000 HD
ENDBRANCH   3  20
BRANCH   4  29
ATOM     29  C   UNL     1      -1.662  11.285  19.204  0.00  0.00    +0.000 A 
ATOM     30  C   UNL     1      -1.846  10.632  17.963  0.00  0.00    +0.000 A 
ATOM     31  C   UNL     1      -3.047  10.732  17.266  0.00  0.00    +0.000 A 
ATOM     32 CL   UNL     1      -3.226   9.937  15.754  0.00  0.00    +0.000 Cl
ATOM     33  C   UNL     1      -4.098  11.473  17.795  0.00  0.00    +0.000 A 
ATOM     34  C   UNL     1      -3.945  12.107  19.030  0.00  0.00    +0.000 A 
ATOM     35  C   UNL     1      -2.737  12.014  19.734  0.00  0.00    +0.000 A 
ATOM     36 CL   UNL     1      -2.645  12.827  21.254  0.00  0.00    +0.000 Cl
ENDBRANCH   4  29
TORSDOF 2
ENDMDL
MODEL 5
REMARK VINA RESULT:      -8.0      8.074      9.681
REMARK  Name = 
REMARK  3 active torsions:
REMARK  status: ('A' for Active; 'I' for Inactive)
REMARK    1  A    between atoms: C_1  and  C_2
REMARK    2  A    between atoms: C_3  and  C_4
REMARK    3  A    between atoms: C_12  and  C_13
REMARK                            x       y       z     vdW  Elec       q    Type
REMARK                         _______ _______ _______ _____ _____    ______ ____
ROOT
ATOM      1  C   UNL     1       7.445  12.673  16.883  0.00  0.00    +0.000 C 
ATOM      2  C   UNL     1       8.346  12.212  18.002  0.00  0.00    +0.000 C 
ATOM      3  C   UNL     1       9.145  12.970  18.789  0.00  0.00    +0.000 C 
ATOM      4  C   UNL     1       9.869  12.316  19.963  0.00  0.00    +0.000 C 
ATOM      5  N   UNL     1       9.867  10.826  19.992  0.00  0.00    +0.000 NA
ATOM      6  C   UNL     1       9.084  10.218  19.162  0.00  0.00    +0.000 C 
ATOM      7  N   UNL     1       9.000   8.861  19.206  0.00  0.00    +0.000 N 
ATOM      8  C   UNL     1       8.266   8.024  18.459  0.00  0.00    +0.000 A 
ATOM      9  N   UNL     1       7.465   8.294  17.444  0.00  0.00    +0.000 NA
ATOM     10  C   UNL     1       6.991   7.059  17.072  0.00  0.00    +0.000 A 
ATOM     11  C   UNL     1       6.111   6.679  16.051  0.00  0.00    +0.000 A 
ATOM     12  C   UNL     1       5.806   5.315  15.918  0.00  0.00    +0.000 A 
ATOM     13  C   UNL     1       6.361   4.360  16.780  0.00  0.00    +0.000 A 
ATOM     14  C   UNL     1       7.245   4.726  17.802  0.00  0.00    +0.000 A 
ATOM     15  C   UNL     1       7.523   6.084  17.899  0.00  0.00    +0.000 A 
ATOM     16  O   UNL     1       8.348   6.700  18.791  0.00  0.00    +0.000 OA
ATOM     17  N   UNL     1       8.312  10.854  18.240  0.00  0.00    +0.000 N 
ATOM     18  H   UNL     1       9.566   8.447  19.936  0.00  0.00    +0.000 HD
ATOM     19  H   UNL     1       7.728  10.280  17.633  0.00  0.00    +0.000 HD
ENDROOT
BRANCH   3  20
ATOM     20  C   UNL     1       9.209  14.463  18.644  0.00  0.00    +0.000 C 
ATOM     21  O   UNL     1       8.229  15.139  18.952  0.00  0.00    +0.000 OA
ATOM     22  N   UNL     1      10.397  14.960  18.160  0.00  0.00    +0.000 N 
ATOM     23  C   UNL     1      10.670  16.290  17.902  0.00  0.00    +0.000 A 
ATOM     24  N   UNL     1      11.774  16.675  17.298  0.00  0.00    +0.000 NA
ATOM     25  N   UNL     1      11.802  18.045  17.084  0.00  0.00    +0.000 NA
ATOM     26  C   UNL     1      10.731  18.631  17.570  0.00  0.00    +0.000 A 
ATOM     27  S   UNL     1       9.628  17.570  18.332  0.00  0.00    +0.000 S 
ATOM     28  H   UNL     1      11.148  14.350  17.874  0.00  0.00    +0.000 HD
ENDBRANCH   3  20
BRANCH   4  29
ATOM     29  C   UNL     1       9.303  12.811  21.293  0.00  0.00    +0.000 A 
ATOM     30  C   UNL     1       8.296  12.040  21.919  0.00  0.00    +0.000 A 
ATOM     31  C   UNL     1       7.723  12.443  23.123  0.00  0.00    +0.000 A 
ATOM     32 CL   UNL     1       6.491  11.488  23.844  0.00  0.00    +0.000 Cl
ATOM     33  C   UNL     1       8.148  13.615  23.737  0.00  0.00    +0.000 A 
ATOM     34  C   UNL     1       9.157  14.379  23.147  0.00  0.00    +0.000 A 
ATOM     35  C   UNL     1       9.735  13.981  21.933  0.00  0.00    +0.000 A 
ATOM     36 CL   UNL     1      10.978  14.987  21.284  0.00  0.00    +0.000 Cl
ENDBRANCH   4  29
TORSDOF 2
ENDMDL
MODEL 6
REMARK VINA RESULT:      -7.9      1.124      1.125
REMARK  Name = 
REMARK  3 active torsions:
REMARK  status: ('A' for Active; 'I' for Inactive)
REMARK    1  A    between atoms: C_1  and  C_2
REMARK    2  A    between atoms: C_3  and  C_4
REMARK    3  A    between atoms: C_12  and  C_13
REMARK                            x       y       z     vdW  Elec       q    Type
REMARK                         _______ _______ _______ _____ _____    ______ ____
ROOT
ATOM      1  C   UNL     1       0.866   9.613  22.558  0.00  0.00    +0.000 C 
ATOM      2  C   UNL     1       0.641  10.143  21.163  0.00  0.00    +0.000 C 
ATOM      3  C   UNL     1      -0.059  11.243  20.797  0.00  0.00    +0.000 C 
ATOM      4  C   UNL     1      -0.042  11.682  19.335  0.00  0.00    +0.000 C 
ATOM      5  N   UNL     1       0.517  10.704  18.359  0.00  0.00    +0.000 NA
ATOM      6  C   UNL     1       1.132   9.673  18.838  0.00  0.00    +0.000 C 
ATOM      7  N   UNL     1       1.717   8.794  17.981  0.00  0.00    +0.000 N 
ATOM      8  C   UNL     1       2.403   7.672  18.241  0.00  0.00    +0.000 A 
ATOM      9  N   UNL     1       2.648   7.093  19.402  0.00  0.00    +0.000 NA
ATOM     10  C   UNL     1       3.384   5.984  19.059  0.00  0.00    +0.000 A 
ATOM     11  C   UNL     1       3.934   4.964  19.845  0.00  0.00    +0.000 A 
ATOM     12  C   UNL     1       4.652   3.946  19.195  0.00  0.00    +0.000 A 
ATOM     13  C   UNL     1       4.818   3.951  17.804  0.00  0.00    +0.000 A 
ATOM     14  C   UNL     1       4.271   4.964  17.007  0.00  0.00    +0.000 A 
ATOM     15  C   UNL     1       3.565   5.949  17.687  0.00  0.00    +0.000 A 
ATOM     16  O   UNL     1       2.932   7.031  17.155  0.00  0.00    +0.000 OA
ATOM     17  N   UNL     1       1.249   9.408  20.168  0.00  0.00    +0.000 N 
ATOM     18  H   UNL     1       1.631   9.064  17.009  0.00  0.00    +0.000 HD
ATOM     19  H   UNL     1       1.757   8.568  20.442  0.00  0.00    +0.000 HD
ENDROOT
BRANCH   3  20
ATOM     20  C   UNL     1      -0.712  12.138  21.810  0.00  0.00    +0.000 C 
ATOM     21  O   UNL     1      -0.025  12.953  22.422  0.00  0.00    +0.000 OA
ATOM     22  N   UNL     1      -2.066  11.958  21.973  0.00  0.00    +0.000 N 
ATOM     23  C   UNL     1      -2.867  12.632  22.875  0.00  0.00    +0.000 A 
ATOM     24  N   UNL     1      -4.124  12.301  23.081  0.00  0.00    +0.000 NA
ATOM     25  N   UNL     1      -4.710  13.068  24.077  0.00  0.00    +0.000 NA
ATOM     26  C   UNL     1      -3.874  13.964  24.550  0.00  0.00    +0.000 A 
ATOM     27  S   UNL     1      -2.332  13.952  23.814  0.00  0.00    +0.000 S 
ATOM     28  H   UNL     1      -2.567  11.234  21.478  0.00  0.00    +0.000 HD
ENDBRANCH   3  20
BRANCH   4  29
ATOM     29  C   UNL     1       0.722  12.995  19.171  0.00  0.00    +0.000 A 
ATOM     30  C   UNL     1       2.094  12.932  18.832  0.00  0.00    +0.000 A 
ATOM     31  C   UNL     1       2.854  14.089  18.687  0.00  0.00    +0.000 A 
ATOM     32 CL   UNL     1       4.522  13.972  18.290  0.00  0.00    +0.000 Cl
ATOM     33  C   UNL     1       2.265  15.336  18.864  0.00  0.00    +0.000 A 
ATOM     34  C   UNL     1       0.906  15.420  19.177  0.00  0.00    +0.000 A 
ATOM     35  C   UNL     1       0.136  14.259  19.329  0.00  0.00    +0.000 A 
ATOM     36 CL   UNL     1      -1.534  14.464  19.711  0.00  0.00    +0.000 Cl
ENDBRANCH   4  29
TORSDOF 2
ENDMDL
MODEL 7
REMARK VINA RESULT:      -7.8      2.902      4.831
REMARK  Name = 
REMARK  3 active torsions:
REMARK  status: ('A' for Active; 'I' for Inactive)
REMARK    1  A    between atoms: C_1  and  C_2
REMARK    2  A    between atoms: C_3  and  C_4
REMARK    3  A    between atoms: C_12  and  C_13
REMARK                            x       y       z     vdW  Elec       q    Type
REMARK                         _______ _______ _______ _____ _____    ______ ____
ROOT
ATOM      1  C   UNL     1       2.243  12.579  18.554  0.00  0.00    +0.000 C 
ATOM      2  C   UNL     1       1.469  12.213  19.797  0.00  0.00    +0.000 C 
ATOM      3  C   UNL     1       0.852  13.048  20.665  0.00  0.00    +0.000 C 
ATOM      4  C   UNL     1       0.000  12.458  21.786  0.00  0.00    +0.000 C 
ATOM      5  N   UNL     1       0.135  10.992  22.015  0.00  0.00    +0.000 NA
ATOM      6  C   UNL     1       0.782  10.310  21.128  0.00  0.00    +0.000 C 
ATOM      7  N   UNL     1       0.867   8.959  21.264  0.00  0.00    +0.000 N 
ATOM      8  C   UNL     1       1.472   8.055  20.481  0.00  0.00    +0.000 A 
ATOM      9  N   UNL     1       2.194   8.245  19.391  0.00  0.00    +0.000 NA
ATOM     10  C   UNL     1       2.556   6.972  19.020  0.00  0.00    +0.000 A 
ATOM     11  C   UNL     1       3.333   6.509  17.951  0.00  0.00    +0.000 A 
ATOM     12  C   UNL     1       3.528   5.124  17.829  0.00  0.00    +0.000 A 
ATOM     13  C   UNL     1       2.961   4.229  18.746  0.00  0.00    +0.000 A 
ATOM     14  C   UNL     1       2.184   4.679  19.820  0.00  0.00    +0.000 A 
ATOM     15  C   UNL     1       2.018   6.055  19.907  0.00  0.00    +0.000 A 
ATOM     16  O   UNL     1       1.323   6.748  20.852  0.00  0.00    +0.000 OA
ATOM     17  N   UNL     1       1.383  10.858  20.037  0.00  0.00    +0.000 N 
ATOM     18  H   UNL     1       0.369   8.606  22.071  0.00  0.00    +0.000 HD
ATOM     19  H   UNL     1       1.867  10.231  19.396  0.00  0.00    +0.000 HD
ENDROOT
BRANCH   3  20
ATOM     20  C   UNL     1       0.844  14.536  20.461  0.00  0.00    +0.000 C 
ATOM     21  O   UNL     1       1.301  15.265  21.339  0.00  0.00    +0.000 OA
ATOM     22  N   UNL     1       0.304  14.966  19.272  0.00  0.00    +0.000 N 
ATOM     23  C   UNL     1       0.149  16.284  18.886  0.00  0.00    +0.000 A 
ATOM     24  N   UNL     1      -0.513  16.624  17.800  0.00  0.00    +0.000 NA
ATOM     25  N   UNL     1      -0.598  18.001  17.650  0.00  0.00    +0.000 NA
ATOM     26  C   UNL     1       0.035  18.631  18.613  0.00  0.00    +0.000 A 
ATOM     27  S   UNL     1       0.789  17.606  19.754  0.00  0.00    +0.000 S 
ATOM     28  H   UNL     1      -0.105  14.321  18.611  0.00  0.00    +0.000 HD
ENDBRANCH   3  20
BRANCH   4  29
ATOM     29  C   UNL     1      -1.480  12.761  21.559  0.00  0.00    +0.000 A 
ATOM     30  C   UNL     1      -2.097  12.247  20.394  0.00  0.00    +0.000 A 
ATOM     31  C   UNL     1      -3.437  12.501  20.116  0.00  0.00    +0.000 A 
ATOM     32 CL   UNL     1      -4.146  11.873  18.683  0.00  0.00    +0.000 Cl
ATOM     33  C   UNL     1      -4.198  13.262  20.996  0.00  0.00    +0.000 A 
ATOM     34  C   UNL     1      -3.614  13.760  22.163  0.00  0.00    +0.000 A 
ATOM     35  C   UNL     1      -2.264  13.511  22.447  0.00  0.00    +0.000 A 
ATOM     36 CL   UNL     1      -1.634  14.163  23.915  0.00  0.00    +0.000 Cl
ENDBRANCH   4  29
TORSDOF 2
ENDMDL
MODEL 8
REMARK VINA RESULT:      -7.8      8.213      9.191
REMARK  Name = 
REMARK  3 active torsions:
REMARK  status: ('A' for Active; 'I' for Inactive)
REMARK    1  A    between atoms: C_1  and  C_2
REMARK    2  A    between atoms: C_3  and  C_4
REMARK    3  A    between atoms: C_12  and  C_13
REMARK                            x       y       z     vdW  Elec       q    Type
REMARK                         _______ _______ _______ _____ _____    ______ ____
ROOT
ATOM      1  C   UNL     1       7.750  12.418  16.625  0.00  0.00    +0.000 C 
ATOM      2  C   UNL     1       8.611  11.924  17.761  0.00  0.00    +0.000 C 
ATOM      3  C   UNL     1       9.492  12.634  18.504  0.00  0.00    +0.000 C 
ATOM      4  C   UNL     1      10.158  11.968  19.705  0.00  0.00    +0.000 C 
ATOM      5  N   UNL     1      10.004  10.490  19.809  0.00  0.00    +0.000 NA
ATOM      6  C   UNL     1       9.154   9.924  19.015  0.00  0.00    +0.000 C 
ATOM      7  N   UNL     1       8.933   8.587  19.128  0.00  0.00    +0.000 N 
ATOM      8  C   UNL     1       8.108   7.794  18.429  0.00  0.00    +0.000 A 
ATOM      9  N   UNL     1       7.329   8.094  17.406  0.00  0.00    +0.000 NA
ATOM     10  C   UNL     1       6.727   6.898  17.099  0.00  0.00    +0.000 A 
ATOM     11  C   UNL     1       5.802   6.560  16.103  0.00  0.00    +0.000 A 
ATOM     12  C   UNL     1       5.358   5.229  16.040  0.00  0.00    +0.000 A 
ATOM     13  C   UNL     1       5.822   4.266  16.946  0.00  0.00    +0.000 A 
ATOM     14  C   UNL     1       6.749   4.590  17.944  0.00  0.00    +0.000 A 
ATOM     15  C   UNL     1       7.165   5.916  17.971  0.00  0.00    +0.000 A 
ATOM     16  O   UNL     1       8.058   6.487  18.826  0.00  0.00    +0.000 OA
ATOM     17  N   UNL     1       8.441  10.590  18.066  0.00  0.00    +0.000 N 
ATOM     18  H   UNL     1       9.461   8.155  19.875  0.00  0.00    +0.000 HD
ATOM     19  H   UNL     1       7.795  10.050  17.492  0.00  0.00    +0.000 HD
ENDROOT
BRANCH   3  20
ATOM     20  C   UNL     1       9.707  14.104  18.283  0.00  0.00    +0.000 C 
ATOM     21  O   UNL     1      10.775  14.490  17.814  0.00  0.00    +0.000 OA
ATOM     22  N   UNL     1       8.657  14.916  18.642  0.00  0.00    +0.000 N 
ATOM     23  C   UNL     1       8.643  16.296  18.573  0.00  0.00    +0.000 A 
ATOM     24  N   UNL     1       7.661  17.014  19.075  0.00  0.00    +0.000 NA
ATOM     25  N   UNL     1       7.893  18.376  18.951  0.00  0.00    +0.000 NA
ATOM     26  C   UNL     1       9.025  18.617  18.329  0.00  0.00    +0.000 A 
ATOM     27  S   UNL     1       9.876  17.218  17.838  0.00  0.00    +0.000 S 
ATOM     28  H   UNL     1       7.823  14.543  19.073  0.00  0.00    +0.000 HD
ENDBRANCH   3  20
BRANCH   4  29
ATOM     29  C   UNL     1       9.660  12.583  21.012  0.00  0.00    +0.000 A 
ATOM     30  C   UNL     1       8.667  11.890  21.742  0.00  0.00    +0.000 A 
ATOM     31  C   UNL     1       8.154  12.403  22.930  0.00  0.00    +0.000 A 
ATOM     32 CL   UNL     1       6.937  11.539  23.780  0.00  0.00    +0.000 Cl
ATOM     33  C   UNL     1       8.627  13.613  23.426  0.00  0.00    +0.000 A 
ATOM     34  C   UNL     1       9.624  14.303  22.732  0.00  0.00    +0.000 A 
ATOM     35  C   UNL     1      10.140  13.793  21.533  0.00  0.00    +0.000 A 
ATOM     36 CL   UNL     1      11.373  14.714  20.750  0.00  0.00    +0.000 Cl
ENDBRANCH   4  29
TORSDOF 2
ENDMDL
MODEL 9
REMARK VINA RESULT:      -7.7      2.937      4.732
REMARK  Name = 
REMARK  3 active torsions:
REMARK  status: ('A' for Active; 'I' for Inactive)
REMARK    1  A    between atoms: C_1  and  C_2
REMARK    2  A    between atoms: C_3  and  C_4
REMARK    3  A    between atoms: C_12  and  C_13
REMARK                            x       y       z     vdW  Elec       q    Type
REMARK                         _______ _______ _______ _____ _____    ______ ____
ROOT
ATOM      1  C   UNL     1       2.763  12.632  18.195  0.00  0.00    +0.000 C 
ATOM      2  C   UNL     1       1.791  11.914  19.098  0.00  0.00    +0.000 C 
ATOM      3  C   UNL     1       0.894  12.461  19.951  0.00  0.00    +0.000 C 
ATOM      4  C   UNL     1      -0.099  11.550  20.670  0.00  0.00    +0.000 C 
ATOM      5  N   UNL     1       0.175  10.088  20.595  0.00  0.00    +0.000 NA
ATOM      6  C   UNL     1       1.085   9.696  19.765  0.00  0.00    +0.000 C 
ATOM      7  N   UNL     1       1.315   8.363  19.616  0.00  0.00    +0.000 N 
ATOM      8  C   UNL     1       2.190   7.729  18.824  0.00  0.00    +0.000 A 
ATOM      9  N   UNL     1       3.103   8.235  18.014  0.00  0.00    +0.000 NA
ATOM     10  C   UNL     1       3.701   7.123  17.471  0.00  0.00    +0.000 A 
ATOM     11  C   UNL     1       4.749   6.998  16.550  0.00  0.00    +0.000 A 
ATOM     12  C   UNL     1       5.146   5.704  16.176  0.00  0.00    +0.000 A 
ATOM     13  C   UNL     1       4.515   4.571  16.704  0.00  0.00    +0.000 A 
ATOM     14  C   UNL     1       3.469   4.682  17.628  0.00  0.00    +0.000 A 
ATOM     15  C   UNL     1       3.108   5.979  17.974  0.00  0.00    +0.000 A 
ATOM     16  O   UNL     1       2.137   6.363  18.849  0.00  0.00    +0.000 OA
ATOM     17  N   UNL     1       1.833  10.540  19.004  0.00  0.00    +0.000 N 
ATOM     18  H   UNL     1       0.702   7.786  20.177  0.00  0.00    +0.000 HD
ATOM     19  H   UNL     1       2.524  10.128  18.378  0.00  0.00    +0.000 HD
ENDROOT
BRANCH   3  20
ATOM     20  C   UNL     1       0.735  13.948  20.085  0.00  0.00    +0.000 C 
ATOM     21  O   UNL     1       0.976  14.482  21.166  0.00  0.00    +0.000 OA
ATOM     22  N   UNL     1       0.315  14.603  18.951  0.00  0.00    +0.000 N 
ATOM     23  C   UNL     1       0.058  15.957  18.850  0.00  0.00    +0.000 A 
ATOM     24  N   UNL     1      -0.486  16.489  17.775  0.00  0.00    +0.000 NA
ATOM     25  N   UNL     1      -0.714  17.849  17.924  0.00  0.00    +0.000 NA
ATOM     26  C   UNL     1      -0.299  18.282  19.093  0.00  0.00    +0.000 A 
ATOM     27  S   UNL     1       0.409  17.082  20.082  0.00  0.00    +0.000 S 
ATOM     28  H   UNL     1       0.081  14.102  18.107  0.00  0.00    +0.000 HD
ENDBRANCH   3  20
BRANCH   4  29
ATOM     29  C   UNL     1      -1.519  11.787  20.160  0.00  0.00    +0.000 A 
ATOM     30  C   UNL     1      -1.884  11.229  18.913  0.00  0.00    +0.000 A 
ATOM     31  C   UNL     1      -3.156  11.422  18.381  0.00  0.00    +0.000 A 
ATOM     32 CL   UNL     1      -3.556  10.741  16.855  0.00  0.00    +0.000 Cl
ATOM     33  C   UNL     1      -4.098  12.165  19.083  0.00  0.00    +0.000 A 
ATOM     34  C   UNL     1      -3.766  12.706  20.326  0.00  0.00    +0.000 A 
ATOM     35  C   UNL     1      -2.486  12.518  20.866  0.00  0.00    +0.000 A 
ATOM     36 CL   UNL     1      -2.170  13.221  22.411  0.00  0.00    +0.000 Cl
ENDBRANCH   4  29
TORSDOF 2
ENDMDL
