MODEL 1
REMARK VINA RESULT:      -8.4      0.000      0.000
REMARK  Name = 
REMARK  6 active torsions:
REMARK  status: ('A' for Active; 'I' for Inactive)
REMARK    1  A    between atoms: C_2  and  O_3
REMARK    2  A    between atoms: C_2  and  C_4
REMARK    3  A    between atoms: C_8  and  N_9
REMARK    4  A    between atoms: N_9  and  C_10
REMARK    5  A    between atoms: C_12  and  C_13
REMARK    6  A    between atoms: C_23  and  N_24
REMARK                            x       y       z     vdW  Elec       q    Type
REMARK                         _______ _______ _______ _____ _____    ______ ____
ROOT
ATOM      1  C   UNL     1       2.457   5.916  18.900  0.00  0.00    +0.000 A 
ATOM      2  N   UNL     1       1.317   5.261  18.686  0.00  0.00    +0.000 NA
ATOM      3  C   UNL     1       1.440   4.037  18.276  0.00  0.00    +0.000 A 
ATOM      4  N   UNL     1       1.977   4.031  17.093  0.00  0.00    +0.000 NA
ATOM      5  C   UNL     1       3.199   4.510  17.114  0.00  0.00    +0.000 A 
ATOM      6  C   UNL     1       3.951   3.675  16.313  0.00  0.00    +0.000 A 
ATOM      7  C   UNL     1       5.313   3.620  16.360  0.00  0.00    +0.000 A 
ATOM      8  C   UNL     1       5.953   4.675  16.972  0.00  0.00    +0.000 A 
ATOM      9  C   UNL     1       5.199   5.621  17.792  0.00  0.00    +0.000 A 
ATOM     10  C   UNL     1       3.686   5.483  18.044  0.00  0.00    +0.000 A 
ENDROOT
BRANCH   3  11
ATOM     11  C   UNL     1       2.119   3.049  19.244  0.00  0.00    +0.000 A 
ATOM     12  C   UNL     1       2.624   3.443  20.502  0.00  0.00    +0.000 A 
ATOM     13  C   UNL     1       3.824   2.911  20.986  0.00  0.00    +0.000 A 
ATOM     14  C   UNL     1       4.485   1.927  20.261  0.00  0.00    +0.000 A 
ATOM     15  C   UNL     1       3.877   1.375  19.139  0.00  0.00    +0.000 A 
ATOM     16  C   UNL     1       2.661   1.878  18.684  0.00  0.00    +0.000 A 
ENDBRANCH   3  11
BRANCH   8  17
ATOM     17  N   UNL     1       7.390   4.787  16.592  0.00  0.00    +0.000 N 
ATOM     18  O   UNL     1       7.671   5.528  15.625  0.00  0.00    +0.000 OA
ATOM     19  O   UNL     1       8.210   4.227  17.305  0.00  0.00    +0.000 OA
ENDBRANCH   8  17
BRANCH   1  20
ATOM     20  N   UNL     1       2.297   6.623  20.139  0.00  0.00    +0.000 N 
ATOM     21  H   UNL     1       3.011   6.497  20.842  0.00  0.00    +0.000 HD
BRANCH  20  26
ATOM     22  C   UNL     1       0.210   9.545  21.798  0.00  0.00    +0.000 A 
ATOM     23  C   UNL     1       0.203  10.470  20.784  0.00  0.00    +0.000 A 
ATOM     24  C   UNL     1       0.852  10.159  19.568  0.00  0.00    +0.000 A 
ATOM     25  C   UNL     1       1.511   8.906  19.347  0.00  0.00    +0.000 A 
ATOM     26  C   UNL     1       1.515   7.903  20.336  0.00  0.00    +0.000 A 
ATOM     27  C   UNL     1       0.877   8.311  21.568  0.00  0.00    +0.000 A 
BRANCH  22  29
ATOM     28  O   UNL     1      -1.351  10.646  23.250  0.00  0.00    +0.000 OA
ATOM     29  C   UNL     1      -0.340   9.966  23.121  0.00  0.00    +0.000 C 
BRANCH  29  30
ATOM     30  O   UNL     1       0.333   9.460  24.169  0.00  0.00    +0.000 OA
ATOM     31  H   UNL     1       0.792   8.605  24.035  0.00  0.00    +0.000 HD
ENDBRANCH  29  30
ENDBRANCH  22  29
ENDBRANCH  20  26
ENDBRANCH   1  20
TORSDOF 6
ENDMDL
MODEL 2
REMARK VINA RESULT:      -8.1      4.303      8.601
REMARK  Name = 
REMARK  6 active torsions:
REMARK  status: ('A' for Active; 'I' for Inactive)
REMARK    1  A    between atoms: C_2  and  O_3
REMARK    2  A    between atoms: C_2  and  C_4
REMARK    3  A    between atoms: C_8  and  N_9
REMARK    4  A    between atoms: N_9  and  C_10
REMARK    5  A    between atoms: C_12  and  C_13
REMARK    6  A    between atoms: C_23  and  N_24
REMARK                            x       y       z     vdW  Elec       q    Type
REMARK                         _______ _______ _______ _____ _____    ______ ____
ROOT
ATOM      1  C   UNL     1       1.342  10.097  18.783  0.00  0.00    +0.000 A 
ATOM      2  N   UNL     1       0.358   9.600  19.532  0.00  0.00    +0.000 NA
ATOM      3  C   UNL     1      -0.632  10.403  19.764  0.00  0.00    +0.000 A 
ATOM      4  N   UNL     1      -0.218  11.398  20.492  0.00  0.00    +0.000 NA
ATOM      5  C   UNL     1       0.671  12.125  19.857  0.00  0.00    +0.000 A 
ATOM      6  C   UNL     1       0.340  13.440  20.112  0.00  0.00    +0.000 A 
ATOM      7  C   UNL     1       0.793  14.485  19.360  0.00  0.00    +0.000 A 
ATOM      8  C   UNL     1       1.879  14.238  18.550  0.00  0.00    +0.000 A 
ATOM      9  C   UNL     1       2.305  12.865  18.284  0.00  0.00    +0.000 A 
ATOM     10  C   UNL     1       1.566  11.639  18.852  0.00  0.00    +0.000 A 
ENDROOT
BRANCH   3  11
ATOM     11  C   UNL     1      -1.453  10.860  18.543  0.00  0.00    +0.000 A 
ATOM     12  C   UNL     1      -2.507  11.795  18.641  0.00  0.00    +0.000 A 
ATOM     13  C   UNL     1      -3.672  11.637  17.885  0.00  0.00    +0.000 A 
ATOM     14  C   UNL     1      -3.765  10.596  16.968  0.00  0.00    +0.000 A 
ATOM     15  C   UNL     1      -2.648   9.811  16.705  0.00  0.00    +0.000 A 
ATOM     16  C   UNL     1      -1.474  10.000  17.430  0.00  0.00    +0.000 A 
ENDBRANCH   3  11
BRANCH   8  17
ATOM     17  N   UNL     1       2.588  15.479  18.129  0.00  0.00    +0.000 N 
ATOM     18  O   UNL     1       3.495  15.359  17.276  0.00  0.00    +0.000 OA
ATOM     19  O   UNL     1       2.178  16.543  18.569  0.00  0.00    +0.000 OA
ENDBRANCH   8  17
BRANCH   1  20
ATOM     20  N   UNL     1       1.697   9.075  17.840  0.00  0.00    +0.000 N 
ATOM     21  H   UNL     1       1.622   9.300  16.858  0.00  0.00    +0.000 HD
BRANCH  20  26
ATOM     22  C   UNL     1       3.272   5.739  19.267  0.00  0.00    +0.000 A 
ATOM     23  C   UNL     1       4.349   5.579  18.431  0.00  0.00    +0.000 A 
ATOM     24  C   UNL     1       4.581   6.540  17.422  0.00  0.00    +0.000 A 
ATOM     25  C   UNL     1       3.738   7.684  17.242  0.00  0.00    +0.000 A 
ATOM     26  C   UNL     1       2.643   7.922  18.095  0.00  0.00    +0.000 A 
ATOM     27  C   UNL     1       2.438   6.873  19.070  0.00  0.00    +0.000 A 
BRANCH  22  29
ATOM     28  O   UNL     1       3.265   3.457  20.008  0.00  0.00    +0.000 OA
ATOM     29  C   UNL     1       2.961   4.625  20.213  0.00  0.00    +0.000 C 
BRANCH  29  30
ATOM     30  O   UNL     1       2.386   5.036  21.356  0.00  0.00    +0.000 OA
ATOM     31  H   UNL     1       1.541   5.526  21.283  0.00  0.00    +0.000 HD
ENDBRANCH  29  30
ENDBRANCH  22  29
ENDBRANCH  20  26
ENDBRANCH   1  20
TORSDOF 6
ENDMDL
MODEL 3
REMARK VINA RESULT:      -8.1      0.873      1.419
REMARK  Name = 
REMARK  6 active torsions:
REMARK  status: ('A' for Active; 'I' for Inactive)
REMARK    1  A    between atoms: C_2  and  O_3
REMARK    2  A    between atoms: C_2  and  C_4
REMARK    3  A    between atoms: C_8  and  N_9
REMARK    4  A    between atoms: N_9  and  C_10
REMARK    5  A    between atoms: C_12  and  C_13
REMARK    6  A    between atoms: C_23  and  N_24
REMARK                            x       y       z     vdW  Elec       q    Type
REMARK                         _______ _______ _______ _____ _____    ______ ____
ROOT
ATOM      1  C   UNL     1       2.641   6.821  18.755  0.00  0.00    +0.000 A 
ATOM      2  N   UNL     1       1.509   6.127  18.863  0.00  0.00    +0.000 NA
ATOM      3  C   UNL     1       1.631   4.838  18.798  0.00  0.00    +0.000 A 
ATOM      4  N   UNL     1       2.038   4.504  17.609  0.00  0.00    +0.000 NA
ATOM      5  C   UNL     1       3.236   4.976  17.357  0.00  0.00    +0.000 A 
ATOM      6  C   UNL     1       3.927   3.953  16.739  0.00  0.00    +0.000 A 
ATOM      7  C   UNL     1       5.287   3.920  16.643  0.00  0.00    +0.000 A 
ATOM      8  C   UNL     1       5.951   5.107  16.861  0.00  0.00    +0.000 A 
ATOM      9  C   UNL     1       5.256   6.240  17.467  0.00  0.00    +0.000 A 
ATOM     10  C   UNL     1       3.786   6.172  17.918  0.00  0.00    +0.000 A 
ENDROOT
BRANCH   3  11
ATOM     11  C   UNL     1       2.447   4.164  19.918  0.00  0.00    +0.000 A 
ATOM     12  C   UNL     1       3.422   3.176  19.659  0.00  0.00    +0.000 A 
ATOM     13  C   UNL     1       3.563   2.073  20.508  0.00  0.00    +0.000 A 
ATOM     14  C   UNL     1       2.791   1.988  21.661  0.00  0.00    +0.000 A 
ATOM     15  C   UNL     1       1.995   3.064  22.037  0.00  0.00    +0.000 A 
ATOM     16  C   UNL     1       1.892   4.179  21.210  0.00  0.00    +0.000 A 
ENDBRANCH   3  11
BRANCH   8  17
ATOM     17  N   UNL     1       7.333   5.114  16.303  0.00  0.00    +0.000 N 
ATOM     18  O   UNL     1       8.179   4.383  16.862  0.00  0.00    +0.000 OA
ATOM     19  O   UNL     1       7.529   5.757  15.283  0.00  0.00    +0.000 OA
ENDBRANCH   8  17
BRANCH   1  20
ATOM     20  N   UNL     1       2.591   7.846  19.759  0.00  0.00    +0.000 N 
ATOM     21  H   UNL     1       3.469   8.244  20.061  0.00  0.00    +0.000 HD
BRANCH  20  26
ATOM     22  C   UNL     1      -0.205   9.922  21.635  0.00  0.00    +0.000 A 
ATOM     23  C   UNL     1      -0.693  10.691  20.608  0.00  0.00    +0.000 A 
ATOM     24  C   UNL     1      -0.140  10.541  19.317  0.00  0.00    +0.000 A 
ATOM     25  C   UNL     1       0.907   9.605  19.033  0.00  0.00    +0.000 A 
ATOM     26  C   UNL     1       1.418   8.759  20.038  0.00  0.00    +0.000 A 
ATOM     27  C   UNL     1       0.841   9.005  21.341  0.00  0.00    +0.000 A 
BRANCH  22  29
ATOM     28  O   UNL     1      -1.624  10.981  23.254  0.00  0.00    +0.000 OA
ATOM     29  C   UNL     1      -0.695  10.220  23.014  0.00  0.00    +0.000 C 
BRANCH  29  30
ATOM     30  O   UNL     1      -0.072   9.509  23.970  0.00  0.00    +0.000 OA
ATOM     31  H   UNL     1       0.053   8.551  23.807  0.00  0.00    +0.000 HD
ENDBRANCH  29  30
ENDBRANCH  22  29
ENDBRANCH  20  26
ENDBRANCH   1  20
TORSDOF 6
ENDMDL
MODEL 4
REMARK VINA RESULT:      -8.1      4.372      8.597
REMARK  Name = 
REMARK  6 active torsions:
REMARK  status: ('A' for Active; 'I' for Inactive)
REMARK    1  A    between atoms: C_2  and  O_3
REMARK    2  A    between atoms: C_2  and  C_4
REMARK    3  A    between atoms: C_8  and  N_9
REMARK    4  A    between atoms: N_9  and  C_10
REMARK    5  A    between atoms: C_12  and  C_13
REMARK    6  A    between atoms: C_23  and  N_24
REMARK                            x       y       z     vdW  Elec       q    Type
REMARK                         _______ _______ _______ _____ _____    ______ ____
ROOT
ATOM      1  C   UNL     1       1.606  10.028  18.615  0.00  0.00    +0.000 A 
ATOM      2  N   UNL     1       0.706   9.511  19.450  0.00  0.00    +0.000 NA
ATOM      3  C   UNL     1      -0.249  10.309  19.811  0.00  0.00    +0.000 A 
ATOM      4  N   UNL     1       0.245  11.280  20.519  0.00  0.00    +0.000 NA
ATOM      5  C   UNL     1       1.065  12.024  19.814  0.00  0.00    +0.000 A 
ATOM      6  C   UNL     1       0.771  13.332  20.141  0.00  0.00    +0.000 A 
ATOM      7  C   UNL     1       1.146  14.397  19.375  0.00  0.00    +0.000 A 
ATOM      8  C   UNL     1       2.137  14.172  18.445  0.00  0.00    +0.000 A 
ATOM      9  C   UNL     1       2.525  12.806  18.096  0.00  0.00    +0.000 A 
ATOM     10  C   UNL     1       1.845  11.566  18.705  0.00  0.00    +0.000 A 
ENDROOT
BRANCH   3  11
ATOM     11  C   UNL     1      -1.194  10.803  18.699  0.00  0.00    +0.000 A 
ATOM     12  C   UNL     1      -2.197  11.770  18.927  0.00  0.00    +0.000 A 
ATOM     13  C   UNL     1      -3.449  11.657  18.314  0.00  0.00    +0.000 A 
ATOM     14  C   UNL     1      -3.684  10.628  17.409  0.00  0.00    +0.000 A 
ATOM     15  C   UNL     1      -2.633   9.810  17.011  0.00  0.00    +0.000 A 
ATOM     16  C   UNL     1      -1.376   9.954  17.592  0.00  0.00    +0.000 A 
ENDBRANCH   3  11
BRANCH   8  17
ATOM     17  N   UNL     1       2.804  15.423  17.987  0.00  0.00    +0.000 N 
ATOM     18  O   UNL     1       2.205  16.500  18.197  0.00  0.00    +0.000 OA
ATOM     19  O   UNL     1       3.931  15.328  17.525  0.00  0.00    +0.000 OA
ENDBRANCH   8  17
BRANCH   1  20
ATOM     20  N   UNL     1       1.853   9.032  17.610  0.00  0.00    +0.000 N 
ATOM     21  H   UNL     1       1.952   9.349  16.656  0.00  0.00    +0.000 HD
BRANCH  20  26
ATOM     22  C   UNL     1       2.360   5.176  18.332  0.00  0.00    +0.000 A 
ATOM     23  C   UNL     1       3.696   5.031  18.054  0.00  0.00    +0.000 A 
ATOM     24  C   UNL     1       4.438   6.163  17.649  0.00  0.00    +0.000 A 
ATOM     25  C   UNL     1       3.850   7.464  17.526  0.00  0.00    +0.000 A 
ATOM     26  C   UNL     1       2.494   7.681  17.838  0.00  0.00    +0.000 A 
ATOM     27  C   UNL     1       1.788   6.471  18.195  0.00  0.00    +0.000 A 
BRANCH  22  29
ATOM     28  O   UNL     1       1.489   3.003  17.808  0.00  0.00    +0.000 OA
ATOM     29  C   UNL     1       1.571   3.936  18.597  0.00  0.00    +0.000 C 
BRANCH  29  30
ATOM     30  O   UNL     1       1.021   3.900  19.824  0.00  0.00    +0.000 OA
ATOM     31  H   UNL     1       1.507   4.350  20.546  0.00  0.00    +0.000 HD
ENDBRANCH  29  30
ENDBRANCH  22  29
ENDBRANCH  20  26
ENDBRANCH   1  20
TORSDOF 6
ENDMDL
MODEL 5
REMARK VINA RESULT:      -8.1      1.735      2.229
REMARK  Name = 
REMARK  6 active torsions:
REMARK  status: ('A' for Active; 'I' for Inactive)
REMARK    1  A    between atoms: C_2  and  O_3
REMARK    2  A    between atoms: C_2  and  C_4
REMARK    3  A    between atoms: C_8  and  N_9
REMARK    4  A    between atoms: N_9  and  C_10
REMARK    5  A    between atoms: C_12  and  C_13
REMARK    6  A    between atoms: C_23  and  N_24
REMARK                            x       y       z     vdW  Elec       q    Type
REMARK                         _______ _______ _______ _____ _____    ______ ____
ROOT
ATOM      1  C   UNL     1       2.451   6.148  19.348  0.00  0.00    +0.000 A 
ATOM      2  N   UNL     1       1.335   5.652  18.817  0.00  0.00    +0.000 NA
ATOM      3  C   UNL     1       1.436   4.467  18.301  0.00  0.00    +0.000 A 
ATOM      4  N   UNL     1       2.225   4.514  17.269  0.00  0.00    +0.000 NA
ATOM      5  C   UNL     1       3.448   4.845  17.610  0.00  0.00    +0.000 A 
ATOM      6  C   UNL     1       4.283   4.010  16.895  0.00  0.00    +0.000 A 
ATOM      7  C   UNL     1       5.589   3.796  17.227  0.00  0.00    +0.000 A 
ATOM      8  C   UNL     1       6.166   4.706  18.085  0.00  0.00    +0.000 A 
ATOM      9  C   UNL     1       5.335   5.648  18.830  0.00  0.00    +0.000 A 
ATOM     10  C   UNL     1       3.798   5.662  18.732  0.00  0.00    +0.000 A 
ENDROOT
BRANCH   3  11
ATOM     11  C   UNL     1       1.786   3.319  19.267  0.00  0.00    +0.000 A 
ATOM     12  C   UNL     1       1.662   3.440  20.668  0.00  0.00    +0.000 A 
ATOM     13  C   UNL     1       2.615   2.871  21.519  0.00  0.00    +0.000 A 
ATOM     14  C   UNL     1       3.651   2.112  20.987  0.00  0.00    +0.000 A 
ATOM     15  C   UNL     1       3.648   1.802  19.631  0.00  0.00    +0.000 A 
ATOM     16  C   UNL     1       2.672   2.334  18.794  0.00  0.00    +0.000 A 
ENDBRANCH   3  11
BRANCH   8  17
ATOM     17  N   UNL     1       7.656   4.688  18.039  0.00  0.00    +0.000 N 
ATOM     18  O   UNL     1       8.264   5.049  19.070  0.00  0.00    +0.000 OA
ATOM     19  O   UNL     1       8.187   4.232  17.037  0.00  0.00    +0.000 OA
ENDBRANCH   8  17
BRANCH   1  20
ATOM     20  N   UNL     1       2.079   6.746  20.600  0.00  0.00    +0.000 N 
ATOM     21  H   UNL     1       2.585   6.453  21.424  0.00  0.00    +0.000 HD
BRANCH  20  26
ATOM     22  C   UNL     1       0.610  10.346  19.872  0.00  0.00    +0.000 A 
ATOM     23  C   UNL     1      -0.042  10.606  21.051  0.00  0.00    +0.000 A 
ATOM     24  C   UNL     1      -0.003   9.641  22.082  0.00  0.00    +0.000 A 
ATOM     25  C   UNL     1       0.701   8.401  21.948  0.00  0.00    +0.000 A 
ATOM     26  C   UNL     1       1.423   8.097  20.777  0.00  0.00    +0.000 A 
ATOM     27  C   UNL     1       1.296   9.106  19.749  0.00  0.00    +0.000 A 
BRANCH  22  29
ATOM     28  O   UNL     1       1.117  12.296  18.569  0.00  0.00    +0.000 OA
ATOM     29  C   UNL     1       0.414  11.309  18.747  0.00  0.00    +0.000 C 
BRANCH  29  30
ATOM     30  O   UNL     1      -0.560  10.948  17.894  0.00  0.00    +0.000 OA
ATOM     31  H   UNL     1      -0.747   9.990  17.807  0.00  0.00    +0.000 HD
ENDBRANCH  29  30
ENDBRANCH  22  29
ENDBRANCH  20  26
ENDBRANCH   1  20
TORSDOF 6
ENDMDL
MODEL 6
REMARK VINA RESULT:      -8.1      1.560      1.971
REMARK  Name = 
REMARK  6 active torsions:
REMARK  status: ('A' for Active; 'I' for Inactive)
REMARK    1  A    between atoms: C_2  and  O_3
REMARK    2  A    between atoms: C_2  and  C_4
REMARK    3  A    between atoms: C_8  and  N_9
REMARK    4  A    between atoms: N_9  and  C_10
REMARK    5  A    between atoms: C_12  and  C_13
REMARK    6  A    between atoms: C_23  and  N_24
REMARK                            x       y       z     vdW  Elec       q    Type
REMARK                         _______ _______ _______ _____ _____    ______ ____
ROOT
ATOM      1  C   UNL     1       2.382   5.844  19.061  0.00  0.00    +0.000 A 
ATOM      2  N   UNL     1       1.262   5.175  18.793  0.00  0.00    +0.000 NA
ATOM      3  C   UNL     1       1.421   3.982  18.312  0.00  0.00    +0.000 A 
ATOM      4  N   UNL     1       1.973   4.061  17.138  0.00  0.00    +0.000 NA
ATOM      5  C   UNL     1       3.181   4.568  17.204  0.00  0.00    +0.000 A 
ATOM      6  C   UNL     1       3.964   3.801  16.365  0.00  0.00    +0.000 A 
ATOM      7  C   UNL     1       5.327   3.777  16.426  0.00  0.00    +0.000 A 
ATOM      8  C   UNL     1       5.932   4.809  17.109  0.00  0.00    +0.000 A 
ATOM      9  C   UNL     1       5.144   5.684  17.975  0.00  0.00    +0.000 A 
ATOM     10  C   UNL     1       3.633   5.494  18.197  0.00  0.00    +0.000 A 
ENDROOT
BRANCH   3  11
ATOM     11  C   UNL     1       2.113   2.955  19.228  0.00  0.00    +0.000 A 
ATOM     12  C   UNL     1       2.551   3.271  20.533  0.00  0.00    +0.000 A 
ATOM     13  C   UNL     1       3.757   2.762  21.024  0.00  0.00    +0.000 A 
ATOM     14  C   UNL     1       4.495   1.871  20.252  0.00  0.00    +0.000 A 
ATOM     15  C   UNL     1       3.958   1.382  19.066  0.00  0.00    +0.000 A 
ATOM     16  C   UNL     1       2.736   1.859  18.602  0.00  0.00    +0.000 A 
ENDBRANCH   3  11
BRANCH   8  17
ATOM     17  N   UNL     1       7.370   4.978  16.756  0.00  0.00    +0.000 N 
ATOM     18  O   UNL     1       7.667   5.937  16.010  0.00  0.00    +0.000 OA
ATOM     19  O   UNL     1       8.177   4.234  17.292  0.00  0.00    +0.000 OA
ENDBRANCH   8  17
BRANCH   1  20
ATOM     20  N   UNL     1       2.190   6.471  20.338  0.00  0.00    +0.000 N 
ATOM     21  H   UNL     1       2.773   6.159  21.102  0.00  0.00    +0.000 HD
BRANCH  20  26
ATOM     22  C   UNL     1       0.639  10.059  19.731  0.00  0.00    +0.000 A 
ATOM     23  C   UNL     1       0.331  10.431  21.016  0.00  0.00    +0.000 A 
ATOM     24  C   UNL     1       0.629   9.547  22.076  0.00  0.00    +0.000 A 
ATOM     25  C   UNL     1       1.251   8.274  21.863  0.00  0.00    +0.000 A 
ATOM     26  C   UNL     1       1.627   7.856  20.571  0.00  0.00    +0.000 A 
ATOM     27  C   UNL     1       1.246   8.788  19.534  0.00  0.00    +0.000 A 
BRANCH  22  29
ATOM     28  O   UNL     1      -0.947  10.855  18.117  0.00  0.00    +0.000 OA
ATOM     29  C   UNL     1       0.164  10.941  18.623  0.00  0.00    +0.000 C 
BRANCH  29  30
ATOM     30  O   UNL     1       1.044  11.900  18.285  0.00  0.00    +0.000 OA
ATOM     31  H   UNL     1       1.847  11.987  18.840  0.00  0.00    +0.000 HD
ENDBRANCH  29  30
ENDBRANCH  22  29
ENDBRANCH  20  26
ENDBRANCH   1  20
TORSDOF 6
ENDMDL
MODEL 7
REMARK VINA RESULT:      -8.1      4.027      8.834
REMARK  Name = 
REMARK  6 active torsions:
REMARK  status: ('A' for Active; 'I' for Inactive)
REMARK    1  A    between atoms: C_2  and  O_3
REMARK    2  A    between atoms: C_2  and  C_4
REMARK    3  A    between atoms: C_8  and  N_9
REMARK    4  A    between atoms: N_9  and  C_10
REMARK    5  A    between atoms: C_12  and  C_13
REMARK    6  A    between atoms: C_23  and  N_24
REMARK                            x       y       z     vdW  Elec       q    Type
REMARK                         _______ _______ _______ _____ _____    ______ ____
ROOT
ATOM      1  C   UNL     1       1.424   9.944  18.759  0.00  0.00    +0.000 A 
ATOM      2  N   UNL     1       0.435   9.506  19.536  0.00  0.00    +0.000 NA
ATOM      3  C   UNL     1      -0.518  10.354  19.766  0.00  0.00    +0.000 A 
ATOM      4  N   UNL     1      -0.051  11.347  20.463  0.00  0.00    +0.000 NA
ATOM      5  C   UNL     1       0.856  12.022  19.796  0.00  0.00    +0.000 A 
ATOM      6  C   UNL     1       0.584  13.356  20.025  0.00  0.00    +0.000 A 
ATOM      7  C   UNL     1       1.065  14.363  19.240  0.00  0.00    +0.000 A 
ATOM      8  C   UNL     1       2.125  14.052  18.417  0.00  0.00    +0.000 A 
ATOM      9  C   UNL     1       2.490  12.657  18.177  0.00  0.00    +0.000 A 
ATOM     10  C   UNL     1       1.713  11.476  18.787  0.00  0.00    +0.000 A 
ENDROOT
BRANCH   3  11
ATOM     11  C   UNL     1      -1.342  10.816  18.549  0.00  0.00    +0.000 A 
ATOM     12  C   UNL     1      -2.353  11.797  18.642  0.00  0.00    +0.000 A 
ATOM     13  C   UNL     1      -3.538  11.670  17.911  0.00  0.00    +0.000 A 
ATOM     14  C   UNL     1      -3.691  10.613  17.022  0.00  0.00    +0.000 A 
ATOM     15  C   UNL     1      -2.613   9.775  16.759  0.00  0.00    +0.000 A 
ATOM     16  C   UNL     1      -1.419   9.931  17.458  0.00  0.00    +0.000 A 
ENDBRANCH   3  11
BRANCH   8  17
ATOM     17  N   UNL     1       2.877  15.253  17.954  0.00  0.00    +0.000 N 
ATOM     18  O   UNL     1       2.293  16.356  18.024  0.00  0.00    +0.000 OA
ATOM     19  O   UNL     1       4.045  15.100  17.629  0.00  0.00    +0.000 OA
ENDBRANCH   8  17
BRANCH   1  20
ATOM     20  N   UNL     1       1.720   8.886  17.835  0.00  0.00    +0.000 N 
ATOM     21  H   UNL     1       1.643   9.094  16.849  0.00  0.00    +0.000 HD
BRANCH  20  26
ATOM     22  C   UNL     1       4.730   6.324  17.682  0.00  0.00    +0.000 A 
ATOM     23  C   UNL     1       4.458   5.536  18.773  0.00  0.00    +0.000 A 
ATOM     24  C   UNL     1       3.310   5.812  19.549  0.00  0.00    +0.000 A 
ATOM     25  C   UNL     1       2.409   6.881  19.235  0.00  0.00    +0.000 A 
ATOM     26  C   UNL     1       2.614   7.696  18.105  0.00  0.00    +0.000 A 
ATOM     27  C   UNL     1       3.833   7.388  17.390  0.00  0.00    +0.000 A 
BRANCH  22  29
ATOM     28  O   UNL     1       6.715   7.020  16.528  0.00  0.00    +0.000 OA
ATOM     29  C   UNL     1       6.032   6.110  16.983  0.00  0.00    +0.000 C 
BRANCH  29  30
ATOM     30  O   UNL     1       6.430   4.826  16.969  0.00  0.00    +0.000 OA
ATOM     31  H   UNL     1       5.732   4.141  16.919  0.00  0.00    +0.000 HD
ENDBRANCH  29  30
ENDBRANCH  22  29
ENDBRANCH  20  26
ENDBRANCH   1  20
TORSDOF 6
ENDMDL
MODEL 8
REMARK VINA RESULT:      -8.0      4.201      8.742
REMARK  Name = 
REMARK  6 active torsions:
REMARK  status: ('A' for Active; 'I' for Inactive)
REMARK    1  A    between atoms: C_2  and  O_3
REMARK    2  A    between atoms: C_2  and  C_4
REMARK    3  A    between atoms: C_8  and  N_9
REMARK    4  A    between atoms: N_9  and  C_10
REMARK    5  A    between atoms: C_12  and  C_13
REMARK    6  A    between atoms: C_23  and  N_24
REMARK                            x       y       z     vdW  Elec       q    Type
REMARK                         _______ _______ _______ _____ _____    ______ ____
ROOT
ATOM      1  C   UNL     1       0.776  10.115  20.184  0.00  0.00    +0.000 A 
ATOM      2  N   UNL     1       1.108  11.152  20.952  0.00  0.00    +0.000 NA
ATOM      3  C   UNL     1       0.266  12.138  20.961  0.00  0.00    +0.000 A 
ATOM      4  N   UNL     1       0.227  12.681  19.781  0.00  0.00    +0.000 NA
ATOM      5  C   UNL     1      -0.233  11.845  18.879  0.00  0.00    +0.000 A 
ATOM      6  C   UNL     1      -1.104  12.573  18.093  0.00  0.00    +0.000 A 
ATOM      7  C   UNL     1      -2.041  11.998  17.286  0.00  0.00    +0.000 A 
ATOM      8  C   UNL     1      -1.870  10.663  16.993  0.00  0.00    +0.000 A 
ATOM      9  C   UNL     1      -0.924   9.855  17.760  0.00  0.00    +0.000 A 
ATOM     10  C   UNL     1      -0.105  10.421  18.934  0.00  0.00    +0.000 A 
ENDROOT
BRANCH   3  11
ATOM     11  C   UNL     1      -1.136  11.844  21.529  0.00  0.00    +0.000 A 
ATOM     12  C   UNL     1      -2.271  12.612  21.189  0.00  0.00    +0.000 A 
ATOM     13  C   UNL     1      -3.236  12.923  22.152  0.00  0.00    +0.000 A 
ATOM     14  C   UNL     1      -3.120  12.406  23.437  0.00  0.00    +0.000 A 
ATOM     15  C   UNL     1      -2.131  11.469  23.714  0.00  0.00    +0.000 A 
ATOM     16  C   UNL     1      -1.197  11.128  22.739  0.00  0.00    +0.000 A 
ENDBRANCH   3  11
BRANCH   8  17
ATOM     17  N   UNL     1      -2.624  10.228  15.783  0.00  0.00    +0.000 N 
ATOM     18  O   UNL     1      -2.929   9.019  15.703  0.00  0.00    +0.000 OA
ATOM     19  O   UNL     1      -2.980  11.093  14.996  0.00  0.00    +0.000 OA
ENDBRANCH   8  17
BRANCH   1  20
ATOM     20  N   UNL     1       1.054   8.932  20.949  0.00  0.00    +0.000 N 
ATOM     21  H   UNL     1       0.526   8.794  21.799  0.00  0.00    +0.000 HD
BRANCH  20  26
ATOM     22  C   UNL     1       1.906   5.100  20.468  0.00  0.00    +0.000 A 
ATOM     23  C   UNL     1       2.535   5.123  19.248  0.00  0.00    +0.000 A 
ATOM     24  C   UNL     1       2.699   6.359  18.585  0.00  0.00    +0.000 A 
ATOM     25  C   UNL     1       2.241   7.597  19.143  0.00  0.00    +0.000 A 
ATOM     26  C   UNL     1       1.626   7.640  20.409  0.00  0.00    +0.000 A 
ATOM     27  C   UNL     1       1.447   6.335  21.004  0.00  0.00    +0.000 A 
BRANCH  22  29
ATOM     28  O   UNL     1       2.169   3.320  22.055  0.00  0.00    +0.000 OA
ATOM     29  C   UNL     1       1.603   3.764  21.064  0.00  0.00    +0.000 C 
BRANCH  29  30
ATOM     30  O   UNL     1       0.588   3.123  20.459  0.00  0.00    +0.000 OA
ATOM     31  H   UNL     1       0.770   2.721  19.584  0.00  0.00    +0.000 HD
ENDBRANCH  29  30
ENDBRANCH  22  29
ENDBRANCH  20  26
ENDBRANCH   1  20
TORSDOF 6
ENDMDL
MODEL 9
REMARK VINA RESULT:      -7.9      6.415     10.163
REMARK  Name = 
REMARK  6 active torsions:
REMARK  status: ('A' for Active; 'I' for Inactive)
REMARK    1  A    between atoms: C_2  and  O_3
REMARK    2  A    between atoms: C_2  and  C_4
REMARK    3  A    between atoms: C_8  and  N_9
REMARK    4  A    between atoms: N_9  and  C_10
REMARK    5  A    between atoms: C_12  and  C_13
REMARK    6  A    between atoms: C_23  and  N_24
REMARK                            x       y       z     vdW  Elec       q    Type
REMARK                         _______ _______ _______ _____ _____    ______ ____
ROOT
ATOM      1  C   UNL     1      -0.927  13.076  19.196  0.00  0.00    +0.000 A 
ATOM      2  N   UNL     1       0.387  12.989  19.398  0.00  0.00    +0.000 NA
ATOM      3  C   UNL     1       0.750  12.423  20.506  0.00  0.00    +0.000 A 
ATOM      4  N   UNL     1       0.373  13.159  21.509  0.00  0.00    +0.000 NA
ATOM      5  C   UNL     1      -0.934  13.247  21.581  0.00  0.00    +0.000 A 
ATOM      6  C   UNL     1      -1.253  13.108  22.916  0.00  0.00    +0.000 A 
ATOM      7  C   UNL     1      -2.504  12.789  23.357  0.00  0.00    +0.000 A 
ATOM      8  C   UNL     1      -3.537  12.958  22.461  0.00  0.00    +0.000 A 
ATOM      9  C   UNL     1      -3.256  13.159  21.041  0.00  0.00    +0.000 A 
ATOM     10  C   UNL     1      -1.828  13.163  20.466  0.00  0.00    +0.000 A 
ENDROOT
BRANCH   3  11
ATOM     11  C   UNL     1       0.370  10.939  20.680  0.00  0.00    +0.000 A 
ATOM     12  C   UNL     1       0.166  10.350  21.947  0.00  0.00    +0.000 A 
ATOM     13  C   UNL     1       0.606   9.049  22.208  0.00  0.00    +0.000 A 
ATOM     14  C   UNL     1       1.179   8.297  21.188  0.00  0.00    +0.000 A 
ATOM     15  C   UNL     1       1.177   8.789  19.888  0.00  0.00    +0.000 A 
ATOM     16  C   UNL     1       0.697  10.069  19.624  0.00  0.00    +0.000 A 
ENDBRANCH   3  11
BRANCH   8  17
ATOM     17  N   UNL     1      -4.873  13.041  23.117  0.00  0.00    +0.000 N 
ATOM     18  O   UNL     1      -5.723  12.183  22.795  0.00  0.00    +0.000 OA
ATOM     19  O   UNL     1      -5.021  13.877  23.995  0.00  0.00    +0.000 OA
ENDBRANCH   8  17
BRANCH   1  20
ATOM     20  N   UNL     1      -1.157  12.710  17.827  0.00  0.00    +0.000 N 
ATOM     21  H   UNL     1      -0.434  12.931  17.158  0.00  0.00    +0.000 HD
BRANCH  20  26
ATOM     22  C   UNL     1      -3.195  10.256  15.488  0.00  0.00    +0.000 A 
ATOM     23  C   UNL     1      -3.631   9.327  16.400  0.00  0.00    +0.000 A 
ATOM     24  C   UNL     1      -3.287   9.488  17.760  0.00  0.00    +0.000 A 
ATOM     25  C   UNL     1      -2.506  10.594  18.230  0.00  0.00    +0.000 A 
ATOM     26  C   UNL     1      -2.066  11.600  17.347  0.00  0.00    +0.000 A 
ATOM     27  C   UNL     1      -2.412  11.341  15.967  0.00  0.00    +0.000 A 
BRANCH  22  29
ATOM     28  O   UNL     1      -4.549   9.931  13.534  0.00  0.00    +0.000 OA
ATOM     29  C   UNL     1      -3.435   9.970  14.042  0.00  0.00    +0.000 C 
BRANCH  29  30
ATOM     30  O   UNL     1      -2.305   9.838  13.325  0.00  0.00    +0.000 OA
ATOM     31  H   UNL     1      -1.898   8.948  13.289  0.00  0.00    +0.000 HD
ENDBRANCH  29  30
ENDBRANCH  22  29
ENDBRANCH  20  26
ENDBRANCH   1  20
TORSDOF 6
ENDMDL
