MODEL 1
REMARK VINA RESULT:      -9.3      0.000      0.000
REMARK  Name = 
REMARK  5 active torsions:
REMARK  status: ('A' for Active; 'I' for Inactive)
REMARK    1  A    between atoms: C_1  and  C_2
REMARK    2  A    between atoms: C_2  and  C_3
REMARK    3  A    between atoms: C_9  and  C_10
REMARK    4  A    between atoms: C_10  and  O_12
REMARK    5  A    between atoms: C_22  and  N_23
REMARK                            x       y       z     vdW  Elec       q    Type
REMARK                         _______ _______ _______ _____ _____    ______ ____
ROOT
ATOM      1  C   UNL     1       4.049   2.209  18.894  0.00  0.00    +0.000 C 
ATOM      2  C   UNL     1       3.349   3.508  18.449  0.00  0.00    +0.000 C 
ATOM      3  C   UNL     1       1.958   3.137  17.899  0.00  0.00    +0.000 C 
ATOM      4  O   UNL     1       3.152   4.278  19.675  0.00  0.00    +0.000 OA
ATOM      5  C   UNL     1       2.807   5.598  19.497  0.00  0.00    +0.000 A 
ATOM      6  C   UNL     1       2.023   6.205  20.495  0.00  0.00    +0.000 A 
ATOM      7  C   UNL     1       1.601   7.530  20.338  0.00  0.00    +0.000 A 
ATOM      8  O   UNL     1       0.800   8.099  21.305  0.00  0.00    +0.000 OA
ATOM      9  C   UNL     1       0.362   9.406  21.100  0.00  0.00    +0.000 A 
ATOM     10  C   UNL     1       0.671  10.165  20.039  0.00  0.00    +0.000 A 
ATOM     11  C   UNL     1       1.531   9.608  19.000  0.00  0.00    +0.000 A 
ATOM     12  O   UNL     1       1.846  10.268  18.019  0.00  0.00    +0.000 OA
ATOM     13  C   UNL     1       1.986   8.229  19.196  0.00  0.00    +0.000 A 
ATOM     14  C   UNL     1       2.790   7.633  18.226  0.00  0.00    +0.000 A 
ATOM     15  C   UNL     1       3.232   6.314  18.366  0.00  0.00    +0.000 A 
ATOM     16  C   UNL     1       4.078   5.657  17.368  0.00  0.00    +0.000 A 
ATOM     17  C   UNL     1       4.784   6.365  16.379  0.00  0.00    +0.000 A 
ATOM     18  C   UNL     1       5.525   5.699  15.404  0.00  0.00    +0.000 A 
ATOM     19  C   UNL     1       5.631   4.315  15.422  0.00  0.00    +0.000 A 
ATOM     20  C   UNL     1       4.912   3.600  16.386  0.00  0.00    +0.000 A 
ATOM     21  C   UNL     1       4.159   4.256  17.386  0.00  0.00    +0.000 A 
ENDROOT
BRANCH  19  22
ATOM     22  N   UNL     1       6.245   3.651  14.354  0.00  0.00    +0.000 N 
ATOM     23  H   UNL     1       6.048   2.655  14.322  0.00  0.00    +0.000 HD
ATOM     24  H   UNL     1       6.108   4.097  13.452  0.00  0.00    +0.000 HD
ENDBRANCH  19  22
BRANCH   9  25
ATOM     25  C   UNL     1      -0.525  10.044  22.114  0.00  0.00    +0.000 C 
ATOM     26  O   UNL     1      -1.020  11.155  22.003  0.00  0.00    +0.000 OA
BRANCH  25  27
ATOM     27  O   UNL     1      -0.729   9.252  23.184  0.00  0.00    +0.000 OA
ATOM     28  H   UNL     1       0.100   8.982  23.623  0.00  0.00    +0.000 HD
ENDBRANCH  25  27
ENDBRANCH   9  25
TORSDOF 3
ENDMDL
MODEL 2
REMARK VINA RESULT:      -8.9      3.574      8.020
REMARK  Name = 
REMARK  5 active torsions:
REMARK  status: ('A' for Active; 'I' for Inactive)
REMARK    1  A    between atoms: C_1  and  C_2
REMARK    2  A    between atoms: C_2  and  C_3
REMARK    3  A    between atoms: C_9  and  C_10
REMARK    4  A    between atoms: C_10  and  O_12
REMARK    5  A    between atoms: C_22  and  N_23
REMARK                            x       y       z     vdW  Elec       q    Type
REMARK                         _______ _______ _______ _____ _____    ______ ____
ROOT
ATOM      1  C   UNL     1      -0.113  12.446  18.591  0.00  0.00    +0.000 C 
ATOM      2  C   UNL     1      -0.081  10.945  18.940  0.00  0.00    +0.000 C 
ATOM      3  C   UNL     1      -1.207  10.247  18.153  0.00  0.00    +0.000 C 
ATOM      4  O   UNL     1       1.194  10.457  18.419  0.00  0.00    +0.000 OA
ATOM      5  C   UNL     1       1.578   9.212  18.863  0.00  0.00    +0.000 A 
ATOM      6  C   UNL     1       2.378   8.434  18.005  0.00  0.00    +0.000 A 
ATOM      7  C   UNL     1       2.752   7.141  18.385  0.00  0.00    +0.000 A 
ATOM      8  O   UNL     1       3.502   6.376  17.518  0.00  0.00    +0.000 OA
ATOM      9  C   UNL     1       3.824   5.078  17.907  0.00  0.00    +0.000 A 
ATOM     10  C   UNL     1       3.474   4.513  19.073  0.00  0.00    +0.000 A 
ATOM     11  C   UNL     1       2.695   5.294  20.028  0.00  0.00    +0.000 A 
ATOM     12  O   UNL     1       2.362   4.822  21.107  0.00  0.00    +0.000 OA
ATOM     13  C   UNL     1       2.337   6.656  19.623  0.00  0.00    +0.000 A 
ATOM     14  C   UNL     1       1.572   7.443  20.484  0.00  0.00    +0.000 A 
ATOM     15  C   UNL     1       1.194   8.741  20.128  0.00  0.00    +0.000 A 
ATOM     16  C   UNL     1       0.393   9.595  21.008  0.00  0.00    +0.000 A 
ATOM     17  C   UNL     1       0.220   9.334  22.378  0.00  0.00    +0.000 A 
ATOM     18  C   UNL     1      -0.606  10.132  23.168  0.00  0.00    +0.000 A 
ATOM     19  C   UNL     1      -1.235  11.246  22.627  0.00  0.00    +0.000 A 
ATOM     20  C   UNL     1      -1.090  11.500  21.259  0.00  0.00    +0.000 A 
ATOM     21  C   UNL     1      -0.254  10.706  20.442  0.00  0.00    +0.000 A 
ENDROOT
BRANCH  19  22
ATOM     22  N   UNL     1      -2.181  11.946  23.386  0.00  0.00    +0.000 N 
ATOM     23  H   UNL     1      -1.912  12.075  24.357  0.00  0.00    +0.000 HD
ATOM     24  H   UNL     1      -2.501  12.809  22.960  0.00  0.00    +0.000 HD
ENDBRANCH  19  22
BRANCH   9  25
ATOM     25  C   UNL     1       4.614   4.214  16.984  0.00  0.00    +0.000 C 
ATOM     26  O   UNL     1       5.166   4.607  15.967  0.00  0.00    +0.000 OA
BRANCH  25  27
ATOM     27  O   UNL     1       4.661   2.934  17.398  0.00  0.00    +0.000 OA
ATOM     28  H   UNL     1       4.035   2.744  18.122  0.00  0.00    +0.000 HD
ENDBRANCH  25  27
ENDBRANCH   9  25
TORSDOF 3
ENDMDL
MODEL 3
REMARK VINA RESULT:      -8.5      1.038      1.111
REMARK  Name = 
REMARK  5 active torsions:
REMARK  status: ('A' for Active; 'I' for Inactive)
REMARK    1  A    between atoms: C_1  and  C_2
REMARK    2  A    between atoms: C_2  and  C_3
REMARK    3  A    between atoms: C_9  and  C_10
REMARK    4  A    between atoms: C_10  and  O_12
REMARK    5  A    between atoms: C_22  and  N_23
REMARK                            x       y       z     vdW  Elec       q    Type
REMARK                         _______ _______ _______ _____ _____    ______ ____
ROOT
ATOM      1  C   UNL     1       3.439   2.870  20.084  0.00  0.00    +0.000 C 
ATOM      2  C   UNL     1       2.812   4.102  19.401  0.00  0.00    +0.000 C 
ATOM      3  C   UNL     1       1.421   3.698  18.873  0.00  0.00    +0.000 C 
ATOM      4  O   UNL     1       2.616   5.076  20.472  0.00  0.00    +0.000 OA
ATOM      5  C   UNL     1       2.337   6.360  20.061  0.00  0.00    +0.000 A 
ATOM      6  C   UNL     1       1.554   7.160  20.913  0.00  0.00    +0.000 A 
ATOM      7  C   UNL     1       1.197   8.454  20.519  0.00  0.00    +0.000 A 
ATOM      8  O   UNL     1       0.397   9.212  21.347  0.00  0.00    +0.000 OA
ATOM      9  C   UNL     1       0.025  10.481  20.908  0.00  0.00    +0.000 A 
ATOM     10  C   UNL     1       0.398  11.036  19.746  0.00  0.00    +0.000 A 
ATOM     11  C   UNL     1       1.261  10.275  18.848  0.00  0.00    +0.000 A 
ATOM     12  O   UNL     1       1.634  10.744  17.781  0.00  0.00    +0.000 OA
ATOM     13  C   UNL     1       1.647   8.932  19.290  0.00  0.00    +0.000 A 
ATOM     14  C   UNL     1       2.450   8.147  18.464  0.00  0.00    +0.000 A 
ATOM     15  C   UNL     1       2.826   6.854  18.841  0.00  0.00    +0.000 A 
ATOM     16  C   UNL     1       3.669   6.004  17.999  0.00  0.00    +0.000 A 
ATOM     17  C   UNL     1       4.434   6.503  16.930  0.00  0.00    +0.000 A 
ATOM     18  C   UNL     1       5.172   5.652  16.110  0.00  0.00    +0.000 A 
ATOM     19  C   UNL     1       5.213   4.287  16.365  0.00  0.00    +0.000 A 
ATOM     20  C   UNL     1       4.435   3.777  17.410  0.00  0.00    +0.000 A 
ATOM     21  C   UNL     1       3.685   4.623  18.257  0.00  0.00    +0.000 A 
ENDROOT
BRANCH  19  22
ATOM     22  N   UNL     1       5.826   3.427  15.447  0.00  0.00    +0.000 N 
ATOM     23  H   UNL     1       6.555   2.847  15.853  0.00  0.00    +0.000 HD
ATOM     24  H   UNL     1       5.177   2.887  14.884  0.00  0.00    +0.000 HD
ENDBRANCH  19  22
BRANCH   9  25
ATOM     25  C   UNL     1      -0.860  11.319  21.767  0.00  0.00    +0.000 C 
ATOM     26  O   UNL     1      -1.784  12.003  21.355  0.00  0.00    +0.000 OA
BRANCH  25  27
ATOM     27  O   UNL     1      -0.530  11.238  23.070  0.00  0.00    +0.000 OA
ATOM     28  H   UNL     1       0.403  10.990  23.214  0.00  0.00    +0.000 HD
ENDBRANCH  25  27
ENDBRANCH   9  25
TORSDOF 3
ENDMDL
MODEL 4
REMARK VINA RESULT:      -8.4      3.623      7.933
REMARK  Name = 
REMARK  5 active torsions:
REMARK  status: ('A' for Active; 'I' for Inactive)
REMARK    1  A    between atoms: C_1  and  C_2
REMARK    2  A    between atoms: C_2  and  C_3
REMARK    3  A    between atoms: C_9  and  C_10
REMARK    4  A    between atoms: C_10  and  O_12
REMARK    5  A    between atoms: C_22  and  N_23
REMARK                            x       y       z     vdW  Elec       q    Type
REMARK                         _______ _______ _______ _____ _____    ______ ____
ROOT
ATOM      1  C   UNL     1       0.644  12.026  18.592  0.00  0.00    +0.000 C 
ATOM      2  C   UNL     1       0.439  10.552  18.999  0.00  0.00    +0.000 C 
ATOM      3  C   UNL     1      -0.730   9.987  18.169  0.00  0.00    +0.000 C 
ATOM      4  O   UNL     1       1.658   9.865  18.577  0.00  0.00    +0.000 OA
ATOM      5  C   UNL     1       1.832   8.599  19.091  0.00  0.00    +0.000 A 
ATOM      6  C   UNL     1       2.557   7.677  18.315  0.00  0.00    +0.000 A 
ATOM      7  C   UNL     1       2.718   6.363  18.766  0.00  0.00    +0.000 A 
ATOM      8  O   UNL     1       3.398   5.460  17.978  0.00  0.00    +0.000 OA
ATOM      9  C   UNL     1       3.506   4.148  18.435  0.00  0.00    +0.000 A 
ATOM     10  C   UNL     1       3.012   3.694  19.597  0.00  0.00    +0.000 A 
ATOM     11  C   UNL     1       2.302   4.621  20.471  0.00  0.00    +0.000 A 
ATOM     12  O   UNL     1       1.843   4.252  21.544  0.00  0.00    +0.000 OA
ATOM     13  C   UNL     1       2.168   6.000  19.994  0.00  0.00    +0.000 A 
ATOM     14  C   UNL     1       1.477   6.926  20.774  0.00  0.00    +0.000 A 
ATOM     15  C   UNL     1       1.312   8.248  20.347  0.00  0.00    +0.000 A 
ATOM     16  C   UNL     1       0.595   9.247  21.141  0.00  0.00    +0.000 A 
ATOM     17  C   UNL     1       0.308   9.077  22.507  0.00  0.00    +0.000 A 
ATOM     18  C   UNL     1      -0.437  10.020  23.212  0.00  0.00    +0.000 A 
ATOM     19  C   UNL     1      -0.867  11.186  22.592  0.00  0.00    +0.000 A 
ATOM     20  C   UNL     1      -0.609  11.353  21.227  0.00  0.00    +0.000 A 
ATOM     21  C   UNL     1       0.148  10.411  20.495  0.00  0.00    +0.000 A 
ENDROOT
BRANCH  19  22
ATOM     22  N   UNL     1      -1.742  12.048  23.263  0.00  0.00    +0.000 N 
ATOM     23  H   UNL     1      -2.206  12.715  22.654  0.00  0.00    +0.000 HD
ATOM     24  H   UNL     1      -2.393  11.579  23.884  0.00  0.00    +0.000 HD
ENDBRANCH  19  22
BRANCH   9  25
ATOM     25  C   UNL     1       4.214   3.139  17.597  0.00  0.00    +0.000 C 
ATOM     26  O   UNL     1       3.859   1.979  17.458  0.00  0.00    +0.000 OA
BRANCH  25  27
ATOM     27  O   UNL     1       5.303   3.652  16.994  0.00  0.00    +0.000 OA
ATOM     28  H   UNL     1       5.219   4.604  16.798  0.00  0.00    +0.000 HD
ENDBRANCH  25  27
ENDBRANCH   9  25
TORSDOF 3
ENDMDL
MODEL 5
REMARK VINA RESULT:      -8.3      2.064      3.719
REMARK  Name = 
REMARK  5 active torsions:
REMARK  status: ('A' for Active; 'I' for Inactive)
REMARK    1  A    between atoms: C_1  and  C_2
REMARK    2  A    between atoms: C_2  and  C_3
REMARK    3  A    between atoms: C_9  and  C_10
REMARK    4  A    between atoms: C_10  and  O_12
REMARK    5  A    between atoms: C_22  and  N_23
REMARK                            x       y       z     vdW  Elec       q    Type
REMARK                         _______ _______ _______ _____ _____    ______ ____
ROOT
ATOM      1  C   UNL     1       5.175   5.025  16.188  0.00  0.00    +0.000 C 
ATOM      2  C   UNL     1       4.710   5.792  17.442  0.00  0.00    +0.000 C 
ATOM      3  C   UNL     1       5.897   6.628  17.958  0.00  0.00    +0.000 C 
ATOM      4  O   UNL     1       3.686   6.720  16.967  0.00  0.00    +0.000 OA
ATOM      5  C   UNL     1       2.919   7.308  17.947  0.00  0.00    +0.000 A 
ATOM      6  C   UNL     1       2.399   8.588  17.684  0.00  0.00    +0.000 A 
ATOM      7  C   UNL     1       1.657   9.253  18.666  0.00  0.00    +0.000 A 
ATOM      8  O   UNL     1       1.187  10.523  18.409  0.00  0.00    +0.000 OA
ATOM      9  C   UNL     1       0.487  11.175  19.421  0.00  0.00    +0.000 A 
ATOM     10  C   UNL     1       0.217  10.658  20.629  0.00  0.00    +0.000 A 
ATOM     11  C   UNL     1       0.680   9.309  20.937  0.00  0.00    +0.000 A 
ATOM     12  O   UNL     1       0.449   8.793  22.022  0.00  0.00    +0.000 OA
ATOM     13  C   UNL     1       1.432   8.618  19.885  0.00  0.00    +0.000 A 
ATOM     14  C   UNL     1       1.922   7.336  20.129  0.00  0.00    +0.000 A 
ATOM     15  C   UNL     1       2.658   6.649  19.158  0.00  0.00    +0.000 A 
ATOM     16  C   UNL     1       3.186   5.301  19.380  0.00  0.00    +0.000 A 
ATOM     17  C   UNL     1       2.735   4.464  20.415  0.00  0.00    +0.000 A 
ATOM     18  C   UNL     1       3.310   3.213  20.635  0.00  0.00    +0.000 A 
ATOM     19  C   UNL     1       4.310   2.739  19.796  0.00  0.00    +0.000 A 
ATOM     20  C   UNL     1       4.783   3.575  18.779  0.00  0.00    +0.000 A 
ATOM     21  C   UNL     1       4.210   4.844  18.535  0.00  0.00    +0.000 A 
ENDROOT
BRANCH  19  22
ATOM     22  N   UNL     1       4.985   1.556  20.118  0.00  0.00    +0.000 N 
ATOM     23  H   UNL     1       5.090   0.918  19.334  0.00  0.00    +0.000 HD
ATOM     24  H   UNL     1       5.857   1.697  20.616  0.00  0.00    +0.000 HD
ENDBRANCH  19  22
BRANCH   9  25
ATOM     25  C   UNL     1      -0.015  12.559  19.186  0.00  0.00    +0.000 C 
ATOM     26  O   UNL     1      -0.057  13.437  20.035  0.00  0.00    +0.000 OA
BRANCH  25  27
ATOM     27  O   UNL     1      -0.421  12.745  17.916  0.00  0.00    +0.000 OA
ATOM     28  H   UNL     1       0.199  13.286  17.392  0.00  0.00    +0.000 HD
ENDBRANCH  25  27
ENDBRANCH   9  25
TORSDOF 3
ENDMDL
MODEL 6
REMARK VINA RESULT:      -7.7      3.050      7.191
REMARK  Name = 
REMARK  5 active torsions:
REMARK  status: ('A' for Active; 'I' for Inactive)
REMARK    1  A    between atoms: C_1  and  C_2
REMARK    2  A    between atoms: C_2  and  C_3
REMARK    3  A    between atoms: C_9  and  C_10
REMARK    4  A    between atoms: C_10  and  O_12
REMARK    5  A    between atoms: C_22  and  N_23
REMARK                            x       y       z     vdW  Elec       q    Type
REMARK                         _______ _______ _______ _____ _____    ______ ____
ROOT
ATOM      1  C   UNL     1      -0.614   9.615  22.725  0.00  0.00    +0.000 C 
ATOM      2  C   UNL     1       0.622   9.207  21.898  0.00  0.00    +0.000 C 
ATOM      3  C   UNL     1       1.864   9.328  22.803  0.00  0.00    +0.000 C 
ATOM      4  O   UNL     1       0.430   7.791  21.594  0.00  0.00    +0.000 OA
ATOM      5  C   UNL     1       1.258   7.275  20.623  0.00  0.00    +0.000 A 
ATOM      6  C   UNL     1       1.586   5.910  20.705  0.00  0.00    +0.000 A 
ATOM      7  C   UNL     1       2.466   5.348  19.775  0.00  0.00    +0.000 A 
ATOM      8  O   UNL     1       2.809   4.018  19.892  0.00  0.00    +0.000 OA
ATOM      9  C   UNL     1       3.720   3.498  18.974  0.00  0.00    +0.000 A 
ATOM     10  C   UNL     1       4.281   4.187  17.970  0.00  0.00    +0.000 A 
ATOM     11  C   UNL     1       3.931   5.593  17.798  0.00  0.00    +0.000 A 
ATOM     12  O   UNL     1       4.412   6.258  16.890  0.00  0.00    +0.000 OA
ATOM     13  C   UNL     1       2.986   6.156  18.767  0.00  0.00    +0.000 A 
ATOM     14  C   UNL     1       2.633   7.502  18.669  0.00  0.00    +0.000 A 
ATOM     15  C   UNL     1       1.748   8.082  19.583  0.00  0.00    +0.000 A 
ATOM     16  C   UNL     1       1.354   9.490  19.510  0.00  0.00    +0.000 A 
ATOM     17  C   UNL     1       1.548  10.280  18.364  0.00  0.00    +0.000 A 
ATOM     18  C   UNL     1       1.221  11.635  18.355  0.00  0.00    +0.000 A 
ATOM     19  C   UNL     1       0.639  12.227  19.469  0.00  0.00    +0.000 A 
ATOM     20  C   UNL     1       0.466  11.455  20.624  0.00  0.00    +0.000 A 
ATOM     21  C   UNL     1       0.785  10.079  20.651  0.00  0.00    +0.000 A 
ENDROOT
BRANCH  19  22
ATOM     22  N   UNL     1       0.461  13.614  19.505  0.00  0.00    +0.000 N 
ATOM     23  H   UNL     1      -0.460  13.901  19.825  0.00  0.00    +0.000 HD
ATOM     24  H   UNL     1       1.204  14.118  19.978  0.00  0.00    +0.000 HD
ENDBRANCH  19  22
BRANCH   9  25
ATOM     25  C   UNL     1       4.132   2.070  19.086  0.00  0.00    +0.000 C 
ATOM     26  O   UNL     1       3.669   1.159  18.417  0.00  0.00    +0.000 OA
BRANCH  25  27
ATOM     27  O   UNL     1       5.088   1.886  20.016  0.00  0.00    +0.000 OA
ATOM     28  H   UNL     1       5.736   2.614  20.047  0.00  0.00    +0.000 HD
ENDBRANCH  25  27
ENDBRANCH   9  25
TORSDOF 3
ENDMDL
MODEL 7
REMARK VINA RESULT:      -7.5      1.867      3.451
REMARK  Name = 
REMARK  5 active torsions:
REMARK  status: ('A' for Active; 'I' for Inactive)
REMARK    1  A    between atoms: C_1  and  C_2
REMARK    2  A    between atoms: C_2  and  C_3
REMARK    3  A    between atoms: C_9  and  C_10
REMARK    4  A    between atoms: C_10  and  O_12
REMARK    5  A    between atoms: C_22  and  N_23
REMARK                            x       y       z     vdW  Elec       q    Type
REMARK                         _______ _______ _______ _____ _____    ______ ____
ROOT
ATOM      1  C   UNL     1       5.208   5.246  15.728  0.00  0.00    +0.000 C 
ATOM      2  C   UNL     1       4.674   5.741  17.087  0.00  0.00    +0.000 C 
ATOM      3  C   UNL     1       5.873   6.236  17.919  0.00  0.00    +0.000 C 
ATOM      4  O   UNL     1       3.840   6.899  16.773  0.00  0.00    +0.000 OA
ATOM      5  C   UNL     1       3.025   7.335  17.793  0.00  0.00    +0.000 A 
ATOM      6  C   UNL     1       2.700   8.704  17.825  0.00  0.00    +0.000 A 
ATOM      7  C   UNL     1       1.919   9.209  18.869  0.00  0.00    +0.000 A 
ATOM      8  O   UNL     1       1.641  10.559  18.909  0.00  0.00    +0.000 OA
ATOM      9  C   UNL     1       0.895  11.038  19.983  0.00  0.00    +0.000 A 
ATOM     10  C   UNL     1       0.407  10.286  20.980  0.00  0.00    +0.000 A 
ATOM     11  C   UNL     1       0.661   8.849  20.967  0.00  0.00    +0.000 A 
ATOM     12  O   UNL     1       0.228   8.122  21.851  0.00  0.00    +0.000 OA
ATOM     13  C   UNL     1       1.459   8.334  19.850  0.00  0.00    +0.000 A 
ATOM     14  C   UNL     1       1.755   6.973  19.797  0.00  0.00    +0.000 A 
ATOM     15  C   UNL     1       2.528   6.445  18.757  0.00  0.00    +0.000 A 
ATOM     16  C   UNL     1       2.857   5.020  18.668  0.00  0.00    +0.000 A 
ATOM     17  C   UNL     1       2.176   4.031  19.398  0.00  0.00    +0.000 A 
ATOM     18  C   UNL     1       2.563   2.693  19.338  0.00  0.00    +0.000 A 
ATOM     19  C   UNL     1       3.603   2.297  18.506  0.00  0.00    +0.000 A 
ATOM     20  C   UNL     1       4.304   3.278  17.796  0.00  0.00    +0.000 A 
ATOM     21  C   UNL     1       3.924   4.638  17.839  0.00  0.00    +0.000 A 
ENDROOT
BRANCH  19  22
ATOM     22  N   UNL     1       4.083   0.984  18.572  0.00  0.00    +0.000 N 
ATOM     23  H   UNL     1       3.391   0.282  18.326  0.00  0.00    +0.000 HD
ATOM     24  H   UNL     1       4.964   0.838  18.090  0.00  0.00    +0.000 HD
ENDBRANCH  19  22
BRANCH   9  25
ATOM     25  C   UNL     1       0.597  12.496  20.071  0.00  0.00    +0.000 C 
ATOM     26  O   UNL     1       0.625  13.269  19.126  0.00  0.00    +0.000 OA
BRANCH  25  27
ATOM     27  O   UNL     1       0.286  12.879  21.324  0.00  0.00    +0.000 OA
ATOM     28  H   UNL     1       0.649  12.283  22.006  0.00  0.00    +0.000 HD
ENDBRANCH  25  27
ENDBRANCH   9  25
TORSDOF 3
ENDMDL
MODEL 8
REMARK VINA RESULT:      -7.4      7.758     11.280
REMARK  Name = 
REMARK  5 active torsions:
REMARK  status: ('A' for Active; 'I' for Inactive)
REMARK    1  A    between atoms: C_1  and  C_2
REMARK    2  A    between atoms: C_2  and  C_3
REMARK    3  A    between atoms: C_9  and  C_10
REMARK    4  A    between atoms: C_10  and  O_12
REMARK    5  A    between atoms: C_22  and  N_23
REMARK                            x       y       z     vdW  Elec       q    Type
REMARK                         _______ _______ _______ _____ _____    ______ ____
ROOT
ATOM      1  C   UNL     1      -7.593  14.128  21.161  0.00  0.00    +0.000 C 
ATOM      2  C   UNL     1      -6.608  13.024  20.729  0.00  0.00    +0.000 C 
ATOM      3  C   UNL     1      -7.311  11.663  20.902  0.00  0.00    +0.000 C 
ATOM      4  O   UNL     1      -6.396  13.236  19.298  0.00  0.00    +0.000 OA
ATOM      5  C   UNL     1      -5.335  12.554  18.748  0.00  0.00    +0.000 A 
ATOM      6  C   UNL     1      -5.426  12.196  17.391  0.00  0.00    +0.000 A 
ATOM      7  C   UNL     1      -4.399  11.455  16.797  0.00  0.00    +0.000 A 
ATOM      8  O   UNL     1      -4.519  11.078  15.477  0.00  0.00    +0.000 OA
ATOM      9  C   UNL     1      -3.499  10.306  14.925  0.00  0.00    +0.000 A 
ATOM     10  C   UNL     1      -2.393   9.912  15.574  0.00  0.00    +0.000 A 
ATOM     11  C   UNL     1      -2.216  10.306  16.968  0.00  0.00    +0.000 A 
ATOM     12  O   UNL     1      -1.219   9.977  17.596  0.00  0.00    +0.000 OA
ATOM     13  C   UNL     1      -3.290  11.105  17.564  0.00  0.00    +0.000 A 
ATOM     14  C   UNL     1      -3.189  11.490  18.900  0.00  0.00    +0.000 A 
ATOM     15  C   UNL     1      -4.200  12.238  19.513  0.00  0.00    +0.000 A 
ATOM     16  C   UNL     1      -4.127  12.662  20.912  0.00  0.00    +0.000 A 
ATOM     17  C   UNL     1      -2.932  12.653  21.653  0.00  0.00    +0.000 A 
ATOM     18  C   UNL     1      -2.915  12.999  23.002  0.00  0.00    +0.000 A 
ATOM     19  C   UNL     1      -4.077  13.418  23.637  0.00  0.00    +0.000 A 
ATOM     20  C   UNL     1      -5.277  13.405  22.917  0.00  0.00    +0.000 A 
ATOM     21  C   UNL     1      -5.314  13.063  21.546  0.00  0.00    +0.000 A 
ENDROOT
BRANCH  19  22
ATOM     22  N   UNL     1      -4.081  13.611  25.023  0.00  0.00    +0.000 N 
ATOM     23  H   UNL     1      -3.470  14.361  25.334  0.00  0.00    +0.000 HD
ATOM     24  H   UNL     1      -5.007  13.677  25.433  0.00  0.00    +0.000 HD
ENDBRANCH  19  22
BRANCH   9  25
ATOM     25  C   UNL     1      -3.608   9.859  13.507  0.00  0.00    +0.000 C 
ATOM     26  O   UNL     1      -4.659   9.627  12.930  0.00  0.00    +0.000 OA
BRANCH  25  27
ATOM     27  O   UNL     1      -2.404   9.740  12.916  0.00  0.00    +0.000 OA
ATOM     28  H   UNL     1      -2.418   9.978  11.969  0.00  0.00    +0.000 HD
ENDBRANCH  25  27
ENDBRANCH   9  25
TORSDOF 3
ENDMDL
MODEL 9
REMARK VINA RESULT:      -7.4      8.716      9.757
REMARK  Name = 
REMARK  5 active torsions:
REMARK  status: ('A' for Active; 'I' for Inactive)
REMARK    1  A    between atoms: C_1  and  C_2
REMARK    2  A    between atoms: C_2  and  C_3
REMARK    3  A    between atoms: C_9  and  C_10
REMARK    4  A    between atoms: C_10  and  O_12
REMARK    5  A    between atoms: C_22  and  N_23
REMARK                            x       y       z     vdW  Elec       q    Type
REMARK                         _______ _______ _______ _____ _____    ______ ____
ROOT
ATOM      1  C   UNL     1      11.592  11.325  18.239  0.00  0.00    +0.000 C 
ATOM      2  C   UNL     1      10.286  11.888  18.835  0.00  0.00    +0.000 C 
ATOM      3  C   UNL     1       9.104  11.158  18.167  0.00  0.00    +0.000 C 
ATOM      4  O   UNL     1      10.309  11.501  20.244  0.00  0.00    +0.000 OA
ATOM      5  C   UNL     1       9.389  12.136  21.048  0.00  0.00    +0.000 A 
ATOM      6  C   UNL     1       8.917  11.436  22.173  0.00  0.00    +0.000 A 
ATOM      7  C   UNL     1       7.942  12.014  22.993  0.00  0.00    +0.000 A 
ATOM      8  O   UNL     1       7.460  11.301  24.070  0.00  0.00    +0.000 OA
ATOM      9  C   UNL     1       6.461  11.887  24.843  0.00  0.00    +0.000 A 
ATOM     10  C   UNL     1       5.937  13.104  24.634  0.00  0.00    +0.000 A 
ATOM     11  C   UNL     1       6.432  13.901  23.516  0.00  0.00    +0.000 A 
ATOM     12  O   UNL     1       5.989  15.019  23.292  0.00  0.00    +0.000 OA
ATOM     13  C   UNL     1       7.472  13.289  22.685  0.00  0.00    +0.000 A 
ATOM     14  C   UNL     1       7.967  13.992  21.587  0.00  0.00    +0.000 A 
ATOM     15  C   UNL     1       8.947  13.437  20.758  0.00  0.00    +0.000 A 
ATOM     16  C   UNL     1       9.491  14.146  19.599  0.00  0.00    +0.000 A 
ATOM     17  C   UNL     1       9.336  15.530  19.408  0.00  0.00    +0.000 A 
ATOM     18  C   UNL     1       9.810  16.159  18.257  0.00  0.00    +0.000 A 
ATOM     19  C   UNL     1      10.499  15.436  17.292  0.00  0.00    +0.000 A 
ATOM     20  C   UNL     1      10.635  14.054  17.460  0.00  0.00    +0.000 A 
ATOM     21  C   UNL     1      10.167  13.399  18.622  0.00  0.00    +0.000 A 
ENDROOT
BRANCH  19  22
ATOM     22  N   UNL     1      10.830  16.042  16.075  0.00  0.00    +0.000 N 
ATOM     23  H   UNL     1      10.044  16.138  15.438  0.00  0.00    +0.000 HD
ATOM     24  H   UNL     1      11.354  16.906  16.168  0.00  0.00    +0.000 HD
ENDBRANCH  19  22
BRANCH   9  25
ATOM     25  C   UNL     1       5.900  11.134  26.002  0.00  0.00    +0.000 C 
ATOM     26  O   UNL     1       6.339  11.182  27.140  0.00  0.00    +0.000 OA
BRANCH  25  27
ATOM     27  O   UNL     1       4.835  10.386  25.656  0.00  0.00    +0.000 OA
ATOM     28  H   UNL     1       4.831   9.508  26.082  0.00  0.00    +0.000 HD
ENDBRANCH  25  27
ENDBRANCH   9  25
TORSDOF 3
ENDMDL
