MODEL 1
REMARK VINA RESULT:      -6.2      0.000      0.000
REMARK  Name = 
REMARK  6 active torsions:
REMARK  status: ('A' for Active; 'I' for Inactive)
REMARK    1  A    between atoms: C_1  and  C_2
REMARK    2  A    between atoms: C_2  and  CA_3
REMARK    3  A    between atoms: CA_3  and  C_4
REMARK    4  A    between atoms: CA_3  and  N_6
REMARK    5  A    between atoms: C_4  and  O_5
REMARK    6  A    between atoms: C_7  and  C_9
REMARK                            x       y       z     vdW  Elec       q    Type
REMARK                         _______ _______ _______ _____ _____    ______ ____
ROOT
ATOM      1  N   UNL     1       5.956   4.458  14.067  0.00  0.00    +0.000 N 
ATOM      2  C   UNL     1       6.358   4.787  15.349  0.00  0.00    +0.000 C 
ATOM      3  O   UNL     1       7.533   4.666  15.697  0.00  0.00    +0.000 OA
ATOM      4  H   UNL     1       4.972   4.560  13.832  0.00  0.00    +0.000 HD
ENDROOT
BRANCH   2   5
ATOM      5  C   UNL     1       5.321   5.284  16.240  0.00  0.00    +0.000 A 
ATOM      6  C   UNL     1       4.921   6.614  16.398  0.00  0.00    +0.000 A 
ATOM      7  C   UNL     1       3.918   6.734  17.383  0.00  0.00    +0.000 A 
ATOM      8  C   UNL     1       3.602   5.529  17.938  0.00  0.00    +0.000 A 
ATOM      9  S   UNL     1       4.420   4.232  17.277  0.00  0.00    +0.000 S 
ATOM     10  C   UNL     1       2.614   5.594  19.033  0.00  0.00    +0.000 C 
ATOM     11  C   UNL     1       2.286   7.118  19.082  0.00  0.00    +0.000 C 
ATOM     12  C   UNL     1       3.144   7.840  17.992  0.00  0.00    +0.000 C 
ENDBRANCH   2   5
BRANCH   1  13
ATOM     13  CA  UNL     1       6.879   3.941  13.058  0.00  0.00    +0.000 C 
BRANCH  13  15
ATOM     14  C   UNL     1       4.716   3.401  11.782  0.00  0.00    +0.000 C 
ATOM     15  C   UNL     1       6.144   2.976  12.107  0.00  0.00    +0.000 C 
ENDBRANCH  13  15
BRANCH  13  16
ATOM     16  C   UNL     1       7.571   5.106  12.325  0.00  0.00    +0.000 C 
BRANCH  16  17
ATOM     17  O   UNL     1       8.519   5.768  13.161  0.00  0.00    +0.000 OA
ATOM     18  H   UNL     1       9.389   5.367  12.999  0.00  0.00    +0.000 HD
ENDBRANCH  16  17
ENDBRANCH  13  16
ENDBRANCH   1  13
TORSDOF 5
ENDMDL
MODEL 2
REMARK VINA RESULT:      -6.1      0.936      1.514
REMARK  Name = 
REMARK  6 active torsions:
REMARK  status: ('A' for Active; 'I' for Inactive)
REMARK    1  A    between atoms: C_1  and  C_2
REMARK    2  A    between atoms: C_2  and  CA_3
REMARK    3  A    between atoms: CA_3  and  C_4
REMARK    4  A    between atoms: CA_3  and  N_6
REMARK    5  A    between atoms: C_4  and  O_5
REMARK    6  A    between atoms: C_7  and  C_9
REMARK                            x       y       z     vdW  Elec       q    Type
REMARK                         _______ _______ _______ _____ _____    ______ ____
ROOT
ATOM      1  N   UNL     1       6.189   4.434  14.124  0.00  0.00    +0.000 N 
ATOM      2  C   UNL     1       6.573   4.628  15.438  0.00  0.00    +0.000 C 
ATOM      3  O   UNL     1       7.756   4.552  15.772  0.00  0.00    +0.000 OA
ATOM      4  H   UNL     1       5.199   4.491  13.900  0.00  0.00    +0.000 HD
ENDROOT
BRANCH   2   5
ATOM      5  C   UNL     1       5.507   4.928  16.382  0.00  0.00    +0.000 A 
ATOM      6  C   UNL     1       4.626   4.013  16.966  0.00  0.00    +0.000 A 
ATOM      7  C   UNL     1       3.691   4.664  17.798  0.00  0.00    +0.000 A 
ATOM      8  C   UNL     1       3.876   6.014  17.815  0.00  0.00    +0.000 A 
ATOM      9  S   UNL     1       5.178   6.542  16.913  0.00  0.00    +0.000 S 
ATOM     10  C   UNL     1       2.880   6.765  18.606  0.00  0.00    +0.000 C 
ATOM     11  C   UNL     1       1.985   5.617  19.169  0.00  0.00    +0.000 C 
ATOM     12  C   UNL     1       2.538   4.256  18.634  0.00  0.00    +0.000 C 
ENDBRANCH   2   5
BRANCH   1  13
ATOM     13  CA  UNL     1       7.141   4.120  13.060  0.00  0.00    +0.000 C 
BRANCH  13  15
ATOM     14  C   UNL     1       4.962   3.329  11.954  0.00  0.00    +0.000 C 
ATOM     15  C   UNL     1       6.482   3.212  12.004  0.00  0.00    +0.000 C 
ENDBRANCH  13  15
BRANCH  13  16
ATOM     16  C   UNL     1       7.722   5.418  12.468  0.00  0.00    +0.000 C 
BRANCH  16  17
ATOM     17  O   UNL     1       8.815   5.910  13.241  0.00  0.00    +0.000 OA
ATOM     18  H   UNL     1       8.555   6.772  13.607  0.00  0.00    +0.000 HD
ENDBRANCH  16  17
ENDBRANCH  13  16
ENDBRANCH   1  13
TORSDOF 5
ENDMDL
MODEL 3
REMARK VINA RESULT:      -6.1      2.896      6.258
REMARK  Name = 
REMARK  6 active torsions:
REMARK  status: ('A' for Active; 'I' for Inactive)
REMARK    1  A    between atoms: C_1  and  C_2
REMARK    2  A    between atoms: C_2  and  CA_3
REMARK    3  A    between atoms: CA_3  and  C_4
REMARK    4  A    between atoms: CA_3  and  N_6
REMARK    5  A    between atoms: C_4  and  O_5
REMARK    6  A    between atoms: C_7  and  C_9
REMARK                            x       y       z     vdW  Elec       q    Type
REMARK                         _______ _______ _______ _____ _____    ______ ____
ROOT
ATOM      1  N   UNL     1       4.126   3.469  17.770  0.00  0.00    +0.000 N 
ATOM      2  C   UNL     1       5.366   4.061  17.616  0.00  0.00    +0.000 C 
ATOM      3  O   UNL     1       6.025   4.420  18.593  0.00  0.00    +0.000 OA
ATOM      4  H   UNL     1       3.614   3.204  16.933  0.00  0.00    +0.000 HD
ENDROOT
BRANCH   2   5
ATOM      5  C   UNL     1       5.837   4.222  16.249  0.00  0.00    +0.000 A 
ATOM      6  C   UNL     1       5.409   3.506  15.128  0.00  0.00    +0.000 A 
ATOM      7  C   UNL     1       6.116   3.896  13.971  0.00  0.00    +0.000 A 
ATOM      8  C   UNL     1       7.041   4.861  14.239  0.00  0.00    +0.000 A 
ATOM      9  S   UNL     1       7.059   5.374  15.828  0.00  0.00    +0.000 S 
ATOM     10  C   UNL     1       7.872   5.259  13.085  0.00  0.00    +0.000 C 
ATOM     11  C   UNL     1       7.280   4.376  11.943  0.00  0.00    +0.000 C 
ATOM     12  C   UNL     1       6.132   3.501  12.544  0.00  0.00    +0.000 C 
ENDBRANCH   2   5
BRANCH   1  13
ATOM     13  CA  UNL     1       3.515   3.242  19.079  0.00  0.00    +0.000 C 
BRANCH  13  15
ATOM     14  C   UNL     1       1.545   4.342  17.852  0.00  0.00    +0.000 C 
ATOM     15  C   UNL     1       1.988   3.437  18.996  0.00  0.00    +0.000 C 
ENDBRANCH  13  15
BRANCH  13  16
ATOM     16  C   UNL     1       3.923   1.861  19.623  0.00  0.00    +0.000 C 
BRANCH  16  17
ATOM     17  O   UNL     1       5.222   1.887  20.213  0.00  0.00    +0.000 OA
ATOM     18  H   UNL     1       5.386   2.791  20.530  0.00  0.00    +0.000 HD
ENDBRANCH  16  17
ENDBRANCH  13  16
ENDBRANCH   1  13
TORSDOF 5
ENDMDL
MODEL 4
REMARK VINA RESULT:      -6.1      2.228      3.144
REMARK  Name = 
REMARK  6 active torsions:
REMARK  status: ('A' for Active; 'I' for Inactive)
REMARK    1  A    between atoms: C_1  and  C_2
REMARK    2  A    between atoms: C_2  and  CA_3
REMARK    3  A    between atoms: CA_3  and  C_4
REMARK    4  A    between atoms: CA_3  and  N_6
REMARK    5  A    between atoms: C_4  and  O_5
REMARK    6  A    between atoms: C_7  and  C_9
REMARK                            x       y       z     vdW  Elec       q    Type
REMARK                         _______ _______ _______ _____ _____    ______ ____
ROOT
ATOM      1  N   UNL     1       5.470   3.533  16.046  0.00  0.00    +0.000 N 
ATOM      2  C   UNL     1       4.717   4.507  16.675  0.00  0.00    +0.000 C 
ATOM      3  O   UNL     1       4.748   5.679  16.295  0.00  0.00    +0.000 OA
ATOM      4  H   UNL     1       5.424   2.584  16.406  0.00  0.00    +0.000 HD
ENDROOT
BRANCH   2   5
ATOM      5  C   UNL     1       3.896   4.064  17.792  0.00  0.00    +0.000 A 
ATOM      6  C   UNL     1       2.547   3.703  17.745  0.00  0.00    +0.000 A 
ATOM      7  C   UNL     1       2.062   3.369  19.027  0.00  0.00    +0.000 A 
ATOM      8  C   UNL     1       3.025   3.494  19.985  0.00  0.00    +0.000 A 
ATOM      9  S   UNL     1       4.524   3.939  19.400  0.00  0.00    +0.000 S 
ATOM     10  C   UNL     1       2.562   3.235  21.363  0.00  0.00    +0.000 C 
ATOM     11  C   UNL     1       1.065   2.861  21.135  0.00  0.00    +0.000 C 
ATOM     12  C   UNL     1       0.764   2.950  19.604  0.00  0.00    +0.000 C 
ENDBRANCH   2   5
BRANCH   1  13
ATOM     13  CA  UNL     1       6.348   3.822  14.913  0.00  0.00    +0.000 C 
BRANCH  13  15
ATOM     14  C   UNL     1       5.942   3.323  12.427  0.00  0.00    +0.000 C 
ATOM     15  C   UNL     1       5.513   4.121  13.653  0.00  0.00    +0.000 C 
ENDBRANCH  13  15
BRANCH  13  16
ATOM     16  C   UNL     1       7.328   4.954  15.275  0.00  0.00    +0.000 C 
BRANCH  16  17
ATOM     17  O   UNL     1       7.847   5.597  14.113  0.00  0.00    +0.000 OA
ATOM     18  H   UNL     1       8.043   6.520  14.346  0.00  0.00    +0.000 HD
ENDBRANCH  16  17
ENDBRANCH  13  16
ENDBRANCH   1  13
TORSDOF 5
ENDMDL
MODEL 5
REMARK VINA RESULT:      -6.0      2.420      3.708
REMARK  Name = 
REMARK  6 active torsions:
REMARK  status: ('A' for Active; 'I' for Inactive)
REMARK    1  A    between atoms: C_1  and  C_2
REMARK    2  A    between atoms: C_2  and  CA_3
REMARK    3  A    between atoms: CA_3  and  C_4
REMARK    4  A    between atoms: CA_3  and  N_6
REMARK    5  A    between atoms: C_4  and  O_5
REMARK    6  A    between atoms: C_7  and  C_9
REMARK                            x       y       z     vdW  Elec       q    Type
REMARK                         _______ _______ _______ _____ _____    ______ ____
ROOT
ATOM      1  N   UNL     1       4.964   4.368  16.084  0.00  0.00    +0.000 N 
ATOM      2  C   UNL     1       4.323   5.200  16.984  0.00  0.00    +0.000 C 
ATOM      3  O   UNL     1       4.340   6.423  16.843  0.00  0.00    +0.000 OA
ATOM      4  H   UNL     1       4.935   3.367  16.252  0.00  0.00    +0.000 HD
ENDROOT
BRANCH   2   5
ATOM      5  C   UNL     1       3.634   4.546  18.086  0.00  0.00    +0.000 A 
ATOM      6  C   UNL     1       2.268   4.613  18.375  0.00  0.00    +0.000 A 
ATOM      7  C   UNL     1       1.957   3.890  19.547  0.00  0.00    +0.000 A 
ATOM      8  C   UNL     1       3.064   3.322  20.104  0.00  0.00    +0.000 A 
ATOM      9  S   UNL     1       4.472   3.565  19.240  0.00  0.00    +0.000 S 
ATOM     10  C   UNL     1       2.821   2.616  21.378  0.00  0.00    +0.000 C 
ATOM     11  C   UNL     1       1.281   2.791  21.554  0.00  0.00    +0.000 C 
ATOM     12  C   UNL     1       0.739   3.620  20.344  0.00  0.00    +0.000 C 
ENDBRANCH   2   5
BRANCH   1  13
ATOM     13  CA  UNL     1       5.703   4.875  14.928  0.00  0.00    +0.000 C 
BRANCH  13  15
ATOM     14  C   UNL     1       7.555   4.530  16.673  0.00  0.00    +0.000 C 
ATOM     15  C   UNL     1       7.206   4.968  15.256  0.00  0.00    +0.000 C 
ENDBRANCH  13  15
BRANCH  13  16
ATOM     16  C   UNL     1       5.404   4.013  13.688  0.00  0.00    +0.000 C 
BRANCH  16  17
ATOM     17  O   UNL     1       6.571   3.345  13.213  0.00  0.00    +0.000 OA
ATOM     18  H   UNL     1       7.107   3.097  13.985  0.00  0.00    +0.000 HD
ENDBRANCH  16  17
ENDBRANCH  13  16
ENDBRANCH   1  13
TORSDOF 5
ENDMDL
MODEL 6
REMARK VINA RESULT:      -6.0      2.447      3.520
REMARK  Name = 
REMARK  6 active torsions:
REMARK  status: ('A' for Active; 'I' for Inactive)
REMARK    1  A    between atoms: C_1  and  C_2
REMARK    2  A    between atoms: C_2  and  CA_3
REMARK    3  A    between atoms: CA_3  and  C_4
REMARK    4  A    between atoms: CA_3  and  N_6
REMARK    5  A    between atoms: C_4  and  O_5
REMARK    6  A    between atoms: C_7  and  C_9
REMARK                            x       y       z     vdW  Elec       q    Type
REMARK                         _______ _______ _______ _____ _____    ______ ____
ROOT
ATOM      1  N   UNL     1       5.427   3.468  16.531  0.00  0.00    +0.000 N 
ATOM      2  C   UNL     1       4.621   4.474  17.031  0.00  0.00    +0.000 C 
ATOM      3  O   UNL     1       4.645   5.607  16.549  0.00  0.00    +0.000 OA
ATOM      4  H   UNL     1       5.383   2.554  16.973  0.00  0.00    +0.000 HD
ENDROOT
BRANCH   2   5
ATOM      5  C   UNL     1       3.753   4.111  18.142  0.00  0.00    +0.000 A 
ATOM      6  C   UNL     1       4.137   3.488  19.333  0.00  0.00    +0.000 A 
ATOM      7  C   UNL     1       3.023   3.246  20.165  0.00  0.00    +0.000 A 
ATOM      8  C   UNL     1       1.859   3.667  19.595  0.00  0.00    +0.000 A 
ATOM      9  S   UNL     1       2.048   4.410  18.111  0.00  0.00    +0.000 S 
ATOM     10  C   UNL     1       0.644   3.372  20.380  0.00  0.00    +0.000 C 
ATOM     11  C   UNL     1       1.239   2.684  21.648  0.00  0.00    +0.000 C 
ATOM     12  C   UNL     1       2.793   2.619  21.487  0.00  0.00    +0.000 C 
ENDBRANCH   2   5
BRANCH   1  13
ATOM     13  CA  UNL     1       6.356   3.678  15.422  0.00  0.00    +0.000 C 
BRANCH  13  15
ATOM     14  C   UNL     1       6.064   3.617  12.871  0.00  0.00    +0.000 C 
ATOM     15  C   UNL     1       5.603   4.223  14.192  0.00  0.00    +0.000 C 
ENDBRANCH  13  15
BRANCH  13  16
ATOM     16  C   UNL     1       7.522   4.578  15.869  0.00  0.00    +0.000 C 
BRANCH  16  17
ATOM     17  O   UNL     1       7.341   5.928  15.445  0.00  0.00    +0.000 OA
ATOM     18  H   UNL     1       8.127   6.187  14.934  0.00  0.00    +0.000 HD
ENDBRANCH  16  17
ENDBRANCH  13  16
ENDBRANCH   1  13
TORSDOF 5
ENDMDL
MODEL 7
REMARK VINA RESULT:      -5.9      2.642      4.299
REMARK  Name = 
REMARK  6 active torsions:
REMARK  status: ('A' for Active; 'I' for Inactive)
REMARK    1  A    between atoms: C_1  and  C_2
REMARK    2  A    between atoms: C_2  and  CA_3
REMARK    3  A    between atoms: CA_3  and  C_4
REMARK    4  A    between atoms: CA_3  and  N_6
REMARK    5  A    between atoms: C_4  and  O_5
REMARK    6  A    between atoms: C_7  and  C_9
REMARK                            x       y       z     vdW  Elec       q    Type
REMARK                         _______ _______ _______ _____ _____    ______ ____
ROOT
ATOM      1  N   UNL     1       5.693   5.284  17.187  0.00  0.00    +0.000 N 
ATOM      2  C   UNL     1       4.463   5.778  17.581  0.00  0.00    +0.000 C 
ATOM      3  O   UNL     1       4.041   6.852  17.148  0.00  0.00    +0.000 OA
ATOM      4  H   UNL     1       6.005   4.402  17.584  0.00  0.00    +0.000 HD
ENDROOT
BRANCH   2   5
ATOM      5  C   UNL     1       3.711   4.959  18.519  0.00  0.00    +0.000 A 
ATOM      6  C   UNL     1       2.334   5.007  18.753  0.00  0.00    +0.000 A 
ATOM      7  C   UNL     1       1.955   4.100  19.765  0.00  0.00    +0.000 A 
ATOM      8  C   UNL     1       3.024   3.416  20.263  0.00  0.00    +0.000 A 
ATOM      9  S   UNL     1       4.476   3.772  19.520  0.00  0.00    +0.000 S 
ATOM     10  C   UNL     1       2.708   2.505  21.382  0.00  0.00    +0.000 C 
ATOM     11  C   UNL     1       1.163   2.684  21.516  0.00  0.00    +0.000 C 
ATOM     12  C   UNL     1       0.695   3.724  20.447  0.00  0.00    +0.000 C 
ENDBRANCH   2   5
BRANCH   1  13
ATOM     13  CA  UNL     1       6.568   5.993  16.255  0.00  0.00    +0.000 C 
BRANCH  13  15
ATOM     14  C   UNL     1       7.794   6.527  18.448  0.00  0.00    +0.000 C 
ATOM     15  C   UNL     1       7.487   6.965  17.020  0.00  0.00    +0.000 C 
ENDBRANCH  13  15
BRANCH  13  16
ATOM     16  C   UNL     1       7.340   4.986  15.381  0.00  0.00    +0.000 C 
BRANCH  16  17
ATOM     17  O   UNL     1       7.815   5.585  14.177  0.00  0.00    +0.000 OA
ATOM     18  H   UNL     1       7.691   6.546  14.254  0.00  0.00    +0.000 HD
ENDBRANCH  16  17
ENDBRANCH  13  16
ENDBRANCH   1  13
TORSDOF 5
ENDMDL
MODEL 8
REMARK VINA RESULT:      -5.9      2.608      4.285
REMARK  Name = 
REMARK  6 active torsions:
REMARK  status: ('A' for Active; 'I' for Inactive)
REMARK    1  A    between atoms: C_1  and  C_2
REMARK    2  A    between atoms: C_2  and  CA_3
REMARK    3  A    between atoms: CA_3  and  C_4
REMARK    4  A    between atoms: CA_3  and  N_6
REMARK    5  A    between atoms: C_4  and  O_5
REMARK    6  A    between atoms: C_7  and  C_9
REMARK                            x       y       z     vdW  Elec       q    Type
REMARK                         _______ _______ _______ _____ _____    ______ ____
ROOT
ATOM      1  N   UNL     1       5.355   5.429  17.082  0.00  0.00    +0.000 N 
ATOM      2  C   UNL     1       4.242   6.073  17.589  0.00  0.00    +0.000 C 
ATOM      3  O   UNL     1       3.995   7.243  17.295  0.00  0.00    +0.000 OA
ATOM      4  H   UNL     1       5.525   4.468  17.368  0.00  0.00    +0.000 HD
ENDROOT
BRANCH   2   5
ATOM      5  C   UNL     1       3.392   5.289  18.473  0.00  0.00    +0.000 A 
ATOM      6  C   UNL     1       3.568   5.096  19.846  0.00  0.00    +0.000 A 
ATOM      7  C   UNL     1       2.578   4.240  20.373  0.00  0.00    +0.000 A 
ATOM      8  C   UNL     1       1.711   3.811  19.413  0.00  0.00    +0.000 A 
ATOM      9  S   UNL     1       1.995   4.446  17.895  0.00  0.00    +0.000 S 
ATOM     10  C   UNL     1       0.695   2.847  19.882  0.00  0.00    +0.000 C 
ATOM     11  C   UNL     1       1.032   2.740  21.402  0.00  0.00    +0.000 C 
ATOM     12  C   UNL     1       2.260   3.661  21.699  0.00  0.00    +0.000 C 
ENDBRANCH   2   5
BRANCH   1  13
ATOM     13  CA  UNL     1       6.307   6.083  16.186  0.00  0.00    +0.000 C 
BRANCH  13  15
ATOM     14  C   UNL     1       7.522   7.942  17.477  0.00  0.00    +0.000 C 
ATOM     15  C   UNL     1       7.568   6.507  16.964  0.00  0.00    +0.000 C 
ENDBRANCH  13  15
BRANCH  13  16
ATOM     16  C   UNL     1       6.613   5.174  14.981  0.00  0.00    +0.000 C 
BRANCH  16  17
ATOM     17  O   UNL     1       7.886   5.466  14.407  0.00  0.00    +0.000 OA
ATOM     18  H   UNL     1       7.762   5.575  13.450  0.00  0.00    +0.000 HD
ENDBRANCH  16  17
ENDBRANCH  13  16
ENDBRANCH   1  13
TORSDOF 5
ENDMDL
MODEL 9
REMARK VINA RESULT:      -5.9      2.848      6.496
REMARK  Name = 
REMARK  6 active torsions:
REMARK  status: ('A' for Active; 'I' for Inactive)
REMARK    1  A    between atoms: C_1  and  C_2
REMARK    2  A    between atoms: C_2  and  CA_3
REMARK    3  A    between atoms: CA_3  and  C_4
REMARK    4  A    between atoms: CA_3  and  N_6
REMARK    5  A    between atoms: C_4  and  O_5
REMARK    6  A    between atoms: C_7  and  C_9
REMARK                            x       y       z     vdW  Elec       q    Type
REMARK                         _______ _______ _______ _____ _____    ______ ____
ROOT
ATOM      1  N   UNL     1       3.863   3.890  17.986  0.00  0.00    +0.000 N 
ATOM      2  C   UNL     1       5.216   4.141  17.845  0.00  0.00    +0.000 C 
ATOM      3  O   UNL     1       5.953   4.230  18.828  0.00  0.00    +0.000 OA
ATOM      4  H   UNL     1       3.294   3.842  17.146  0.00  0.00    +0.000 HD
ENDROOT
BRANCH   2   5
ATOM      5  C   UNL     1       5.704   4.284  16.481  0.00  0.00    +0.000 A 
ATOM      6  C   UNL     1       5.272   3.570  15.360  0.00  0.00    +0.000 A 
ATOM      7  C   UNL     1       5.999   3.937  14.208  0.00  0.00    +0.000 A 
ATOM      8  C   UNL     1       6.942   4.884  14.480  0.00  0.00    +0.000 A 
ATOM      9  S   UNL     1       6.954   5.406  16.066  0.00  0.00    +0.000 S 
ATOM     10  C   UNL     1       7.793   5.257  13.332  0.00  0.00    +0.000 C 
ATOM     11  C   UNL     1       7.193   4.380  12.189  0.00  0.00    +0.000 C 
ATOM     12  C   UNL     1       6.021   3.533  12.784  0.00  0.00    +0.000 C 
ENDBRANCH   2   5
BRANCH   1  13
ATOM     13  CA  UNL     1       3.222   3.728  19.291  0.00  0.00    +0.000 C 
BRANCH  13  15
ATOM     14  C   UNL     1       1.820   5.497  20.515  0.00  0.00    +0.000 C 
ATOM     15  C   UNL     1       1.906   4.527  19.342  0.00  0.00    +0.000 C 
ENDBRANCH  13  15
BRANCH  13  16
ATOM     16  C   UNL     1       3.038   2.232  19.608  0.00  0.00    +0.000 C 
BRANCH  16  17
ATOM     17  O   UNL     1       2.738   1.475  18.437  0.00  0.00    +0.000 OA
ATOM     18  H   UNL     1       1.784   1.287  18.441  0.00  0.00    +0.000 HD
ENDBRANCH  16  17
ENDBRANCH  13  16
ENDBRANCH   1  13
TORSDOF 5
ENDMDL
