MODEL 1
REMARK VINA RESULT:      -7.3      0.000      0.000
REMARK  Name = 
REMARK  2 active torsions:
REMARK  status: ('A' for Active; 'I' for Inactive)
REMARK    1  A    between atoms: C_1  and  N_2
REMARK    2  A    between atoms: C_6  and  C_7
REMARK                            x       y       z     vdW  Elec       q    Type
REMARK                         _______ _______ _______ _____ _____    ______ ____
ROOT
ATOM      1  C   UNL     1       3.414   4.936  17.591  0.00  0.00    +0.000 C 
ATOM      2  O   UNL     1       3.036   6.104  17.711  0.00  0.00    +0.000 OA
ATOM      3  N   UNL     1       2.618   3.862  18.029  0.00  0.00    +0.000 N 
ATOM      4  C   UNL     1       1.293   4.157  18.577  0.00  0.00    +0.000 C 
ATOM      5  C   UNL     1       0.912   3.388  19.845  0.00  0.00    +0.000 C 
ATOM      6  C   UNL     1       1.847   3.655  21.026  0.00  0.00    +0.000 C 
ATOM      7  C   UNL     1       2.925   2.598  21.273  0.00  0.00    +0.000 C 
ATOM      8  C   UNL     1       3.935   2.377  20.148  0.00  0.00    +0.000 C 
ATOM      9  C   UNL     1       3.360   1.616  18.952  0.00  0.00    +0.000 C 
ATOM     10  C   UNL     1       2.926   2.461  17.750  0.00  0.00    +0.000 C 
ENDROOT
BRANCH   1  16
ATOM     11  C   UNL     1       7.861   4.571  17.755  0.00  0.00    +0.000 C 
ATOM     12  N   UNL     1       7.197   5.486  16.830  0.00  0.00    +0.000 NA
ATOM     13  C   UNL     1       7.172   4.958  15.451  0.00  0.00    +0.000 C 
ATOM     14  C   UNL     1       6.110   3.870  15.205  0.00  0.00    +0.000 C 
ATOM     15  O   UNL     1       4.809   4.293  15.632  0.00  0.00    +0.000 OA
ATOM     16  C   UNL     1       4.822   4.613  17.032  0.00  0.00    +0.000 C 
ATOM     17  C   UNL     1       5.803   5.788  17.256  0.00  0.00    +0.000 C 
ENDBRANCH   1  16
TORSDOF 1
ENDMDL
MODEL 2
REMARK VINA RESULT:      -7.2      2.002      3.035
REMARK  Name = 
REMARK  2 active torsions:
REMARK  status: ('A' for Active; 'I' for Inactive)
REMARK    1  A    between atoms: C_1  and  N_2
REMARK    2  A    between atoms: C_6  and  C_7
REMARK                            x       y       z     vdW  Elec       q    Type
REMARK                         _______ _______ _______ _____ _____    ______ ____
ROOT
ATOM      1  C   UNL     1       4.714   3.576  19.569  0.00  0.00    +0.000 C 
ATOM      2  O   UNL     1       5.133   2.498  19.997  0.00  0.00    +0.000 OA
ATOM      3  N   UNL     1       3.474   4.095  19.983  0.00  0.00    +0.000 N 
ATOM      4  C   UNL     1       2.711   3.353  20.988  0.00  0.00    +0.000 C 
ATOM      5  C   UNL     1       1.210   3.223  20.720  0.00  0.00    +0.000 C 
ATOM      6  C   UNL     1       0.882   2.487  19.419  0.00  0.00    +0.000 C 
ATOM      7  C   UNL     1       0.543   3.375  18.220  0.00  0.00    +0.000 C 
ATOM      8  C   UNL     1       1.637   4.330  17.746  0.00  0.00    +0.000 C 
ATOM      9  C   UNL     1       1.842   5.530  18.671  0.00  0.00    +0.000 C 
ATOM     10  C   UNL     1       3.012   5.443  19.657  0.00  0.00    +0.000 C 
ENDROOT
BRANCH   1  16
ATOM     11  C   UNL     1       5.186   6.048  15.881  0.00  0.00    +0.000 C 
ATOM     12  N   UNL     1       5.760   4.709  15.989  0.00  0.00    +0.000 NA
ATOM     13  C   UNL     1       7.215   4.748  16.241  0.00  0.00    +0.000 C 
ATOM     14  C   UNL     1       7.600   5.078  17.694  0.00  0.00    +0.000 C 
ATOM     15  O   UNL     1       6.926   4.225  18.629  0.00  0.00    +0.000 OA
ATOM     16  C   UNL     1       5.503   4.360  18.490  0.00  0.00    +0.000 C 
ATOM     17  C   UNL     1       5.105   3.912  17.063  0.00  0.00    +0.000 C 
ENDBRANCH   1  16
TORSDOF 1
ENDMDL
MODEL 3
REMARK VINA RESULT:      -6.6      1.846      5.414
REMARK  Name = 
REMARK  2 active torsions:
REMARK  status: ('A' for Active; 'I' for Inactive)
REMARK    1  A    between atoms: C_1  and  N_2
REMARK    2  A    between atoms: C_6  and  C_7
REMARK                            x       y       z     vdW  Elec       q    Type
REMARK                         _______ _______ _______ _____ _____    ______ ____
ROOT
ATOM      1  C   UNL     1       3.929   3.015  17.551  0.00  0.00    +0.000 C 
ATOM      2  O   UNL     1       4.250   1.844  17.332  0.00  0.00    +0.000 OA
ATOM      3  N   UNL     1       4.616   4.086  16.952  0.00  0.00    +0.000 N 
ATOM      4  C   UNL     1       5.690   3.780  16.006  0.00  0.00    +0.000 C 
ATOM      5  C   UNL     1       6.963   4.618  16.153  0.00  0.00    +0.000 C 
ATOM      6  C   UNL     1       7.643   4.464  17.515  0.00  0.00    +0.000 C 
ATOM      7  C   UNL     1       7.358   5.573  18.530  0.00  0.00    +0.000 C 
ATOM      8  C   UNL     1       5.900   5.755  18.951  0.00  0.00    +0.000 C 
ATOM      9  C   UNL     1       5.032   6.413  17.877  0.00  0.00    +0.000 C 
ATOM     10  C   UNL     1       4.169   5.476  17.027  0.00  0.00    +0.000 C 
ENDROOT
BRANCH   1  16
ATOM     11  C   UNL     1       2.000   5.318  20.853  0.00  0.00    +0.000 C 
ATOM     12  N   UNL     1       2.345   3.906  20.999  0.00  0.00    +0.000 NA
ATOM     13  C   UNL     1       1.161   3.031  20.874  0.00  0.00    +0.000 C 
ATOM     14  C   UNL     1       0.683   2.810  19.428  0.00  0.00    +0.000 C 
ATOM     15  O   UNL     1       1.752   2.377  18.576  0.00  0.00    +0.000 OA
ATOM     16  C   UNL     1       2.808   3.350  18.566  0.00  0.00    +0.000 C 
ATOM     17  C   UNL     1       3.366   3.482  20.003  0.00  0.00    +0.000 C 
ENDBRANCH   1  16
TORSDOF 1
ENDMDL
MODEL 4
REMARK VINA RESULT:      -6.5      1.550      2.313
REMARK  Name = 
REMARK  2 active torsions:
REMARK  status: ('A' for Active; 'I' for Inactive)
REMARK    1  A    between atoms: C_1  and  N_2
REMARK    2  A    between atoms: C_6  and  C_7
REMARK                            x       y       z     vdW  Elec       q    Type
REMARK                         _______ _______ _______ _____ _____    ______ ____
ROOT
ATOM      1  C   UNL     1       4.415   5.270  18.945  0.00  0.00    +0.000 C 
ATOM      2  O   UNL     1       5.207   5.311  19.890  0.00  0.00    +0.000 OA
ATOM      3  N   UNL     1       3.030   5.139  19.156  0.00  0.00    +0.000 N 
ATOM      4  C   UNL     1       2.537   5.116  20.535  0.00  0.00    +0.000 C 
ATOM      5  C   UNL     1       1.467   4.064  20.839  0.00  0.00    +0.000 C 
ATOM      6  C   UNL     1       1.940   2.626  20.613  0.00  0.00    +0.000 C 
ATOM      7  C   UNL     1       1.519   1.989  19.287  0.00  0.00    +0.000 C 
ATOM      8  C   UNL     1       2.026   2.666  18.013  0.00  0.00    +0.000 C 
ATOM      9  C   UNL     1       1.309   3.979  17.694  0.00  0.00    +0.000 C 
ATOM     10  C   UNL     1       2.035   5.268  18.094  0.00  0.00    +0.000 C 
ENDROOT
BRANCH   1  16
ATOM     11  C   UNL     1       6.076   3.448  15.222  0.00  0.00    +0.000 C 
ATOM     12  N   UNL     1       6.800   4.476  15.965  0.00  0.00    +0.000 NA
ATOM     13  C   UNL     1       6.706   5.799  15.315  0.00  0.00    +0.000 C 
ATOM     14  C   UNL     1       5.365   6.523  15.535  0.00  0.00    +0.000 C 
ATOM     15  O   UNL     1       5.021   6.592  16.925  0.00  0.00    +0.000 OA
ATOM     16  C   UNL     1       4.927   5.272  17.483  0.00  0.00    +0.000 C 
ATOM     17  C   UNL     1       6.312   4.592  17.367  0.00  0.00    +0.000 C 
ENDBRANCH   1  16
TORSDOF 1
ENDMDL
MODEL 5
REMARK VINA RESULT:      -6.5      1.549      1.689
REMARK  Name = 
REMARK  2 active torsions:
REMARK  status: ('A' for Active; 'I' for Inactive)
REMARK    1  A    between atoms: C_1  and  N_2
REMARK    2  A    between atoms: C_6  and  C_7
REMARK                            x       y       z     vdW  Elec       q    Type
REMARK                         _______ _______ _______ _____ _____    ______ ____
ROOT
ATOM      1  C   UNL     1       3.140   5.637  18.797  0.00  0.00    +0.000 C 
ATOM      2  O   UNL     1       2.648   6.598  19.394  0.00  0.00    +0.000 OA
ATOM      3  N   UNL     1       2.533   4.369  18.826  0.00  0.00    +0.000 N 
ATOM      4  C   UNL     1       1.260   4.224  19.535  0.00  0.00    +0.000 C 
ATOM      5  C   UNL     1       1.129   2.980  20.418  0.00  0.00    +0.000 C 
ATOM      6  C   UNL     1       2.165   2.916  21.542  0.00  0.00    +0.000 C 
ATOM      7  C   UNL     1       3.380   2.024  21.277  0.00  0.00    +0.000 C 
ATOM      8  C   UNL     1       4.263   2.408  20.090  0.00  0.00    +0.000 C 
ATOM      9  C   UNL     1       3.636   2.084  18.733  0.00  0.00    +0.000 C 
ATOM     10  C   UNL     1       2.964   3.246  17.995  0.00  0.00    +0.000 C 
ENDROOT
BRANCH   1  16
ATOM     11  C   UNL     1       7.286   4.424  17.670  0.00  0.00    +0.000 C 
ATOM     12  N   UNL     1       7.014   5.677  18.369  0.00  0.00    +0.000 NA
ATOM     13  C   UNL     1       7.074   6.842  17.462  0.00  0.00    +0.000 C 
ATOM     14  C   UNL     1       5.831   7.019  16.571  0.00  0.00    +0.000 C 
ATOM     15  O   UNL     1       4.621   7.009  17.340  0.00  0.00    +0.000 OA
ATOM     16  C   UNL     1       4.496   5.774  18.061  0.00  0.00    +0.000 C 
ATOM     17  C   UNL     1       5.687   5.657  19.043  0.00  0.00    +0.000 C 
ENDBRANCH   1  16
TORSDOF 1
ENDMDL
MODEL 6
REMARK VINA RESULT:      -6.4      1.870      2.681
REMARK  Name = 
REMARK  2 active torsions:
REMARK  status: ('A' for Active; 'I' for Inactive)
REMARK    1  A    between atoms: C_1  and  N_2
REMARK    2  A    between atoms: C_6  and  C_7
REMARK                            x       y       z     vdW  Elec       q    Type
REMARK                         _______ _______ _______ _____ _____    ______ ____
ROOT
ATOM      1  C   UNL     1       4.711   4.905  19.223  0.00  0.00    +0.000 C 
ATOM      2  O   UNL     1       5.411   4.581  20.185  0.00  0.00    +0.000 OA
ATOM      3  N   UNL     1       3.313   5.011  19.337  0.00  0.00    +0.000 N 
ATOM      4  C   UNL     1       2.705   4.788  20.650  0.00  0.00    +0.000 C 
ATOM      5  C   UNL     1       1.436   3.932  20.656  0.00  0.00    +0.000 C 
ATOM      6  C   UNL     1       1.652   2.513  20.126  0.00  0.00    +0.000 C 
ATOM      7  C   UNL     1       1.240   2.277  18.671  0.00  0.00    +0.000 C 
ATOM      8  C   UNL     1       1.973   3.099  17.611  0.00  0.00    +0.000 C 
ATOM      9  C   UNL     1       1.543   4.567  17.573  0.00  0.00    +0.000 C 
ATOM     10  C   UNL     1       2.456   5.565  18.291  0.00  0.00    +0.000 C 
ENDROOT
BRANCH   1  16
ATOM     11  C   UNL     1       5.014   4.455  14.791  0.00  0.00    +0.000 C 
ATOM     12  N   UNL     1       6.049   3.948  15.689  0.00  0.00    +0.000 NA
ATOM     13  C   UNL     1       7.238   4.825  15.713  0.00  0.00    +0.000 C 
ATOM     14  C   UNL     1       7.070   6.102  16.557  0.00  0.00    +0.000 C 
ATOM     15  O   UNL     1       6.604   5.806  17.880  0.00  0.00    +0.000 OA
ATOM     16  C   UNL     1       5.342   5.124  17.824  0.00  0.00    +0.000 C 
ATOM     17  C   UNL     1       5.543   3.783  17.079  0.00  0.00    +0.000 C 
ENDBRANCH   1  16
TORSDOF 1
ENDMDL
MODEL 7
REMARK VINA RESULT:      -6.4      1.656      1.934
REMARK  Name = 
REMARK  2 active torsions:
REMARK  status: ('A' for Active; 'I' for Inactive)
REMARK    1  A    between atoms: C_1  and  N_2
REMARK    2  A    between atoms: C_6  and  C_7
REMARK                            x       y       z     vdW  Elec       q    Type
REMARK                         _______ _______ _______ _____ _____    ______ ____
ROOT
ATOM      1  C   UNL     1       3.616   5.935  17.826  0.00  0.00    +0.000 C 
ATOM      2  O   UNL     1       2.952   6.931  18.125  0.00  0.00    +0.000 OA
ATOM      3  N   UNL     1       3.015   4.673  17.675  0.00  0.00    +0.000 N 
ATOM      4  C   UNL     1       1.561   4.574  17.818  0.00  0.00    +0.000 C 
ATOM      5  C   UNL     1       1.054   3.384  18.637  0.00  0.00    +0.000 C 
ATOM      6  C   UNL     1       1.548   3.382  20.085  0.00  0.00    +0.000 C 
ATOM      7  C   UNL     1       2.743   2.473  20.378  0.00  0.00    +0.000 C 
ATOM      8  C   UNL     1       4.038   2.784  19.629  0.00  0.00    +0.000 C 
ATOM      9  C   UNL     1       4.001   2.383  18.153  0.00  0.00    +0.000 C 
ATOM     10  C   UNL     1       3.713   3.502  17.148  0.00  0.00    +0.000 C 
ENDROOT
BRANCH   1  16
ATOM     11  C   UNL     1       7.797   4.373  17.949  0.00  0.00    +0.000 C 
ATOM     12  N   UNL     1       7.350   5.446  18.834  0.00  0.00    +0.000 NA
ATOM     13  C   UNL     1       7.823   6.770  18.384  0.00  0.00    +0.000 C 
ATOM     14  C   UNL     1       7.034   7.359  17.200  0.00  0.00    +0.000 C 
ATOM     15  O   UNL     1       5.622   7.360  17.452  0.00  0.00    +0.000 OA
ATOM     16  C   UNL     1       5.157   6.024  17.693  0.00  0.00    +0.000 C 
ATOM     17  C   UNL     1       5.866   5.479  18.956  0.00  0.00    +0.000 C 
ENDBRANCH   1  16
TORSDOF 1
ENDMDL
MODEL 8
REMARK VINA RESULT:      -6.3      1.145      1.679
REMARK  Name = 
REMARK  2 active torsions:
REMARK  status: ('A' for Active; 'I' for Inactive)
REMARK    1  A    between atoms: C_1  and  N_2
REMARK    2  A    between atoms: C_6  and  C_7
REMARK                            x       y       z     vdW  Elec       q    Type
REMARK                         _______ _______ _______ _____ _____    ______ ____
ROOT
ATOM      1  C   UNL     1       3.181   5.174  17.861  0.00  0.00    +0.000 C 
ATOM      2  O   UNL     1       2.455   6.171  17.858  0.00  0.00    +0.000 OA
ATOM      3  N   UNL     1       2.663   3.892  18.119  0.00  0.00    +0.000 N 
ATOM      4  C   UNL     1       1.220   3.754  18.324  0.00  0.00    +0.000 C 
ATOM      5  C   UNL     1       0.798   2.845  19.481  0.00  0.00    +0.000 C 
ATOM      6  C   UNL     1       1.301   3.317  20.847  0.00  0.00    +0.000 C 
ATOM      7  C   UNL     1       2.556   2.615  21.371  0.00  0.00    +0.000 C 
ATOM      8  C   UNL     1       3.823   2.759  20.529  0.00  0.00    +0.000 C 
ATOM      9  C   UNL     1       3.801   1.923  19.248  0.00  0.00    +0.000 C 
ATOM     10  C   UNL     1       3.433   2.660  17.956  0.00  0.00    +0.000 C 
ENDROOT
BRANCH   1  16
ATOM     11  C   UNL     1       6.965   5.438  15.506  0.00  0.00    +0.000 C 
ATOM     12  N   UNL     1       6.716   4.345  16.443  0.00  0.00    +0.000 NA
ATOM     13  C   UNL     1       7.454   4.523  17.710  0.00  0.00    +0.000 C 
ATOM     14  C   UNL     1       6.828   5.549  18.672  0.00  0.00    +0.000 C 
ATOM     15  O   UNL     1       5.439   5.281  18.904  0.00  0.00    +0.000 OA
ATOM     16  C   UNL     1       4.712   5.310  17.666  0.00  0.00    +0.000 C 
ATOM     17  C   UNL     1       5.266   4.196  16.746  0.00  0.00    +0.000 C 
ENDBRANCH   1  16
TORSDOF 1
ENDMDL
MODEL 9
REMARK VINA RESULT:      -6.2      1.390      1.653
REMARK  Name = 
REMARK  2 active torsions:
REMARK  status: ('A' for Active; 'I' for Inactive)
REMARK    1  A    between atoms: C_1  and  N_2
REMARK    2  A    between atoms: C_6  and  C_7
REMARK                            x       y       z     vdW  Elec       q    Type
REMARK                         _______ _______ _______ _____ _____    ______ ____
ROOT
ATOM      1  C   UNL     1       2.808   5.588  18.615  0.00  0.00    +0.000 C 
ATOM      2  O   UNL     1       2.613   6.609  19.278  0.00  0.00    +0.000 OA
ATOM      3  N   UNL     1       2.111   4.396  18.884  0.00  0.00    +0.000 N 
ATOM      4  C   UNL     1       1.093   4.410  19.936  0.00  0.00    +0.000 C 
ATOM      5  C   UNL     1       1.100   3.206  20.882  0.00  0.00    +0.000 C 
ATOM      6  C   UNL     1       2.407   3.048  21.662  0.00  0.00    +0.000 C 
ATOM      7  C   UNL     1       3.394   2.021  21.105  0.00  0.00    +0.000 C 
ATOM      8  C   UNL     1       3.926   2.280  19.695  0.00  0.00    +0.000 C 
ATOM      9  C   UNL     1       2.900   2.001  18.596  0.00  0.00    +0.000 C 
ATOM     10  C   UNL     1       2.163   3.216  18.023  0.00  0.00    +0.000 C 
ENDROOT
BRANCH   1  16
ATOM     11  C   UNL     1       5.915   3.687  16.032  0.00  0.00    +0.000 C 
ATOM     12  N   UNL     1       6.244   4.754  16.974  0.00  0.00    +0.000 NA
ATOM     13  C   UNL     1       6.430   6.054  16.297  0.00  0.00    +0.000 C 
ATOM     14  C   UNL     1       5.119   6.754  15.895  0.00  0.00    +0.000 C 
ATOM     15  O   UNL     1       4.213   6.859  17.000  0.00  0.00    +0.000 OA
ATOM     16  C   UNL     1       3.897   5.556  17.513  0.00  0.00    +0.000 C 
ATOM     17  C   UNL     1       5.202   4.903  18.027  0.00  0.00    +0.000 C 
ENDBRANCH   1  16
TORSDOF 1
ENDMDL
