MODEL 1
REMARK VINA RESULT:      -9.7      0.000      0.000
REMARK  Name = 
REMARK  4 active torsions:
REMARK  status: ('A' for Active; 'I' for Inactive)
REMARK    1  A    between atoms: O_1  and  C_2
REMARK    2  A    between atoms: C_2  and  C_3
REMARK    3  A    between atoms: C_7  and  C_8
REMARK    4  A    between atoms: N_15  and  C_16
REMARK                            x       y       z     vdW  Elec       q    Type
REMARK                         _______ _______ _______ _____ _____    ______ ____
ROOT
ATOM      1  C   UNL     1       0.334  10.255  19.647  0.00  0.00    +0.000 C 
ATOM      2  C   UNL     1       0.181   9.243  20.805  0.00  0.00    +0.000 C 
ATOM      3  C   UNL     1       1.462   8.478  21.049  0.00  0.00    +0.000 C 
ATOM      4  N   UNL     1       1.767   7.774  19.792  0.00  0.00    +0.000 N 
ATOM      5  C   UNL     1       2.247   8.741  18.794  0.00  0.00    +0.000 C 
ATOM      6  C   UNL     1       1.060   9.633  18.423  0.00  0.00    +0.000 C 
ENDROOT
BRANCH   4   7
ATOM      7  C   UNL     1       2.134   6.431  19.817  0.00  0.00    +0.000 A 
ATOM      8  N   UNL     1       1.529   5.567  20.728  0.00  0.00    +0.000 N 
ATOM      9  C   UNL     1       1.964   4.274  20.836  0.00  0.00    +0.000 A 
ATOM     10  N   UNL     1       3.101   3.828  20.404  0.00  0.00    +0.000 NA
ATOM     11  C   UNL     1       3.866   4.756  19.713  0.00  0.00    +0.000 A 
ATOM     12  C   UNL     1       4.822   4.373  18.859  0.00  0.00    +0.000 A 
ATOM     13  C   UNL     1       6.129   5.004  18.630  0.00  0.00    +0.000 A 
ATOM     14  C   UNL     1       6.662   4.825  17.406  0.00  0.00    +0.000 A 
ATOM     15  F   UNL     1       7.786   5.463  17.031  0.00  0.00    +0.000 F 
ATOM     16  C   UNL     1       5.950   4.037  16.405  0.00  0.00    +0.000 A 
ATOM     17  C   UNL     1       4.603   3.964  16.447  0.00  0.00    +0.000 A 
ATOM     18  C   UNL     1       4.026   4.679  17.615  0.00  0.00    +0.000 A 
ATOM     19  N   UNL     1       3.124   5.611  17.705  0.00  0.00    +0.000 NA
ATOM     20  C   UNL     1       3.091   5.840  19.069  0.00  0.00    +0.000 A 
ATOM     21  H   UNL     1       0.544   5.762  20.845  0.00  0.00    +0.000 HD
ENDBRANCH   4   7
BRANCH   1  22
ATOM     22  C   UNL     1      -1.009  10.858  19.192  0.00  0.00    +0.000 A 
ATOM     23  C   UNL     1      -1.764  11.708  20.004  0.00  0.00    +0.000 A 
ATOM     24  C   UNL     1      -3.017  12.184  19.597  0.00  0.00    +0.000 A 
ATOM     25  C   UNL     1      -3.525  11.818  18.364  0.00  0.00    +0.000 A 
ATOM     26  C   UNL     1      -2.780  10.994  17.509  0.00  0.00    +0.000 A 
ATOM     27  C   UNL     1      -1.515  10.549  17.917  0.00  0.00    +0.000 A 
BRANCH  26  28
ATOM     28  C   UNL     1      -3.322  10.575  16.163  0.00  0.00    +0.000 C 
ATOM     29  F   UNL     1      -3.259   9.232  15.944  0.00  0.00    +0.000 F 
ATOM     30  F   UNL     1      -4.628  10.921  15.995  0.00  0.00    +0.000 F 
ATOM     31  F   UNL     1      -2.648  11.153  15.130  0.00  0.00    +0.000 F 
ENDBRANCH  26  28
ENDBRANCH   1  22
BRANCH   1  32
ATOM     32  O   UNL     1       1.152  11.327  20.151  0.00  0.00    +0.000 OA
ATOM     33  H   UNL     1       0.572  11.922  20.655  0.00  0.00    +0.000 HD
ENDBRANCH   1  32
TORSDOF 4
ENDMDL
MODEL 2
REMARK VINA RESULT:      -9.0      1.730      2.254
REMARK  Name = 
REMARK  4 active torsions:
REMARK  status: ('A' for Active; 'I' for Inactive)
REMARK    1  A    between atoms: O_1  and  C_2
REMARK    2  A    between atoms: C_2  and  C_3
REMARK    3  A    between atoms: C_7  and  C_8
REMARK    4  A    between atoms: N_15  and  C_16
REMARK                            x       y       z     vdW  Elec       q    Type
REMARK                         _______ _______ _______ _____ _____    ______ ____
ROOT
ATOM      1  C   UNL     1       0.233  10.168  19.390  0.00  0.00    +0.000 C 
ATOM      2  C   UNL     1       0.198   9.233  20.620  0.00  0.00    +0.000 C 
ATOM      3  C   UNL     1       1.538   8.573  20.855  0.00  0.00    +0.000 C 
ATOM      4  N   UNL     1       1.838   7.803  19.637  0.00  0.00    +0.000 N 
ATOM      5  C   UNL     1       2.209   8.726  18.553  0.00  0.00    +0.000 C 
ATOM      6  C   UNL     1       0.949   9.511  18.179  0.00  0.00    +0.000 C 
ENDROOT
BRANCH   4   7
ATOM      7  C   UNL     1       2.297   6.492  19.735  0.00  0.00    +0.000 A 
ATOM      8  N   UNL     1       1.843   5.678  20.772  0.00  0.00    +0.000 N 
ATOM      9  C   UNL     1       2.374   4.429  20.942  0.00  0.00    +0.000 A 
ATOM     10  N   UNL     1       3.492   4.015  20.435  0.00  0.00    +0.000 NA
ATOM     11  C   UNL     1       4.122   4.922  19.595  0.00  0.00    +0.000 A 
ATOM     12  C   UNL     1       5.015   4.522  18.683  0.00  0.00    +0.000 A 
ATOM     13  C   UNL     1       6.248   5.206  18.270  0.00  0.00    +0.000 A 
ATOM     14  C   UNL     1       6.671   4.951  17.018  0.00  0.00    +0.000 A 
ATOM     15  F   UNL     1       7.708   5.620  16.478  0.00  0.00    +0.000 F 
ATOM     16  C   UNL     1       5.922   4.036  16.164  0.00  0.00    +0.000 A 
ATOM     17  C   UNL     1       4.594   3.886  16.348  0.00  0.00    +0.000 A 
ATOM     18  C   UNL     1       4.084   4.667  17.505  0.00  0.00    +0.000 A 
ATOM     19  N   UNL     1       3.133   5.547  17.608  0.00  0.00    +0.000 NA
ATOM     20  C   UNL     1       3.216   5.895  18.946  0.00  0.00    +0.000 A 
ATOM     21  H   UNL     1       0.863   5.824  20.972  0.00  0.00    +0.000 HD
ENDBRANCH   4   7
BRANCH   1  22
ATOM     22  C   UNL     1      -1.165  10.648  18.958  0.00  0.00    +0.000 A 
ATOM     23  C   UNL     1      -1.745  10.273  17.742  0.00  0.00    +0.000 A 
ATOM     24  C   UNL     1      -2.985  10.782  17.338  0.00  0.00    +0.000 A 
ATOM     25  C   UNL     1      -3.665  11.668  18.154  0.00  0.00    +0.000 A 
ATOM     26  C   UNL     1      -3.130  12.039  19.395  0.00  0.00    +0.000 A 
ATOM     27  C   UNL     1      -1.901  11.500  19.799  0.00  0.00    +0.000 A 
BRANCH  26  28
ATOM     28  C   UNL     1      -3.852  13.014  20.295  0.00  0.00    +0.000 C 
ATOM     29  F   UNL     1      -4.097  12.525  21.542  0.00  0.00    +0.000 F 
ATOM     30  F   UNL     1      -3.157  14.171  20.477  0.00  0.00    +0.000 F 
ATOM     31  F   UNL     1      -5.063  13.382  19.794  0.00  0.00    +0.000 F 
ENDBRANCH  26  28
ENDBRANCH   1  22
BRANCH   1  32
ATOM     32  O   UNL     1       0.997  11.324  19.782  0.00  0.00    +0.000 OA
ATOM     33  H   UNL     1       1.389  11.700  18.974  0.00  0.00    +0.000 HD
ENDBRANCH   1  32
TORSDOF 4
ENDMDL
MODEL 3
REMARK VINA RESULT:      -8.9      2.413      8.728
REMARK  Name = 
REMARK  4 active torsions:
REMARK  status: ('A' for Active; 'I' for Inactive)
REMARK    1  A    between atoms: O_1  and  C_2
REMARK    2  A    between atoms: C_2  and  C_3
REMARK    3  A    between atoms: C_7  and  C_8
REMARK    4  A    between atoms: N_15  and  C_16
REMARK                            x       y       z     vdW  Elec       q    Type
REMARK                         _______ _______ _______ _____ _____    ______ ____
ROOT
ATOM      1  C   UNL     1       3.519   5.162  18.254  0.00  0.00    +0.000 C 
ATOM      2  C   UNL     1       3.571   5.353  19.786  0.00  0.00    +0.000 C 
ATOM      3  C   UNL     1       2.261   5.881  20.326  0.00  0.00    +0.000 C 
ATOM      4  N   UNL     1       2.031   7.173  19.658  0.00  0.00    +0.000 N 
ATOM      5  C   UNL     1       1.641   6.939  18.260  0.00  0.00    +0.000 C 
ATOM      6  C   UNL     1       2.868   6.376  17.538  0.00  0.00    +0.000 C 
ENDROOT
BRANCH   4   7
ATOM      7  C   UNL     1       1.639   8.283  20.402  0.00  0.00    +0.000 A 
ATOM      8  N   UNL     1       1.813   8.284  21.785  0.00  0.00    +0.000 N 
ATOM      9  C   UNL     1       1.327   9.320  22.534  0.00  0.00    +0.000 A 
ATOM     10  N   UNL     1       0.432  10.172  22.143  0.00  0.00    +0.000 NA
ATOM     11  C   UNL     1       0.027  10.026  20.824  0.00  0.00    +0.000 A 
ATOM     12  C   UNL     1      -0.536  11.037  20.153  0.00  0.00    +0.000 A 
ATOM     13  C   UNL     1      -1.629  10.970  19.174  0.00  0.00    +0.000 A 
ATOM     14  C   UNL     1      -1.651  11.948  18.249  0.00  0.00    +0.000 A 
ATOM     15  F   UNL     1      -2.520  11.921  17.220  0.00  0.00    +0.000 F 
ATOM     16  C   UNL     1      -0.634  12.994  18.264  0.00  0.00    +0.000 A 
ATOM     17  C   UNL     1       0.587  12.730  18.772  0.00  0.00    +0.000 A 
ATOM     18  C   UNL     1       0.690  11.359  19.335  0.00  0.00    +0.000 A 
ATOM     19  N   UNL     1       1.518  10.383  19.103  0.00  0.00    +0.000 NA
ATOM     20  C   UNL     1       1.027   9.394  19.936  0.00  0.00    +0.000 A 
ATOM     21  H   UNL     1       2.681   7.847  22.061  0.00  0.00    +0.000 HD
ENDBRANCH   4   7
BRANCH   1  22
ATOM     22  C   UNL     1       4.901   4.884  17.633  0.00  0.00    +0.000 A 
ATOM     23  C   UNL     1       6.072   4.848  18.395  0.00  0.00    +0.000 A 
ATOM     24  C   UNL     1       7.326   4.667  17.798  0.00  0.00    +0.000 A 
ATOM     25  C   UNL     1       7.419   4.512  16.426  0.00  0.00    +0.000 A 
ATOM     26  C   UNL     1       6.262   4.509  15.635  0.00  0.00    +0.000 A 
ATOM     27  C   UNL     1       5.012   4.661  16.250  0.00  0.00    +0.000 A 
BRANCH  26  28
ATOM     28  C   UNL     1       6.344   4.351  14.135  0.00  0.00    +0.000 C 
ATOM     29  F   UNL     1       7.278   5.154  13.553  0.00  0.00    +0.000 F 
ATOM     30  F   UNL     1       6.659   3.080  13.760  0.00  0.00    +0.000 F 
ATOM     31  F   UNL     1       5.166   4.640  13.518  0.00  0.00    +0.000 F 
ENDBRANCH  26  28
ENDBRANCH   1  22
BRANCH   1  32
ATOM     32  O   UNL     1       2.687   4.010  18.017  0.00  0.00    +0.000 OA
ATOM     33  H   UNL     1       2.392   3.682  18.884  0.00  0.00    +0.000 HD
ENDBRANCH   1  32
TORSDOF 4
ENDMDL
MODEL 4
REMARK VINA RESULT:      -8.6      5.170      8.662
REMARK  Name = 
REMARK  4 active torsions:
REMARK  status: ('A' for Active; 'I' for Inactive)
REMARK    1  A    between atoms: O_1  and  C_2
REMARK    2  A    between atoms: C_2  and  C_3
REMARK    3  A    between atoms: C_7  and  C_8
REMARK    4  A    between atoms: N_15  and  C_16
REMARK                            x       y       z     vdW  Elec       q    Type
REMARK                         _______ _______ _______ _____ _____    ______ ____
ROOT
ATOM      1  C   UNL     1       6.207   4.738  14.495  0.00  0.00    +0.000 C 
ATOM      2  C   UNL     1       5.374   6.038  14.455  0.00  0.00    +0.000 C 
ATOM      3  C   UNL     1       5.338   6.718  15.806  0.00  0.00    +0.000 C 
ATOM      4  N   UNL     1       4.732   5.752  16.737  0.00  0.00    +0.000 N 
ATOM      5  C   UNL     1       5.697   4.682  17.029  0.00  0.00    +0.000 C 
ATOM      6  C   UNL     1       5.876   3.873  15.741  0.00  0.00    +0.000 C 
ENDROOT
BRANCH   4   7
ATOM      7  C   UNL     1       3.733   6.163  17.616  0.00  0.00    +0.000 A 
ATOM      8  N   UNL     1       3.373   7.508  17.672  0.00  0.00    +0.000 N 
ATOM      9  C   UNL     1       2.476   7.937  18.611  0.00  0.00    +0.000 A 
ATOM     10  N   UNL     1       2.144   7.287  19.682  0.00  0.00    +0.000 NA
ATOM     11  C   UNL     1       2.710   6.025  19.795  0.00  0.00    +0.000 A 
ATOM     12  C   UNL     1       2.164   5.085  20.575  0.00  0.00    +0.000 A 
ATOM     13  C   UNL     1       2.857   4.088  21.403  0.00  0.00    +0.000 A 
ATOM     14  C   UNL     1       2.183   2.945  21.633  0.00  0.00    +0.000 A 
ATOM     15  F   UNL     1       2.763   1.904  22.261  0.00  0.00    +0.000 F 
ATOM     16  C   UNL     1       0.846   2.758  21.081  0.00  0.00    +0.000 A 
ATOM     17  C   UNL     1       0.499   3.393  19.942  0.00  0.00    +0.000 A 
ATOM     18  C   UNL     1       1.570   4.292  19.437  0.00  0.00    +0.000 A 
ATOM     19  N   UNL     1       2.171   4.367  18.287  0.00  0.00    +0.000 NA
ATOM     20  C   UNL     1       3.074   5.392  18.509  0.00  0.00    +0.000 A 
ATOM     21  H   UNL     1       3.368   7.941  16.759  0.00  0.00    +0.000 HD
ENDBRANCH   4   7
BRANCH   1  22
ATOM     22  C   UNL     1       6.050   3.882  13.223  0.00  0.00    +0.000 A 
ATOM     23  C   UNL     1       7.085   3.090  12.719  0.00  0.00    +0.000 A 
ATOM     24  C   UNL     1       6.943   2.380  11.520  0.00  0.00    +0.000 A 
ATOM     25  C   UNL     1       5.754   2.448  10.817  0.00  0.00    +0.000 A 
ATOM     26  C   UNL     1       4.683   3.205  11.311  0.00  0.00    +0.000 A 
ATOM     27  C   UNL     1       4.829   3.888  12.526  0.00  0.00    +0.000 A 
BRANCH  26  28
ATOM     28  C   UNL     1       3.380   3.300  10.552  0.00  0.00    +0.000 C 
ATOM     29  F   UNL     1       3.404   2.665   9.347  0.00  0.00    +0.000 F 
ATOM     30  F   UNL     1       2.335   2.761  11.238  0.00  0.00    +0.000 F 
ATOM     31  F   UNL     1       3.027   4.588  10.287  0.00  0.00    +0.000 F 
ENDBRANCH  26  28
ENDBRANCH   1  22
BRANCH   1  32
ATOM     32  O   UNL     1       7.585   5.142  14.589  0.00  0.00    +0.000 OA
ATOM     33  H   UNL     1       7.686   5.954  14.064  0.00  0.00    +0.000 HD
ENDBRANCH   1  32
TORSDOF 4
ENDMDL
MODEL 5
REMARK VINA RESULT:      -8.3      2.535      3.031
REMARK  Name = 
REMARK  4 active torsions:
REMARK  status: ('A' for Active; 'I' for Inactive)
REMARK    1  A    between atoms: O_1  and  C_2
REMARK    2  A    between atoms: C_2  and  C_3
REMARK    3  A    between atoms: C_7  and  C_8
REMARK    4  A    between atoms: N_15  and  C_16
REMARK                            x       y       z     vdW  Elec       q    Type
REMARK                         _______ _______ _______ _____ _____    ______ ____
ROOT
ATOM      1  C   UNL     1       0.399  10.411  20.527  0.00  0.00    +0.000 C 
ATOM      2  C   UNL     1       0.386   9.301  21.601  0.00  0.00    +0.000 C 
ATOM      3  C   UNL     1       1.643   8.463  21.551  0.00  0.00    +0.000 C 
ATOM      4  N   UNL     1       1.690   7.869  20.205  0.00  0.00    +0.000 N 
ATOM      5  C   UNL     1       2.049   8.906  19.225  0.00  0.00    +0.000 C 
ATOM      6  C   UNL     1       0.871   9.879  19.146  0.00  0.00    +0.000 C 
ENDROOT
BRANCH   4   7
ATOM      7  C   UNL     1       1.976   6.515  20.049  0.00  0.00    +0.000 A 
ATOM      8  N   UNL     1       1.241   5.568  20.759  0.00  0.00    +0.000 N 
ATOM      9  C   UNL     1       1.590   4.247  20.698  0.00  0.00    +0.000 A 
ATOM     10  N   UNL     1       2.736   3.792  20.298  0.00  0.00    +0.000 NA
ATOM     11  C   UNL     1       3.614   4.759  19.828  0.00  0.00    +0.000 A 
ATOM     12  C   UNL     1       4.623   4.444  19.009  0.00  0.00    +0.000 A 
ATOM     13  C   UNL     1       5.979   5.009  18.991  0.00  0.00    +0.000 A 
ATOM     14  C   UNL     1       6.613   4.980  17.804  0.00  0.00    +0.000 A 
ATOM     15  F   UNL     1       7.802   5.588  17.629  0.00  0.00    +0.000 F 
ATOM     16  C   UNL     1       5.955   4.405  16.636  0.00  0.00    +0.000 A 
ATOM     17  C   UNL     1       4.609   4.421  16.552  0.00  0.00    +0.000 A 
ATOM     18  C   UNL     1       3.965   4.990  17.766  0.00  0.00    +0.000 A 
ATOM     19  N   UNL     1       3.113   5.958  17.924  0.00  0.00    +0.000 NA
ATOM     20  C   UNL     1       2.965   5.979  19.300  0.00  0.00    +0.000 A 
ATOM     21  H   UNL     1       0.262   5.812  20.822  0.00  0.00    +0.000 HD
ENDBRANCH   4   7
BRANCH   1  22
ATOM     22  C   UNL     1      -0.964  11.111  20.366  0.00  0.00    +0.000 A 
ATOM     23  C   UNL     1      -1.644  11.157  19.146  0.00  0.00    +0.000 A 
ATOM     24  C   UNL     1      -2.846  11.863  19.007  0.00  0.00    +0.000 A 
ATOM     25  C   UNL     1      -3.384  12.526  20.095  0.00  0.00    +0.000 A 
ATOM     26  C   UNL     1      -2.746  12.474  21.342  0.00  0.00    +0.000 A 
ATOM     27  C   UNL     1      -1.560  11.739  21.473  0.00  0.00    +0.000 A 
BRANCH  26  28
ATOM     28  C   UNL     1      -3.313  13.200  22.539  0.00  0.00    +0.000 C 
ATOM     29  F   UNL     1      -4.657  13.036  22.689  0.00  0.00    +0.000 F 
ATOM     30  F   UNL     1      -2.753  12.791  23.711  0.00  0.00    +0.000 F 
ATOM     31  F   UNL     1      -3.106  14.544  22.476  0.00  0.00    +0.000 F 
ENDBRANCH  26  28
ENDBRANCH   1  22
BRANCH   1  32
ATOM     32  O   UNL     1       1.352  11.394  20.972  0.00  0.00    +0.000 OA
ATOM     33  H   UNL     1       1.962  11.562  20.233  0.00  0.00    +0.000 HD
ENDBRANCH   1  32
TORSDOF 4
ENDMDL
MODEL 6
REMARK VINA RESULT:      -8.2      3.606      4.407
REMARK  Name = 
REMARK  4 active torsions:
REMARK  status: ('A' for Active; 'I' for Inactive)
REMARK    1  A    between atoms: O_1  and  C_2
REMARK    2  A    between atoms: C_2  and  C_3
REMARK    3  A    between atoms: C_7  and  C_8
REMARK    4  A    between atoms: N_15  and  C_16
REMARK                            x       y       z     vdW  Elec       q    Type
REMARK                         _______ _______ _______ _____ _____    ______ ____
ROOT
ATOM      1  C   UNL     1       1.289  11.196  19.006  0.00  0.00    +0.000 C 
ATOM      2  C   UNL     1       2.216  10.359  18.096  0.00  0.00    +0.000 C 
ATOM      3  C   UNL     1       1.703   8.947  17.926  0.00  0.00    +0.000 C 
ATOM      4  N   UNL     1       1.650   8.362  19.276  0.00  0.00    +0.000 N 
ATOM      5  C   UNL     1       0.521   8.944  20.017  0.00  0.00    +0.000 C 
ATOM      6  C   UNL     1       0.862  10.414  20.277  0.00  0.00    +0.000 C 
ENDROOT
BRANCH   4   7
ATOM      7  C   UNL     1       2.158   7.086  19.504  0.00  0.00    +0.000 A 
ATOM      8  N   UNL     1       1.720   6.354  20.606  0.00  0.00    +0.000 N 
ATOM      9  C   UNL     1       2.296   5.149  20.899  0.00  0.00    +0.000 A 
ATOM     10  N   UNL     1       3.439   4.736  20.449  0.00  0.00    +0.000 NA
ATOM     11  C   UNL     1       4.047   5.586  19.536  0.00  0.00    +0.000 A 
ATOM     12  C   UNL     1       4.971   5.141  18.679  0.00  0.00    +0.000 A 
ATOM     13  C   UNL     1       6.183   5.835  18.220  0.00  0.00    +0.000 A 
ATOM     14  C   UNL     1       6.638   5.481  17.004  0.00  0.00    +0.000 A 
ATOM     15  F   UNL     1       7.657   6.139  16.418  0.00  0.00    +0.000 F 
ATOM     16  C   UNL     1       5.942   4.461  16.229  0.00  0.00    +0.000 A 
ATOM     17  C   UNL     1       4.618   4.274  16.408  0.00  0.00    +0.000 A 
ATOM     18  C   UNL     1       4.056   5.137  17.480  0.00  0.00    +0.000 A 
ATOM     19  N   UNL     1       3.069   5.983  17.486  0.00  0.00    +0.000 NA
ATOM     20  C   UNL     1       3.115   6.457  18.786  0.00  0.00    +0.000 A 
ATOM     21  H   UNL     1       0.731   6.477  20.777  0.00  0.00    +0.000 HD
ENDBRANCH   4   7
BRANCH   1  22
ATOM     22  C   UNL     1       1.907  12.544  19.420  0.00  0.00    +0.000 A 
ATOM     23  C   UNL     1       1.641  13.145  20.653  0.00  0.00    +0.000 A 
ATOM     24  C   UNL     1       2.155  14.407  20.977  0.00  0.00    +0.000 A 
ATOM     25  C   UNL     1       2.952  15.079  20.068  0.00  0.00    +0.000 A 
ATOM     26  C   UNL     1       3.268  14.492  18.835  0.00  0.00    +0.000 A 
ATOM     27  C   UNL     1       2.769  13.216  18.536  0.00  0.00    +0.000 A 
BRANCH  26  28
ATOM     28  C   UNL     1       4.127  15.215  17.825  0.00  0.00    +0.000 C 
ATOM     29  F   UNL     1       3.479  15.499  16.661  0.00  0.00    +0.000 F 
ATOM     30  F   UNL     1       4.594  16.405  18.293  0.00  0.00    +0.000 F 
ATOM     31  F   UNL     1       5.228  14.496  17.472  0.00  0.00    +0.000 F 
ENDBRANCH  26  28
ENDBRANCH   1  22
BRANCH   1  32
ATOM     32  O   UNL     1       0.104  11.469  18.235  0.00  0.00    +0.000 OA
ATOM     33  H   UNL     1      -0.456  10.675  18.271  0.00  0.00    +0.000 HD
ENDBRANCH   1  32
TORSDOF 4
ENDMDL
MODEL 7
REMARK VINA RESULT:      -8.1      3.943      9.000
REMARK  Name = 
REMARK  4 active torsions:
REMARK  status: ('A' for Active; 'I' for Inactive)
REMARK    1  A    between atoms: O_1  and  C_2
REMARK    2  A    between atoms: C_2  and  C_3
REMARK    3  A    between atoms: C_7  and  C_8
REMARK    4  A    between atoms: N_15  and  C_16
REMARK                            x       y       z     vdW  Elec       q    Type
REMARK                         _______ _______ _______ _____ _____    ______ ____
ROOT
ATOM      1  C   UNL     1       2.289   6.667  19.620  0.00  0.00    +0.000 C 
ATOM      2  C   UNL     1       1.909   7.266  18.247  0.00  0.00    +0.000 C 
ATOM      3  C   UNL     1       1.906   8.778  18.282  0.00  0.00    +0.000 C 
ATOM      4  N   UNL     1       0.915   9.165  19.300  0.00  0.00    +0.000 N 
ATOM      5  C   UNL     1       1.458   8.892  20.639  0.00  0.00    +0.000 C 
ATOM      6  C   UNL     1       1.547   7.371  20.788  0.00  0.00    +0.000 C 
ENDROOT
BRANCH   4   7
ATOM      7  C   UNL     1      -0.015  10.164  19.023  0.00  0.00    +0.000 A 
ATOM      8  N   UNL     1      -0.712  10.143  17.816  0.00  0.00    +0.000 N 
ATOM      9  C   UNL     1      -1.542  11.179  17.489  0.00  0.00    +0.000 A 
ATOM     10  N   UNL     1      -1.524  12.355  18.034  0.00  0.00    +0.000 NA
ATOM     11  C   UNL     1      -0.628  12.495  19.084  0.00  0.00    +0.000 A 
ATOM     12  C   UNL     1      -0.778  13.455  20.003  0.00  0.00    +0.000 A 
ATOM     13  C   UNL     1       0.273  14.243  20.662  0.00  0.00    +0.000 A 
ATOM     14  C   UNL     1      -0.025  14.711  21.889  0.00  0.00    +0.000 A 
ATOM     15  F   UNL     1       0.901  15.328  22.648  0.00  0.00    +0.000 F 
ATOM     16  C   UNL     1      -1.328  14.434  22.482  0.00  0.00    +0.000 A 
ATOM     17  C   UNL     1      -1.999  13.318  22.130  0.00  0.00    +0.000 A 
ATOM     18  C   UNL     1      -1.297  12.535  21.080  0.00  0.00    +0.000 A 
ATOM     19  N   UNL     1      -0.917  11.293  21.030  0.00  0.00    +0.000 NA
ATOM     20  C   UNL     1      -0.302  11.237  19.791  0.00  0.00    +0.000 A 
ATOM     21  H   UNL     1      -0.969   9.205  17.539  0.00  0.00    +0.000 HD
ENDBRANCH   4   7
BRANCH   1  22
ATOM     22  C   UNL     1       2.045   5.148  19.703  0.00  0.00    +0.000 A 
ATOM     23  C   UNL     1       1.250   4.569  20.696  0.00  0.00    +0.000 A 
ATOM     24  C   UNL     1       1.104   3.179  20.796  0.00  0.00    +0.000 A 
ATOM     25  C   UNL     1       1.748   2.353  19.893  0.00  0.00    +0.000 A 
ATOM     26  C   UNL     1       2.526   2.901  18.864  0.00  0.00    +0.000 A 
ATOM     27  C   UNL     1       2.640   4.294  18.759  0.00  0.00    +0.000 A 
BRANCH  26  28
ATOM     28  C   UNL     1       3.246   2.015  17.875  0.00  0.00    +0.000 C 
ATOM     29  F   UNL     1       3.730   0.866  18.424  0.00  0.00    +0.000 F 
ATOM     30  F   UNL     1       2.447   1.628  16.842  0.00  0.00    +0.000 F 
ATOM     31  F   UNL     1       4.316   2.635  17.306  0.00  0.00    +0.000 F 
ENDBRANCH  26  28
ENDBRANCH   1  22
BRANCH   1  32
ATOM     32  O   UNL     1       3.700   6.899  19.787  0.00  0.00    +0.000 OA
ATOM     33  H   UNL     1       4.143   6.034  19.747  0.00  0.00    +0.000 HD
ENDBRANCH   1  32
TORSDOF 4
ENDMDL
MODEL 8
REMARK VINA RESULT:      -8.1      3.901      8.860
REMARK  Name = 
REMARK  4 active torsions:
REMARK  status: ('A' for Active; 'I' for Inactive)
REMARK    1  A    between atoms: O_1  and  C_2
REMARK    2  A    between atoms: C_2  and  C_3
REMARK    3  A    between atoms: C_7  and  C_8
REMARK    4  A    between atoms: N_15  and  C_16
REMARK                            x       y       z     vdW  Elec       q    Type
REMARK                         _______ _______ _______ _____ _____    ______ ____
ROOT
ATOM      1  C   UNL     1       2.310   6.711  19.602  0.00  0.00    +0.000 C 
ATOM      2  C   UNL     1       1.970   7.319  18.223  0.00  0.00    +0.000 C 
ATOM      3  C   UNL     1       1.990   8.830  18.261  0.00  0.00    +0.000 C 
ATOM      4  N   UNL     1       0.983   9.231  19.258  0.00  0.00    +0.000 N 
ATOM      5  C   UNL     1       1.491   8.947  20.608  0.00  0.00    +0.000 C 
ATOM      6  C   UNL     1       1.554   7.425  20.755  0.00  0.00    +0.000 C 
ENDROOT
BRANCH   4   7
ATOM      7  C   UNL     1       0.075  10.245  18.963  0.00  0.00    +0.000 A 
ATOM      8  N   UNL     1      -1.006   9.981  18.124  0.00  0.00    +0.000 N 
ATOM      9  C   UNL     1      -1.837  10.997  17.740  0.00  0.00    +0.000 A 
ATOM     10  N   UNL     1      -1.557  12.260  17.810  0.00  0.00    +0.000 NA
ATOM     11  C   UNL     1      -0.339  12.554  18.406  0.00  0.00    +0.000 A 
ATOM     12  C   UNL     1      -0.095  13.759  18.934  0.00  0.00    +0.000 A 
ATOM     13  C   UNL     1       1.165  14.513  18.912  0.00  0.00    +0.000 A 
ATOM     14  C   UNL     1       1.352  15.376  19.929  0.00  0.00    +0.000 A 
ATOM     15  F   UNL     1       2.522  16.023  20.094  0.00  0.00    +0.000 F 
ATOM     16  C   UNL     1       0.332  15.524  20.961  0.00  0.00    +0.000 A 
ATOM     17  C   UNL     1      -0.484  14.488  21.248  0.00  0.00    +0.000 A 
ATOM     18  C   UNL     1      -0.250  13.314  20.367  0.00  0.00    +0.000 A 
ATOM     19  N   UNL     1       0.015  12.068  20.632  0.00  0.00    +0.000 NA
ATOM     20  C   UNL     1       0.144  11.534  19.362  0.00  0.00    +0.000 A 
ATOM     21  H   UNL     1      -1.399   9.063  18.284  0.00  0.00    +0.000 HD
ENDBRANCH   4   7
BRANCH   1  22
ATOM     22  C   UNL     1       2.041   5.196  19.676  0.00  0.00    +0.000 A 
ATOM     23  C   UNL     1       1.218   4.627  20.652  0.00  0.00    +0.000 A 
ATOM     24  C   UNL     1       1.048   3.239  20.745  0.00  0.00    +0.000 A 
ATOM     25  C   UNL     1       1.696   2.405  19.852  0.00  0.00    +0.000 A 
ATOM     26  C   UNL     1       2.502   2.943  18.839  0.00  0.00    +0.000 A 
ATOM     27  C   UNL     1       2.640   4.335  18.741  0.00  0.00    +0.000 A 
BRANCH  26  28
ATOM     28  C   UNL     1       3.226   2.049  17.861  0.00  0.00    +0.000 C 
ATOM     29  F   UNL     1       4.313   2.635  17.288  0.00  0.00    +0.000 F 
ATOM     30  F   UNL     1       3.680   0.903  18.440  0.00  0.00    +0.000 F 
ATOM     31  F   UNL     1       2.428   1.655  16.830  0.00  0.00    +0.000 F 
ENDBRANCH  26  28
ENDBRANCH   1  22
BRANCH   1  32
ATOM     32  O   UNL     1       3.720   6.920  19.801  0.00  0.00    +0.000 OA
ATOM     33  H   UNL     1       4.034   7.491  19.078  0.00  0.00    +0.000 HD
ENDBRANCH   1  32
TORSDOF 4
ENDMDL
MODEL 9
REMARK VINA RESULT:      -8.0      2.093      3.141
REMARK  Name = 
REMARK  4 active torsions:
REMARK  status: ('A' for Active; 'I' for Inactive)
REMARK    1  A    between atoms: O_1  and  C_2
REMARK    2  A    between atoms: C_2  and  C_3
REMARK    3  A    between atoms: C_7  and  C_8
REMARK    4  A    between atoms: N_15  and  C_16
REMARK                            x       y       z     vdW  Elec       q    Type
REMARK                         _______ _______ _______ _____ _____    ______ ____
ROOT
ATOM      1  C   UNL     1       0.279  10.533  19.254  0.00  0.00    +0.000 C 
ATOM      2  C   UNL     1       0.316   9.115  19.866  0.00  0.00    +0.000 C 
ATOM      3  C   UNL     1       1.735   8.622  20.043  0.00  0.00    +0.000 C 
ATOM      4  N   UNL     1       2.339   8.615  18.700  0.00  0.00    +0.000 N 
ATOM      5  C   UNL     1       2.612   9.997  18.279  0.00  0.00    +0.000 C 
ATOM      6  C   UNL     1       1.259  10.677  18.058  0.00  0.00    +0.000 C 
ENDROOT
BRANCH   4   7
ATOM      7  C   UNL     1       3.068   7.509  18.270  0.00  0.00    +0.000 A 
ATOM      8  N   UNL     1       4.116   7.682  17.367  0.00  0.00    +0.000 N 
ATOM      9  C   UNL     1       4.761   6.591  16.853  0.00  0.00    +0.000 A 
ATOM     10  N   UNL     1       4.307   5.377  16.864  0.00  0.00    +0.000 NA
ATOM     11  C   UNL     1       3.103   5.213  17.534  0.00  0.00    +0.000 A 
ATOM     12  C   UNL     1       2.725   4.018  18.002  0.00  0.00    +0.000 A 
ATOM     13  C   UNL     1       1.369   3.451  18.031  0.00  0.00    +0.000 A 
ATOM     14  C   UNL     1       1.130   2.549  19.002  0.00  0.00    +0.000 A 
ATOM     15  F   UNL     1      -0.107   2.061  19.217  0.00  0.00    +0.000 F 
ATOM     16  C   UNL     1       2.187   2.183  19.938  0.00  0.00    +0.000 A 
ATOM     17  C   UNL     1       3.162   3.070  20.225  0.00  0.00    +0.000 A 
ATOM     18  C   UNL     1       3.041   4.329  19.444  0.00  0.00    +0.000 A 
ATOM     19  N   UNL     1       2.979   5.575  19.808  0.00  0.00    +0.000 NA
ATOM     20  C   UNL     1       2.841   6.216  18.589  0.00  0.00    +0.000 A 
ATOM     21  H   UNL     1       4.648   8.521  17.554  0.00  0.00    +0.000 HD
ENDBRANCH   4   7
BRANCH   1  22
ATOM     22  C   UNL     1      -1.133  10.962  18.811  0.00  0.00    +0.000 A 
ATOM     23  C   UNL     1      -1.988  11.697  19.638  0.00  0.00    +0.000 A 
ATOM     24  C   UNL     1      -3.294  12.011  19.242  0.00  0.00    +0.000 A 
ATOM     25  C   UNL     1      -3.756  11.598  18.006  0.00  0.00    +0.000 A 
ATOM     26  C   UNL     1      -2.915  10.889  17.137  0.00  0.00    +0.000 A 
ATOM     27  C   UNL     1      -1.601  10.607  17.535  0.00  0.00    +0.000 A 
BRANCH  26  28
ATOM     28  C   UNL     1      -3.405  10.421  15.787  0.00  0.00    +0.000 C 
ATOM     29  F   UNL     1      -2.712  10.951  14.742  0.00  0.00    +0.000 F 
ATOM     30  F   UNL     1      -3.325   9.069  15.643  0.00  0.00    +0.000 F 
ATOM     31  F   UNL     1      -4.711  10.741  15.570  0.00  0.00    +0.000 F 
ENDBRANCH  26  28
ENDBRANCH   1  22
BRANCH   1  32
ATOM     32  O   UNL     1       0.711  11.434  20.291  0.00  0.00    +0.000 OA
ATOM     33  H   UNL     1       1.028  12.245  19.858  0.00  0.00    +0.000 HD
ENDBRANCH   1  32
TORSDOF 4
ENDMDL
