MODEL 1
REMARK VINA RESULT:      -7.2      0.000      0.000
REMARK  Name = 
REMARK  5 active torsions:
REMARK  status: ('A' for Active; 'I' for Inactive)
REMARK    1  A    between atoms: C_1  and  N_2
REMARK    2  A    between atoms: C_3  and  C_5
REMARK    3  A    between atoms: C_10  and  C_12
REMARK    4  A    between atoms: C_12  and  O_13
REMARK    5  A    between atoms: O_13  and  C_14
REMARK                            x       y       z     vdW  Elec       q    Type
REMARK                         _______ _______ _______ _____ _____    ______ ____
ROOT
ATOM      1  C   UNL     1       7.065   5.469  16.564  0.00  0.00    +0.000 C 
ATOM      2  C   UNL     1       7.695   4.483  17.553  0.00  0.00    +0.000 C 
ATOM      3  C   UNL     1       7.302   5.019  18.917  0.00  0.00    +0.000 C 
ATOM      4  C   UNL     1       5.961   5.704  18.691  0.00  0.00    +0.000 C 
ATOM      5  N   UNL     1       5.819   5.852  17.250  0.00  0.00    +0.000 N 
ATOM      6  C   UNL     1       4.905   6.701  16.646  0.00  0.00    +0.000 C 
ATOM      7  O   UNL     1       4.919   6.893  15.429  0.00  0.00    +0.000 OA
ENDROOT
BRANCH   1  10
ATOM      8  C   UNL     1       7.607   4.930  12.824  0.00  0.00    +0.000 C 
ATOM      9  N   UNL     1       7.560   5.487  14.148  0.00  0.00    +0.000 N 
ATOM     10  C   UNL     1       7.021   4.773  15.191  0.00  0.00    +0.000 C 
ATOM     11  O   UNL     1       6.376   3.740  15.017  0.00  0.00    +0.000 OA
ATOM     12  H   UNL     1       8.225   6.214  14.400  0.00  0.00    +0.000 HD
ENDBRANCH   1  10
BRANCH   6  13
ATOM     13  C   UNL     1       3.884   7.425  17.540  0.00  0.00    +0.000 C 
BRANCH  13  14
ATOM     14  O   UNL     1       2.574   6.874  17.491  0.00  0.00    +0.000 OA
BRANCH  14  15
ATOM     15  C   UNL     1       2.265   5.969  18.478  0.00  0.00    +0.000 A 
ATOM     16  C   UNL     1       2.271   6.226  19.853  0.00  0.00    +0.000 A 
ATOM     17  C   UNL     1       1.982   5.208  20.768  0.00  0.00    +0.000 A 
ATOM     18  C   UNL     1       1.673   3.929  20.313  0.00  0.00    +0.000 A 
ATOM     19 CL   UNL     1       1.334   2.679  21.444  0.00  0.00    +0.000 Cl
ATOM     20  C   UNL     1       1.645   3.662  18.947  0.00  0.00    +0.000 A 
ATOM     21  C   UNL     1       1.942   4.682  18.033  0.00  0.00    +0.000 A 
ENDBRANCH  14  15
ENDBRANCH  13  14
ENDBRANCH   6  13
TORSDOF 4
ENDMDL
MODEL 2
REMARK VINA RESULT:      -7.0      2.576      3.534
REMARK  Name = 
REMARK  5 active torsions:
REMARK  status: ('A' for Active; 'I' for Inactive)
REMARK    1  A    between atoms: C_1  and  N_2
REMARK    2  A    between atoms: C_3  and  C_5
REMARK    3  A    between atoms: C_10  and  C_12
REMARK    4  A    between atoms: C_12  and  O_13
REMARK    5  A    between atoms: O_13  and  C_14
REMARK                            x       y       z     vdW  Elec       q    Type
REMARK                         _______ _______ _______ _____ _____    ______ ____
ROOT
ATOM      1  C   UNL     1       7.067   4.854  17.045  0.00  0.00    +0.000 C 
ATOM      2  C   UNL     1       7.180   5.164  15.548  0.00  0.00    +0.000 C 
ATOM      3  C   UNL     1       6.305   4.119  14.883  0.00  0.00    +0.000 C 
ATOM      4  C   UNL     1       5.216   3.820  15.903  0.00  0.00    +0.000 C 
ATOM      5  N   UNL     1       5.677   4.381  17.165  0.00  0.00    +0.000 N 
ATOM      6  C   UNL     1       5.140   4.052  18.400  0.00  0.00    +0.000 C 
ATOM      7  O   UNL     1       5.657   4.447  19.447  0.00  0.00    +0.000 OA
ENDROOT
BRANCH   1  10
ATOM      8  C   UNL     1       7.867   8.524  17.716  0.00  0.00    +0.000 C 
ATOM      9  N   UNL     1       7.486   7.283  17.101  0.00  0.00    +0.000 N 
ATOM     10  C   UNL     1       7.537   6.105  17.808  0.00  0.00    +0.000 C 
ATOM     11  O   UNL     1       8.095   6.017  18.901  0.00  0.00    +0.000 OA
ATOM     12  H   UNL     1       6.851   7.301  16.308  0.00  0.00    +0.000 HD
ENDBRANCH   1  10
BRANCH   6  13
ATOM     13  C   UNL     1       3.894   3.151  18.435  0.00  0.00    +0.000 C 
BRANCH  13  14
ATOM     14  O   UNL     1       2.693   3.805  18.047  0.00  0.00    +0.000 OA
BRANCH  14  15
ATOM     15  C   UNL     1       2.396   4.969  18.716  0.00  0.00    +0.000 A 
ATOM     16  C   UNL     1       2.581   6.264  18.222  0.00  0.00    +0.000 A 
ATOM     17  C   UNL     1       2.284   7.377  19.016  0.00  0.00    +0.000 A 
ATOM     18  C   UNL     1       1.789   7.201  20.305  0.00  0.00    +0.000 A 
ATOM     19 CL   UNL     1       1.442   8.574  21.281  0.00  0.00    +0.000 Cl
ATOM     20  C   UNL     1       1.583   5.918  20.804  0.00  0.00    +0.000 A 
ATOM     21  C   UNL     1       1.887   4.805  20.009  0.00  0.00    +0.000 A 
ENDBRANCH  14  15
ENDBRANCH  13  14
ENDBRANCH   6  13
TORSDOF 4
ENDMDL
MODEL 3
REMARK VINA RESULT:      -6.9      2.611      3.543
REMARK  Name = 
REMARK  5 active torsions:
REMARK  status: ('A' for Active; 'I' for Inactive)
REMARK    1  A    between atoms: C_1  and  N_2
REMARK    2  A    between atoms: C_3  and  C_5
REMARK    3  A    between atoms: C_10  and  C_12
REMARK    4  A    between atoms: C_12  and  O_13
REMARK    5  A    between atoms: O_13  and  C_14
REMARK                            x       y       z     vdW  Elec       q    Type
REMARK                         _______ _______ _______ _____ _____    ______ ____
ROOT
ATOM      1  C   UNL     1       7.083   4.866  17.052  0.00  0.00    +0.000 C 
ATOM      2  C   UNL     1       7.178   5.195  15.559  0.00  0.00    +0.000 C 
ATOM      3  C   UNL     1       6.293   4.160  14.891  0.00  0.00    +0.000 C 
ATOM      4  C   UNL     1       5.217   3.849  15.921  0.00  0.00    +0.000 C 
ATOM      5  N   UNL     1       5.694   4.393  17.184  0.00  0.00    +0.000 N 
ATOM      6  C   UNL     1       5.172   4.049  18.421  0.00  0.00    +0.000 C 
ATOM      7  O   UNL     1       5.702   4.430  19.466  0.00  0.00    +0.000 OA
ENDROOT
BRANCH   1  10
ATOM      8  C   UNL     1       7.903   8.526  17.758  0.00  0.00    +0.000 C 
ATOM      9  N   UNL     1       7.512   7.293  17.132  0.00  0.00    +0.000 N 
ATOM     10  C   UNL     1       7.564   6.107  17.825  0.00  0.00    +0.000 C 
ATOM     11  O   UNL     1       8.130   6.004  18.913  0.00  0.00    +0.000 OA
ATOM     12  H   UNL     1       6.871   7.322  16.344  0.00  0.00    +0.000 HD
ENDBRANCH   1  10
BRANCH   6  13
ATOM     13  C   UNL     1       3.925   3.150  18.460  0.00  0.00    +0.000 C 
BRANCH  13  14
ATOM     14  O   UNL     1       2.716   3.817  18.123  0.00  0.00    +0.000 OA
BRANCH  14  15
ATOM     15  C   UNL     1       2.407   4.924  18.877  0.00  0.00    +0.000 A 
ATOM     16  C   UNL     1       1.920   4.909  20.187  0.00  0.00    +0.000 A 
ATOM     17  C   UNL     1       1.596   6.103  20.840  0.00  0.00    +0.000 A 
ATOM     18  C   UNL     1       1.770   7.321  20.189  0.00  0.00    +0.000 A 
ATOM     19 CL   UNL     1       1.355   8.785  20.991  0.00  0.00    +0.000 Cl
ATOM     20  C   UNL     1       2.272   7.354  18.891  0.00  0.00    +0.000 A 
ATOM     21  C   UNL     1       2.588   6.156  18.238  0.00  0.00    +0.000 A 
ENDBRANCH  14  15
ENDBRANCH  13  14
ENDBRANCH   6  13
TORSDOF 4
ENDMDL
MODEL 4
REMARK VINA RESULT:      -6.5      3.899      5.491
REMARK  Name = 
REMARK  5 active torsions:
REMARK  status: ('A' for Active; 'I' for Inactive)
REMARK    1  A    between atoms: C_1  and  N_2
REMARK    2  A    between atoms: C_3  and  C_5
REMARK    3  A    between atoms: C_10  and  C_12
REMARK    4  A    between atoms: C_12  and  O_13
REMARK    5  A    between atoms: O_13  and  C_14
REMARK                            x       y       z     vdW  Elec       q    Type
REMARK                         _______ _______ _______ _____ _____    ______ ____
ROOT
ATOM      1  C   UNL     1       3.183   3.544  19.288  0.00  0.00    +0.000 C 
ATOM      2  C   UNL     1       2.401   2.247  19.522  0.00  0.00    +0.000 C 
ATOM      3  C   UNL     1       1.604   2.515  20.785  0.00  0.00    +0.000 C 
ATOM      4  C   UNL     1       1.342   4.014  20.767  0.00  0.00    +0.000 C 
ATOM      5  N   UNL     1       2.244   4.571  19.769  0.00  0.00    +0.000 N 
ATOM      6  C   UNL     1       2.550   5.920  19.669  0.00  0.00    +0.000 C 
ATOM      7  O   UNL     1       3.423   6.321  18.898  0.00  0.00    +0.000 OA
ENDROOT
BRANCH   1  10
ATOM      8  C   UNL     1       5.529   3.879  16.296  0.00  0.00    +0.000 C 
ATOM      9  N   UNL     1       4.966   3.881  17.618  0.00  0.00    +0.000 N 
ATOM     10  C   UNL     1       3.651   3.536  17.822  0.00  0.00    +0.000 C 
ATOM     11  O   UNL     1       2.851   3.417  16.894  0.00  0.00    +0.000 OA
ATOM     12  H   UNL     1       5.585   3.774  18.417  0.00  0.00    +0.000 HD
ENDBRANCH   1  10
BRANCH   6  13
ATOM     13  C   UNL     1       1.789   6.907  20.571  0.00  0.00    +0.000 C 
BRANCH  13  14
ATOM     14  O   UNL     1       1.761   8.240  20.078  0.00  0.00    +0.000 OA
BRANCH  14  15
ATOM     15  C   UNL     1       0.900   9.101  20.717  0.00  0.00    +0.000 A 
ATOM     16  C   UNL     1       0.166  10.123  20.108  0.00  0.00    +0.000 A 
ATOM     17  C   UNL     1      -0.646  10.969  20.872  0.00  0.00    +0.000 A 
ATOM     18  C   UNL     1      -0.738  10.789  22.249  0.00  0.00    +0.000 A 
ATOM     19 CL   UNL     1      -1.725  11.842  23.184  0.00  0.00    +0.000 Cl
ATOM     20  C   UNL     1      -0.027   9.764  22.868  0.00  0.00    +0.000 A 
ATOM     21  C   UNL     1       0.790   8.924  22.101  0.00  0.00    +0.000 A 
ENDBRANCH  14  15
ENDBRANCH  13  14
ENDBRANCH   6  13
TORSDOF 4
ENDMDL
MODEL 5
REMARK VINA RESULT:      -6.5      3.538      5.026
REMARK  Name = 
REMARK  5 active torsions:
REMARK  status: ('A' for Active; 'I' for Inactive)
REMARK    1  A    between atoms: C_1  and  N_2
REMARK    2  A    between atoms: C_3  and  C_5
REMARK    3  A    between atoms: C_10  and  C_12
REMARK    4  A    between atoms: C_12  and  O_13
REMARK    5  A    between atoms: O_13  and  C_14
REMARK                            x       y       z     vdW  Elec       q    Type
REMARK                         _______ _______ _______ _____ _____    ______ ____
ROOT
ATOM      1  C   UNL     1       3.900   3.373  18.538  0.00  0.00    +0.000 C 
ATOM      2  C   UNL     1       3.166   2.248  17.801  0.00  0.00    +0.000 C 
ATOM      3  C   UNL     1       1.839   2.130  18.525  0.00  0.00    +0.000 C 
ATOM      4  C   UNL     1       1.550   3.536  19.033  0.00  0.00    +0.000 C 
ATOM      5  N   UNL     1       2.799   4.274  18.917  0.00  0.00    +0.000 N 
ATOM      6  C   UNL     1       3.050   5.476  19.560  0.00  0.00    +0.000 C 
ATOM      7  O   UNL     1       4.170   5.990  19.540  0.00  0.00    +0.000 OA
ENDROOT
BRANCH   1  10
ATOM      8  C   UNL     1       7.373   4.542  17.471  0.00  0.00    +0.000 C 
ATOM      9  N   UNL     1       6.234   4.111  18.232  0.00  0.00    +0.000 N 
ATOM     10  C   UNL     1       5.030   3.863  17.615  0.00  0.00    +0.000 C 
ATOM     11  O   UNL     1       4.809   4.190  16.449  0.00  0.00    +0.000 OA
ATOM     12  H   UNL     1       6.383   3.644  19.122  0.00  0.00    +0.000 HD
ENDBRANCH   1  10
BRANCH   6  13
ATOM     13  C   UNL     1       1.898   6.144  20.330  0.00  0.00    +0.000 C 
BRANCH  13  14
ATOM     14  O   UNL     1       2.152   7.492  20.703  0.00  0.00    +0.000 OA
BRANCH  14  15
ATOM     15  C   UNL     1       1.414   8.448  20.045  0.00  0.00    +0.000 A 
ATOM     16  C   UNL     1       1.594   8.846  18.717  0.00  0.00    +0.000 A 
ATOM     17  C   UNL     1       0.810   9.867  18.167  0.00  0.00    +0.000 A 
ATOM     18  C   UNL     1      -0.167  10.487  18.941  0.00  0.00    +0.000 A 
ATOM     19 CL   UNL     1      -1.116  11.752  18.264  0.00  0.00    +0.000 Cl
ATOM     20  C   UNL     1      -0.370  10.089  20.259  0.00  0.00    +0.000 A 
ATOM     21  C   UNL     1       0.421   9.072  20.808  0.00  0.00    +0.000 A 
ENDBRANCH  14  15
ENDBRANCH  13  14
ENDBRANCH   6  13
TORSDOF 4
ENDMDL
MODEL 6
REMARK VINA RESULT:      -6.5      3.146      6.163
REMARK  Name = 
REMARK  5 active torsions:
REMARK  status: ('A' for Active; 'I' for Inactive)
REMARK    1  A    between atoms: C_1  and  N_2
REMARK    2  A    between atoms: C_3  and  C_5
REMARK    3  A    between atoms: C_10  and  C_12
REMARK    4  A    between atoms: C_12  and  O_13
REMARK    5  A    between atoms: O_13  and  C_14
REMARK                            x       y       z     vdW  Elec       q    Type
REMARK                         _______ _______ _______ _____ _____    ______ ____
ROOT
ATOM      1  C   UNL     1       3.514   5.787  19.368  0.00  0.00    +0.000 C 
ATOM      2  C   UNL     1       2.331   6.444  18.650  0.00  0.00    +0.000 C 
ATOM      3  C   UNL     1       2.957   7.572  17.851  0.00  0.00    +0.000 C 
ATOM      4  C   UNL     1       4.358   7.078  17.519  0.00  0.00    +0.000 C 
ATOM      5  N   UNL     1       4.601   5.933  18.385  0.00  0.00    +0.000 N 
ATOM      6  C   UNL     1       5.857   5.398  18.626  0.00  0.00    +0.000 C 
ATOM      7  O   UNL     1       6.025   4.519  19.473  0.00  0.00    +0.000 OA
ENDROOT
BRANCH   1  10
ATOM      8  C   UNL     1       2.678   2.069  19.162  0.00  0.00    +0.000 C 
ATOM      9  N   UNL     1       3.056   3.420  18.851  0.00  0.00    +0.000 N 
ATOM     10  C   UNL     1       3.054   4.391  19.824  0.00  0.00    +0.000 C 
ATOM     11  O   UNL     1       2.542   4.215  20.929  0.00  0.00    +0.000 OA
ATOM     12  H   UNL     1       3.658   3.591  18.050  0.00  0.00    +0.000 HD
ENDBRANCH   1  10
BRANCH   6  13
ATOM     13  C   UNL     1       7.049   5.951  17.826  0.00  0.00    +0.000 C 
BRANCH  13  14
ATOM     14  O   UNL     1       7.699   4.987  17.009  0.00  0.00    +0.000 OA
BRANCH  14  15
ATOM     15  C   UNL     1       7.020   4.601  15.877  0.00  0.00    +0.000 A 
ATOM     16  C   UNL     1       5.871   3.806  15.846  0.00  0.00    +0.000 A 
ATOM     17  C   UNL     1       5.292   3.439  14.625  0.00  0.00    +0.000 A 
ATOM     18  C   UNL     1       5.855   3.875  13.429  0.00  0.00    +0.000 A 
ATOM     19 CL   UNL     1       5.148   3.406  11.933  0.00  0.00    +0.000 Cl
ATOM     20  C   UNL     1       6.989   4.682  13.444  0.00  0.00    +0.000 A 
ATOM     21  C   UNL     1       7.569   5.042  14.667  0.00  0.00    +0.000 A 
ENDBRANCH  14  15
ENDBRANCH  13  14
ENDBRANCH   6  13
TORSDOF 4
ENDMDL
MODEL 7
REMARK VINA RESULT:      -6.4      3.938      5.515
REMARK  Name = 
REMARK  5 active torsions:
REMARK  status: ('A' for Active; 'I' for Inactive)
REMARK    1  A    between atoms: C_1  and  N_2
REMARK    2  A    between atoms: C_3  and  C_5
REMARK    3  A    between atoms: C_10  and  C_12
REMARK    4  A    between atoms: C_12  and  O_13
REMARK    5  A    between atoms: O_13  and  C_14
REMARK                            x       y       z     vdW  Elec       q    Type
REMARK                         _______ _______ _______ _____ _____    ______ ____
ROOT
ATOM      1  C   UNL     1       3.124   3.523  19.258  0.00  0.00    +0.000 C 
ATOM      2  C   UNL     1       2.299   2.249  19.463  0.00  0.00    +0.000 C 
ATOM      3  C   UNL     1       1.523   2.508  20.741  0.00  0.00    +0.000 C 
ATOM      4  C   UNL     1       1.314   4.016  20.767  0.00  0.00    +0.000 C 
ATOM      5  N   UNL     1       2.226   4.569  19.777  0.00  0.00    +0.000 N 
ATOM      6  C   UNL     1       2.579   5.908  19.713  0.00  0.00    +0.000 C 
ATOM      7  O   UNL     1       3.459   6.301  18.945  0.00  0.00    +0.000 OA
ENDROOT
BRANCH   1  10
ATOM      8  C   UNL     1       5.455   3.860  16.254  0.00  0.00    +0.000 C 
ATOM      9  N   UNL     1       4.904   3.845  17.581  0.00  0.00    +0.000 N 
ATOM     10  C   UNL     1       3.579   3.541  17.788  0.00  0.00    +0.000 C 
ATOM     11  O   UNL     1       2.767   3.478  16.865  0.00  0.00    +0.000 OA
ATOM     12  H   UNL     1       5.526   3.692  18.371  0.00  0.00    +0.000 HD
ENDBRANCH   1  10
BRANCH   6  13
ATOM     13  C   UNL     1       1.862   6.895  20.649  0.00  0.00    +0.000 C 
BRANCH  13  14
ATOM     14  O   UNL     1       1.613   8.170  20.071  0.00  0.00    +0.000 OA
BRANCH  14  15
ATOM     15  C   UNL     1       0.900   9.055  20.845  0.00  0.00    +0.000 A 
ATOM     16  C   UNL     1       0.654   8.926  22.215  0.00  0.00    +0.000 A 
ATOM     17  C   UNL     1      -0.128   9.870  22.890  0.00  0.00    +0.000 A 
ATOM     18  C   UNL     1      -0.658  10.956  22.199  0.00  0.00    +0.000 A 
ATOM     19 CL   UNL     1      -1.631  12.104  23.031  0.00  0.00    +0.000 Cl
ATOM     20  C   UNL     1      -0.407  11.108  20.838  0.00  0.00    +0.000 A 
ATOM     21  C   UNL     1       0.370  10.157  20.164  0.00  0.00    +0.000 A 
ENDBRANCH  14  15
ENDBRANCH  13  14
ENDBRANCH   6  13
TORSDOF 4
ENDMDL
MODEL 8
REMARK VINA RESULT:      -6.4      3.393      6.538
REMARK  Name = 
REMARK  5 active torsions:
REMARK  status: ('A' for Active; 'I' for Inactive)
REMARK    1  A    between atoms: C_1  and  N_2
REMARK    2  A    between atoms: C_3  and  C_5
REMARK    3  A    between atoms: C_10  and  C_12
REMARK    4  A    between atoms: C_12  and  O_13
REMARK    5  A    between atoms: O_13  and  C_14
REMARK                            x       y       z     vdW  Elec       q    Type
REMARK                         _______ _______ _______ _____ _____    ______ ____
ROOT
ATOM      1  C   UNL     1       2.643   5.078  19.998  0.00  0.00    +0.000 C 
ATOM      2  C   UNL     1       1.896   6.412  20.104  0.00  0.00    +0.000 C 
ATOM      3  C   UNL     1       2.627   7.328  19.141  0.00  0.00    +0.000 C 
ATOM      4  C   UNL     1       3.154   6.403  18.053  0.00  0.00    +0.000 C 
ATOM      5  N   UNL     1       3.039   5.050  18.579  0.00  0.00    +0.000 N 
ATOM      6  C   UNL     1       3.696   3.954  18.044  0.00  0.00    +0.000 C 
ATOM      7  O   UNL     1       3.676   2.858  18.609  0.00  0.00    +0.000 OA
ENDROOT
BRANCH   1  10
ATOM      8  C   UNL     1       1.484   2.203  22.223  0.00  0.00    +0.000 C 
ATOM      9  N   UNL     1       2.259   3.229  21.583  0.00  0.00    +0.000 N 
ATOM     10  C   UNL     1       1.720   3.990  20.574  0.00  0.00    +0.000 C 
ATOM     11  O   UNL     1       0.651   3.705  20.034  0.00  0.00    +0.000 OA
ATOM     12  H   UNL     1       3.040   3.642  22.086  0.00  0.00    +0.000 HD
ENDBRANCH   1  10
BRANCH   6  13
ATOM     13  C   UNL     1       4.482   4.143  16.735  0.00  0.00    +0.000 C 
BRANCH  13  14
ATOM     14  O   UNL     1       5.894   4.089  16.891  0.00  0.00    +0.000 OA
BRANCH  14  15
ATOM     15  C   UNL     1       6.502   5.258  17.284  0.00  0.00    +0.000 A 
ATOM     16  C   UNL     1       6.365   6.500  16.656  0.00  0.00    +0.000 A 
ATOM     17  C   UNL     1       7.073   7.614  17.121  0.00  0.00    +0.000 A 
ATOM     18  C   UNL     1       7.913   7.494  18.225  0.00  0.00    +0.000 A 
ATOM     19 CL   UNL     1       8.792   8.863  18.781  0.00  0.00    +0.000 Cl
ATOM     20  C   UNL     1       8.045   6.268  18.872  0.00  0.00    +0.000 A 
ATOM     21  C   UNL     1       7.340   5.154  18.399  0.00  0.00    +0.000 A 
ENDBRANCH  14  15
ENDBRANCH  13  14
ENDBRANCH   6  13
TORSDOF 4
ENDMDL
MODEL 9
REMARK VINA RESULT:      -6.4      2.643      3.728
REMARK  Name = 
REMARK  5 active torsions:
REMARK  status: ('A' for Active; 'I' for Inactive)
REMARK    1  A    between atoms: C_1  and  N_2
REMARK    2  A    between atoms: C_3  and  C_5
REMARK    3  A    between atoms: C_10  and  C_12
REMARK    4  A    between atoms: C_12  and  O_13
REMARK    5  A    between atoms: O_13  and  C_14
REMARK                            x       y       z     vdW  Elec       q    Type
REMARK                         _______ _______ _______ _____ _____    ______ ____
ROOT
ATOM      1  C   UNL     1       6.912   5.253  17.052  0.00  0.00    +0.000 C 
ATOM      2  C   UNL     1       6.836   5.056  15.534  0.00  0.00    +0.000 C 
ATOM      3  C   UNL     1       6.032   3.781  15.363  0.00  0.00    +0.000 C 
ATOM      4  C   UNL     1       5.095   3.750  16.562  0.00  0.00    +0.000 C 
ATOM      5  N   UNL     1       5.609   4.734  17.504  0.00  0.00    +0.000 N 
ATOM      6  C   UNL     1       5.243   4.792  18.839  0.00  0.00    +0.000 C 
ATOM      7  O   UNL     1       5.809   5.554  19.625  0.00  0.00    +0.000 OA
ENDROOT
BRANCH   1  10
ATOM      8  C   UNL     1       8.546   8.269  18.725  0.00  0.00    +0.000 C 
ATOM      9  N   UNL     1       8.092   6.944  18.405  0.00  0.00    +0.000 N 
ATOM     10  C   UNL     1       7.299   6.721  17.303  0.00  0.00    +0.000 C 
ATOM     11  O   UNL     1       6.776   7.639  16.673  0.00  0.00    +0.000 OA
ATOM     12  H   UNL     1       8.623   6.146  18.741  0.00  0.00    +0.000 HD
ENDBRANCH   1  10
BRANCH   6  13
ATOM     13  C   UNL     1       4.125   3.856  19.329  0.00  0.00    +0.000 C 
BRANCH  13  14
ATOM     14  O   UNL     1       2.820   4.243  18.919  0.00  0.00    +0.000 OA
BRANCH  14  15
ATOM     15  C   UNL     1       2.442   5.524  19.246  0.00  0.00    +0.000 A 
ATOM     16  C   UNL     1       1.975   5.943  20.495  0.00  0.00    +0.000 A 
ATOM     17  C   UNL     1       1.573   7.268  20.697  0.00  0.00    +0.000 A 
ATOM     18  C   UNL     1       1.648   8.185  19.652  0.00  0.00    +0.000 A 
ATOM     19 CL   UNL     1       1.138   9.808  19.902  0.00  0.00    +0.000 Cl
ATOM     20  C   UNL     1       2.128   7.787  18.407  0.00  0.00    +0.000 A 
ATOM     21  C   UNL     1       2.523   6.458  18.207  0.00  0.00    +0.000 A 
ENDBRANCH  14  15
ENDBRANCH  13  14
ENDBRANCH   6  13
TORSDOF 4
ENDMDL
