MODEL 1
REMARK VINA RESULT:      -7.5      0.000      0.000
REMARK  Name = 
REMARK  6 active torsions:
REMARK  status: ('A' for Active; 'I' for Inactive)
REMARK    1  A    between atoms: C_1  and  O_2
REMARK    2  A    between atoms: O_2  and  C_3
REMARK    3  A    between atoms: C_5  and  N_6
REMARK    4  A    between atoms: C_11  and  C_12
REMARK    5  A    between atoms: N_14  and  C_15
REMARK    6  A    between atoms: N_14  and  C_16
REMARK                            x       y       z     vdW  Elec       q    Type
REMARK                         _______ _______ _______ _____ _____    ______ ____
ROOT
ATOM      1  N   UNL     1       4.040   3.743  17.963  0.00  0.00    +0.000 N 
ATOM      2  C   UNL     1       3.014   3.015  17.228  0.00  0.00    +0.000 C 
ATOM      3  C   UNL     1       2.016   2.548  18.290  0.00  0.00    +0.000 C 
ATOM      4  C   UNL     1       2.274   3.459  19.472  0.00  0.00    +0.000 C 
ATOM      5  O   UNL     1       1.571   4.709  19.341  0.00  0.00    +0.000 OA
ATOM      6  C   UNL     1       2.476   5.772  19.692  0.00  0.00    +0.000 C 
ATOM      7  C   UNL     1       3.811   5.111  20.064  0.00  0.00    +0.000 C 
ATOM      8  C   UNL     1       3.769   3.757  19.399  0.00  0.00    +0.000 C 
ENDROOT
BRANCH   1  11
ATOM      9  C   UNL     1       6.677   4.632  15.631  0.00  0.00    +0.000 A 
ATOM     10  C   UNL     1       5.446   4.191  16.066  0.00  0.00    +0.000 A 
ATOM     11  C   UNL     1       5.262   4.070  17.428  0.00  0.00    +0.000 A 
ATOM     12  N   UNL     1       6.278   4.317  18.275  0.00  0.00    +0.000 NA
ATOM     13  C   UNL     1       7.443   4.718  17.747  0.00  0.00    +0.000 A 
ATOM     14  N   UNL     1       7.710   4.890  16.444  0.00  0.00    +0.000 NA
BRANCH   9  16
ATOM     15  C   UNL     1       6.167   3.815  13.504  0.00  0.00    +0.000 C 
ATOM     16  O   UNL     1       6.828   4.824  14.268  0.00  0.00    +0.000 OA
ENDBRANCH   9  16
ENDBRANCH   1  11
BRANCH   6  17
ATOM     17  C   UNL     1       2.571   6.891  18.615  0.00  0.00    +0.000 C 
ATOM     18  O   UNL     1       3.161   6.702  17.556  0.00  0.00    +0.000 OA
ATOM     19  N   UNL     1       2.030   8.152  18.918  0.00  0.00    +0.000 N 
ATOM     20  C   UNL     1       1.381   8.528  20.164  0.00  0.00    +0.000 C 
ATOM     21  C   UNL     1       2.166   9.231  17.951  0.00  0.00    +0.000 C 
ENDBRANCH   6  17
TORSDOF 3
ENDMDL
MODEL 2
REMARK VINA RESULT:      -7.3      2.441      5.950
REMARK  Name = 
REMARK  6 active torsions:
REMARK  status: ('A' for Active; 'I' for Inactive)
REMARK    1  A    between atoms: C_1  and  O_2
REMARK    2  A    between atoms: O_2  and  C_3
REMARK    3  A    between atoms: C_5  and  N_6
REMARK    4  A    between atoms: C_11  and  C_12
REMARK    5  A    between atoms: N_14  and  C_15
REMARK    6  A    between atoms: N_14  and  C_16
REMARK                            x       y       z     vdW  Elec       q    Type
REMARK                         _______ _______ _______ _____ _____    ______ ____
ROOT
ATOM      1  N   UNL     1       5.401   5.440  17.957  0.00  0.00    +0.000 N 
ATOM      2  C   UNL     1       4.887   6.752  17.585  0.00  0.00    +0.000 C 
ATOM      3  C   UNL     1       6.124   7.644  17.450  0.00  0.00    +0.000 C 
ATOM      4  C   UNL     1       7.269   6.669  17.264  0.00  0.00    +0.000 C 
ATOM      5  O   UNL     1       7.397   6.259  15.889  0.00  0.00    +0.000 OA
ATOM      6  C   UNL     1       7.591   4.833  15.862  0.00  0.00    +0.000 C 
ATOM      7  C   UNL     1       7.584   4.359  17.322  0.00  0.00    +0.000 C 
ATOM      8  C   UNL     1       6.858   5.445  18.077  0.00  0.00    +0.000 C 
ENDROOT
BRANCH   1  11
ATOM      9  C   UNL     1       2.666   3.107  18.466  0.00  0.00    +0.000 A 
ATOM     10  C   UNL     1       3.339   4.207  17.979  0.00  0.00    +0.000 A 
ATOM     11  C   UNL     1       4.611   4.436  18.460  0.00  0.00    +0.000 A 
ATOM     12  N   UNL     1       5.130   3.640  19.414  0.00  0.00    +0.000 NA
ATOM     13  C   UNL     1       4.383   2.611  19.837  0.00  0.00    +0.000 A 
ATOM     14  N   UNL     1       3.151   2.292  19.413  0.00  0.00    +0.000 NA
BRANCH   9  16
ATOM     15  C   UNL     1       0.520   2.285  18.878  0.00  0.00    +0.000 C 
ATOM     16  O   UNL     1       1.422   2.842  17.920  0.00  0.00    +0.000 OA
ENDBRANCH   9  16
ENDBRANCH   1  11
BRANCH   6  17
ATOM     17  C   UNL     1       6.602   4.087  14.921  0.00  0.00    +0.000 C 
ATOM     18  O   UNL     1       5.757   3.319  15.371  0.00  0.00    +0.000 OA
ATOM     19  N   UNL     1       6.751   4.254  13.533  0.00  0.00    +0.000 N 
ATOM     20  C   UNL     1       7.760   5.067  12.873  0.00  0.00    +0.000 C 
ATOM     21  C   UNL     1       5.878   3.514  12.634  0.00  0.00    +0.000 C 
ENDBRANCH   6  17
TORSDOF 3
ENDMDL
MODEL 3
REMARK VINA RESULT:      -7.2      1.299      1.879
REMARK  Name = 
REMARK  6 active torsions:
REMARK  status: ('A' for Active; 'I' for Inactive)
REMARK    1  A    between atoms: C_1  and  O_2
REMARK    2  A    between atoms: O_2  and  C_3
REMARK    3  A    between atoms: C_5  and  N_6
REMARK    4  A    between atoms: C_11  and  C_12
REMARK    5  A    between atoms: N_14  and  C_15
REMARK    6  A    between atoms: N_14  and  C_16
REMARK                            x       y       z     vdW  Elec       q    Type
REMARK                         _______ _______ _______ _____ _____    ______ ____
ROOT
ATOM      1  N   UNL     1       4.082   4.071  17.465  0.00  0.00    +0.000 N 
ATOM      2  C   UNL     1       2.956   3.313  16.936  0.00  0.00    +0.000 C 
ATOM      3  C   UNL     1       2.263   2.715  18.163  0.00  0.00    +0.000 C 
ATOM      4  C   UNL     1       2.739   3.574  19.316  0.00  0.00    +0.000 C 
ATOM      5  O   UNL     1       1.953   4.776  19.440  0.00  0.00    +0.000 OA
ATOM      6  C   UNL     1       2.852   5.880  19.649  0.00  0.00    +0.000 C 
ATOM      7  C   UNL     1       4.273   5.298  19.655  0.00  0.00    +0.000 C 
ATOM      8  C   UNL     1       4.155   3.984  18.923  0.00  0.00    +0.000 C 
ENDROOT
BRANCH   1  11
ATOM      9  C   UNL     1       6.969   5.917  16.264  0.00  0.00    +0.000 A 
ATOM     10  C   UNL     1       5.875   5.615  17.046  0.00  0.00    +0.000 A 
ATOM     11  C   UNL     1       5.124   4.515  16.689  0.00  0.00    +0.000 A 
ATOM     12  N   UNL     1       5.429   3.817  15.579  0.00  0.00    +0.000 NA
ATOM     13  C   UNL     1       6.500   4.207  14.874  0.00  0.00    +0.000 A 
ATOM     14  N   UNL     1       7.304   5.243  15.155  0.00  0.00    +0.000 NA
BRANCH   9  16
ATOM     15  C   UNL     1       7.770   7.124  18.096  0.00  0.00    +0.000 C 
ATOM     16  O   UNL     1       7.760   6.975  16.675  0.00  0.00    +0.000 OA
ENDBRANCH   9  16
ENDBRANCH   1  11
BRANCH   6  17
ATOM     17  C   UNL     1       2.628   7.062  18.662  0.00  0.00    +0.000 C 
ATOM     18  O   UNL     1       3.099   7.039  17.530  0.00  0.00    +0.000 OA
ATOM     19  N   UNL     1       1.936   8.193  19.127  0.00  0.00    +0.000 N 
ATOM     20  C   UNL     1       1.401   8.378  20.466  0.00  0.00    +0.000 C 
ATOM     21  C   UNL     1       1.772   9.336  18.241  0.00  0.00    +0.000 C 
ENDBRANCH   6  17
TORSDOF 3
ENDMDL
MODEL 4
REMARK VINA RESULT:      -7.1      2.376      6.144
REMARK  Name = 
REMARK  6 active torsions:
REMARK  status: ('A' for Active; 'I' for Inactive)
REMARK    1  A    between atoms: C_1  and  O_2
REMARK    2  A    between atoms: O_2  and  C_3
REMARK    3  A    between atoms: C_5  and  N_6
REMARK    4  A    between atoms: C_11  and  C_12
REMARK    5  A    between atoms: N_14  and  C_15
REMARK    6  A    between atoms: N_14  and  C_16
REMARK                            x       y       z     vdW  Elec       q    Type
REMARK                         _______ _______ _______ _____ _____    ______ ____
ROOT
ATOM      1  N   UNL     1       4.742   5.243  17.705  0.00  0.00    +0.000 N 
ATOM      2  C   UNL     1       4.147   6.492  17.249  0.00  0.00    +0.000 C 
ATOM      3  C   UNL     1       5.285   7.515  17.285  0.00  0.00    +0.000 C 
ATOM      4  C   UNL     1       6.544   6.673  17.277  0.00  0.00    +0.000 C 
ATOM      5  O   UNL     1       6.915   6.288  15.939  0.00  0.00    +0.000 OA
ATOM      6  C   UNL     1       7.266   4.892  15.956  0.00  0.00    +0.000 C 
ATOM      7  C   UNL     1       7.100   4.412  17.405  0.00  0.00    +0.000 C 
ATOM      8  C   UNL     1       6.157   5.407  18.035  0.00  0.00    +0.000 C 
ENDROOT
BRANCH   1  11
ATOM      9  C   UNL     1       3.095   2.722  19.733  0.00  0.00    +0.000 A 
ATOM     10  C   UNL     1       3.952   3.753  19.417  0.00  0.00    +0.000 A 
ATOM     11  C   UNL     1       4.003   4.155  18.099  0.00  0.00    +0.000 A 
ATOM     12  N   UNL     1       3.282   3.508  17.164  0.00  0.00    +0.000 NA
ATOM     13  C   UNL     1       2.497   2.501  17.573  0.00  0.00    +0.000 A 
ATOM     14  N   UNL     1       2.361   2.056  18.830  0.00  0.00    +0.000 NA
BRANCH   9  16
ATOM     15  C   UNL     1       1.678   2.589  21.584  0.00  0.00    +0.000 C 
ATOM     16  O   UNL     1       2.994   2.377  21.069  0.00  0.00    +0.000 OA
ENDBRANCH   9  16
ENDBRANCH   1  11
BRANCH   6  17
ATOM     17  C   UNL     1       6.513   4.046  14.890  0.00  0.00    +0.000 C 
ATOM     18  O   UNL     1       5.709   3.181  15.221  0.00  0.00    +0.000 OA
ATOM     19  N   UNL     1       6.833   4.246  13.536  0.00  0.00    +0.000 N 
ATOM     20  C   UNL     1       7.821   5.179  13.019  0.00  0.00    +0.000 C 
ATOM     21  C   UNL     1       6.187   3.420  12.527  0.00  0.00    +0.000 C 
ENDBRANCH   6  17
TORSDOF 3
ENDMDL
MODEL 5
REMARK VINA RESULT:      -7.1      2.375      4.166
REMARK  Name = 
REMARK  6 active torsions:
REMARK  status: ('A' for Active; 'I' for Inactive)
REMARK    1  A    between atoms: C_1  and  O_2
REMARK    2  A    between atoms: O_2  and  C_3
REMARK    3  A    between atoms: C_5  and  N_6
REMARK    4  A    between atoms: C_11  and  C_12
REMARK    5  A    between atoms: N_14  and  C_15
REMARK    6  A    between atoms: N_14  and  C_16
REMARK                            x       y       z     vdW  Elec       q    Type
REMARK                         _______ _______ _______ _____ _____    ______ ____
ROOT
ATOM      1  N   UNL     1       6.948   5.172  16.421  0.00  0.00    +0.000 N 
ATOM      2  C   UNL     1       7.793   4.543  17.429  0.00  0.00    +0.000 C 
ATOM      3  C   UNL     1       7.703   5.456  18.654  0.00  0.00    +0.000 C 
ATOM      4  C   UNL     1       6.436   6.257  18.431  0.00  0.00    +0.000 C 
ATOM      5  O   UNL     1       5.269   5.534  18.867  0.00  0.00    +0.000 OA
ATOM      6  C   UNL     1       4.255   5.666  17.854  0.00  0.00    +0.000 C 
ATOM      7  C   UNL     1       4.855   6.534  16.739  0.00  0.00    +0.000 C 
ATOM      8  C   UNL     1       6.348   6.410  16.915  0.00  0.00    +0.000 C 
ENDROOT
BRANCH   1  11
ATOM      9  C   UNL     1       6.186   3.680  13.201  0.00  0.00    +0.000 A 
ATOM     10  C   UNL     1       6.156   3.868  14.565  0.00  0.00    +0.000 A 
ATOM     11  C   UNL     1       6.985   4.836  15.090  0.00  0.00    +0.000 A 
ATOM     12  N   UNL     1       7.828   5.515  14.290  0.00  0.00    +0.000 NA
ATOM     13  C   UNL     1       7.795   5.240  12.978  0.00  0.00    +0.000 A 
ATOM     14  N   UNL     1       7.009   4.338  12.373  0.00  0.00    +0.000 NA
BRANCH   9  16
ATOM     15  C   UNL     1       4.565   3.289  11.566  0.00  0.00    +0.000 C 
ATOM     16  O   UNL     1       5.295   2.760  12.674  0.00  0.00    +0.000 OA
ENDBRANCH   9  16
ENDBRANCH   1  11
BRANCH   6  17
ATOM     17  C   UNL     1       3.659   4.308  17.386  0.00  0.00    +0.000 C 
ATOM     18  O   UNL     1       3.884   3.872  16.262  0.00  0.00    +0.000 OA
ATOM     19  N   UNL     1       2.792   3.626  18.257  0.00  0.00    +0.000 N 
ATOM     20  C   UNL     1       2.381   4.074  19.578  0.00  0.00    +0.000 C 
ATOM     21  C   UNL     1       2.173   2.387  17.813  0.00  0.00    +0.000 C 
ENDBRANCH   6  17
TORSDOF 3
ENDMDL
MODEL 6
REMARK VINA RESULT:      -7.1      1.831      2.312
REMARK  Name = 
REMARK  6 active torsions:
REMARK  status: ('A' for Active; 'I' for Inactive)
REMARK    1  A    between atoms: C_1  and  O_2
REMARK    2  A    between atoms: O_2  and  C_3
REMARK    3  A    between atoms: C_5  and  N_6
REMARK    4  A    between atoms: C_11  and  C_12
REMARK    5  A    between atoms: N_14  and  C_15
REMARK    6  A    between atoms: N_14  and  C_16
REMARK                            x       y       z     vdW  Elec       q    Type
REMARK                         _______ _______ _______ _____ _____    ______ ____
ROOT
ATOM      1  N   UNL     1       4.664   4.438  18.268  0.00  0.00    +0.000 N 
ATOM      2  C   UNL     1       4.267   3.750  17.047  0.00  0.00    +0.000 C 
ATOM      3  C   UNL     1       3.132   2.813  17.466  0.00  0.00    +0.000 C 
ATOM      4  C   UNL     1       2.633   3.392  18.774  0.00  0.00    +0.000 C 
ATOM      5  O   UNL     1       1.690   4.459  18.555  0.00  0.00    +0.000 OA
ATOM      6  C   UNL     1       2.027   5.544  19.439  0.00  0.00    +0.000 C 
ATOM      7  C   UNL     1       3.252   5.092  20.246  0.00  0.00    +0.000 C 
ATOM      8  C   UNL     1       3.877   3.997  19.418  0.00  0.00    +0.000 C 
ENDROOT
BRANCH   1  11
ATOM      9  C   UNL     1       7.270   6.931  17.844  0.00  0.00    +0.000 A 
ATOM     10  C   UNL     1       6.122   6.218  17.574  0.00  0.00    +0.000 A 
ATOM     11  C   UNL     1       5.837   5.142  18.388  0.00  0.00    +0.000 A 
ATOM     12  N   UNL     1       6.694   4.783  19.363  0.00  0.00    +0.000 NA
ATOM     13  C   UNL     1       7.795   5.530  19.528  0.00  0.00    +0.000 A 
ATOM     14  N   UNL     1       8.144   6.605  18.806  0.00  0.00    +0.000 NA
BRANCH   9  16
ATOM     15  C   UNL     1       8.146   9.095  17.811  0.00  0.00    +0.000 C 
ATOM     16  O   UNL     1       7.507   8.054  17.070  0.00  0.00    +0.000 OA
ENDBRANCH   9  16
ENDBRANCH   1  11
BRANCH   6  17
ATOM     17  C   UNL     1       2.181   6.913  18.716  0.00  0.00    +0.000 C 
ATOM     18  O   UNL     1       2.676   6.985  17.596  0.00  0.00    +0.000 OA
ATOM     19  N   UNL     1       1.809   8.077  19.410  0.00  0.00    +0.000 N 
ATOM     20  C   UNL     1       1.289   8.134  20.767  0.00  0.00    +0.000 C 
ATOM     21  C   UNL     1       2.006   9.372  18.777  0.00  0.00    +0.000 C 
ENDBRANCH   6  17
TORSDOF 3
ENDMDL
MODEL 7
REMARK VINA RESULT:      -7.0      1.897      5.330
REMARK  Name = 
REMARK  6 active torsions:
REMARK  status: ('A' for Active; 'I' for Inactive)
REMARK    1  A    between atoms: C_1  and  O_2
REMARK    2  A    between atoms: O_2  and  C_3
REMARK    3  A    between atoms: C_5  and  N_6
REMARK    4  A    between atoms: C_11  and  C_12
REMARK    5  A    between atoms: N_14  and  C_15
REMARK    6  A    between atoms: N_14  and  C_16
REMARK                            x       y       z     vdW  Elec       q    Type
REMARK                         _______ _______ _______ _____ _____    ______ ____
ROOT
ATOM      1  N   UNL     1       2.113   4.549  19.914  0.00  0.00    +0.000 N 
ATOM      2  C   UNL     1       2.190   3.754  21.133  0.00  0.00    +0.000 C 
ATOM      3  C   UNL     1       1.909   2.316  20.691  0.00  0.00    +0.000 C 
ATOM      4  C   UNL     1       2.186   2.321  19.202  0.00  0.00    +0.000 C 
ATOM      5  O   UNL     1       3.590   2.147  18.924  0.00  0.00    +0.000 OA
ATOM      6  C   UNL     1       3.967   3.098  17.913  0.00  0.00    +0.000 C 
ATOM      7  C   UNL     1       2.702   3.891  17.557  0.00  0.00    +0.000 C 
ATOM      8  C   UNL     1       1.794   3.725  18.750  0.00  0.00    +0.000 C 
ENDROOT
BRANCH   1  11
ATOM      9  C   UNL     1       2.158   8.027  18.874  0.00  0.00    +0.000 A 
ATOM     10  C   UNL     1       2.404   6.672  18.827  0.00  0.00    +0.000 A 
ATOM     11  C   UNL     1       2.010   5.919  19.912  0.00  0.00    +0.000 A 
ATOM     12  N   UNL     1       1.467   6.514  20.991  0.00  0.00    +0.000 NA
ATOM     13  C   UNL     1       1.292   7.842  20.945  0.00  0.00    +0.000 A 
ATOM     14  N   UNL     1       1.618   8.654  19.928  0.00  0.00    +0.000 NA
BRANCH   9  16
ATOM     15  C   UNL     1       2.060  10.123  17.849  0.00  0.00    +0.000 C 
ATOM     16  O   UNL     1       2.486   8.763  17.748  0.00  0.00    +0.000 OA
ENDBRANCH   9  16
ENDBRANCH   1  11
BRANCH   6  17
ATOM     17  C   UNL     1       5.201   3.963  18.299  0.00  0.00    +0.000 C 
ATOM     18  O   UNL     1       5.373   4.341  19.454  0.00  0.00    +0.000 OA
ATOM     19  N   UNL     1       6.076   4.367  17.276  0.00  0.00    +0.000 N 
ATOM     20  C   UNL     1       5.941   4.057  15.862  0.00  0.00    +0.000 C 
ATOM     21  C   UNL     1       7.200   5.230  17.607  0.00  0.00    +0.000 C 
ENDBRANCH   6  17
TORSDOF 3
ENDMDL
MODEL 8
REMARK VINA RESULT:      -6.9      2.010      5.804
REMARK  Name = 
REMARK  6 active torsions:
REMARK  status: ('A' for Active; 'I' for Inactive)
REMARK    1  A    between atoms: C_1  and  O_2
REMARK    2  A    between atoms: O_2  and  C_3
REMARK    3  A    between atoms: C_5  and  N_6
REMARK    4  A    between atoms: C_11  and  C_12
REMARK    5  A    between atoms: N_14  and  C_15
REMARK    6  A    between atoms: N_14  and  C_16
REMARK                            x       y       z     vdW  Elec       q    Type
REMARK                         _______ _______ _______ _____ _____    ______ ____
ROOT
ATOM      1  N   UNL     1       2.170   4.667  19.879  0.00  0.00    +0.000 N 
ATOM      2  C   UNL     1       2.301   4.053  21.193  0.00  0.00    +0.000 C 
ATOM      3  C   UNL     1       2.042   2.561  20.967  0.00  0.00    +0.000 C 
ATOM      4  C   UNL     1       2.276   2.363  19.483  0.00  0.00    +0.000 C 
ATOM      5  O   UNL     1       3.674   2.179  19.187  0.00  0.00    +0.000 OA
ATOM      6  C   UNL     1       4.000   2.987  18.041  0.00  0.00    +0.000 C 
ATOM      7  C   UNL     1       2.706   3.697  17.619  0.00  0.00    +0.000 C 
ATOM      8  C   UNL     1       1.837   3.681  18.852  0.00  0.00    +0.000 C 
ENDROOT
BRANCH   1  11
ATOM      9  C   UNL     1       1.576   8.204  20.444  0.00  0.00    +0.000 A 
ATOM     10  C   UNL     1       1.571   6.848  20.690  0.00  0.00    +0.000 A 
ATOM     11  C   UNL     1       2.034   6.021  19.689  0.00  0.00    +0.000 A 
ATOM     12  N   UNL     1       2.414   6.535  18.504  0.00  0.00    +0.000 NA
ATOM     13  C   UNL     1       2.359   7.866  18.359  0.00  0.00    +0.000 A 
ATOM     14  N   UNL     1       1.949   8.752  19.279  0.00  0.00    +0.000 NA
BRANCH   9  16
ATOM     15  C   UNL     1      -0.194   9.402  21.384  0.00  0.00    +0.000 C 
ATOM     16  O   UNL     1       1.182   9.031  21.481  0.00  0.00    +0.000 OA
ENDBRANCH   9  16
ENDBRANCH   1  11
BRANCH   6  17
ATOM     17  C   UNL     1       5.223   3.921  18.263  0.00  0.00    +0.000 C 
ATOM     18  O   UNL     1       5.476   4.380  19.373  0.00  0.00    +0.000 OA
ATOM     19  N   UNL     1       5.990   4.291  17.145  0.00  0.00    +0.000 N 
ATOM     20  C   UNL     1       5.748   3.884  15.770  0.00  0.00    +0.000 C 
ATOM     21  C   UNL     1       7.099   5.216  17.321  0.00  0.00    +0.000 C 
ENDBRANCH   6  17
TORSDOF 3
ENDMDL
MODEL 9
REMARK VINA RESULT:      -6.9      1.264      2.035
REMARK  Name = 
REMARK  6 active torsions:
REMARK  status: ('A' for Active; 'I' for Inactive)
REMARK    1  A    between atoms: C_1  and  O_2
REMARK    2  A    between atoms: O_2  and  C_3
REMARK    3  A    between atoms: C_5  and  N_6
REMARK    4  A    between atoms: C_11  and  C_12
REMARK    5  A    between atoms: N_14  and  C_15
REMARK    6  A    between atoms: N_14  and  C_16
REMARK                            x       y       z     vdW  Elec       q    Type
REMARK                         _______ _______ _______ _____ _____    ______ ____
ROOT
ATOM      1  N   UNL     1       3.658   3.641  18.001  0.00  0.00    +0.000 N 
ATOM      2  C   UNL     1       2.604   2.985  17.239  0.00  0.00    +0.000 C 
ATOM      3  C   UNL     1       1.622   2.455  18.287  0.00  0.00    +0.000 C 
ATOM      4  C   UNL     1       1.922   3.272  19.527  0.00  0.00    +0.000 C 
ATOM      5  O   UNL     1       1.237   4.540  19.505  0.00  0.00    +0.000 OA
ATOM      6  C   UNL     1       2.168   5.559  19.912  0.00  0.00    +0.000 C 
ATOM      7  C   UNL     1       3.499   4.852  20.202  0.00  0.00    +0.000 C 
ATOM      8  C   UNL     1       3.420   3.552  19.440  0.00  0.00    +0.000 C 
ENDROOT
BRANCH   1  11
ATOM      9  C   UNL     1       7.155   4.546  17.633  0.00  0.00    +0.000 A 
ATOM     10  C   UNL     1       5.948   4.323  18.259  0.00  0.00    +0.000 A 
ATOM     11  C   UNL     1       4.873   3.988  17.463  0.00  0.00    +0.000 A 
ATOM     12  N   UNL     1       5.007   3.948  16.124  0.00  0.00    +0.000 NA
ATOM     13  C   UNL     1       6.219   4.204  15.613  0.00  0.00    +0.000 A 
ATOM     14  N   UNL     1       7.326   4.513  16.304  0.00  0.00    +0.000 NA
BRANCH   9  16
ATOM     15  C   UNL     1       7.954   5.792  19.439  0.00  0.00    +0.000 C 
ATOM     16  O   UNL     1       8.244   4.806  18.446  0.00  0.00    +0.000 OA
ENDBRANCH   9  16
ENDBRANCH   1  11
BRANCH   6  17
ATOM     17  C   UNL     1       2.258   6.753  18.919  0.00  0.00    +0.000 C 
ATOM     18  O   UNL     1       2.730   6.609  17.796  0.00  0.00    +0.000 OA
ATOM     19  N   UNL     1       1.854   8.023  19.367  0.00  0.00    +0.000 N 
ATOM     20  C   UNL     1       1.356   8.342  20.695  0.00  0.00    +0.000 C 
ATOM     21  C   UNL     1       1.991   9.165  18.476  0.00  0.00    +0.000 C 
ENDBRANCH   6  17
TORSDOF 3
ENDMDL
