MODEL 1
REMARK VINA RESULT:      -7.6      0.000      0.000
REMARK  Name = 
REMARK  8 active torsions:
REMARK  status: ('A' for Active; 'I' for Inactive)
REMARK    1  A    between atoms: C_1  and  C_2
REMARK    2  A    between atoms: C_2  and  O_3
REMARK    3  A    between atoms: O_3  and  C_4
REMARK    4  A    between atoms: C_4  and  C_5
REMARK    5  A    between atoms: C_5  and  C_6
REMARK    6  A    between atoms: C_6  and  N_7
REMARK    7  A    between atoms: C_8  and  C_10
REMARK    8  A    between atoms: C_23  and  C_24
REMARK                            x       y       z     vdW  Elec       q    Type
REMARK                         _______ _______ _______ _____ _____    ______ ____
ROOT
ATOM      1  C   UNL     1       2.434   6.781  19.274  0.00  0.00    +0.000 A 
ATOM      2  C   UNL     1       3.358   6.858  18.310  0.00  0.00    +0.000 A 
ATOM      3  N   UNL     1       3.992   5.794  17.703  0.00  0.00    +0.000 N 
ATOM      4  C   UNL     1       3.657   4.482  18.067  0.00  0.00    +0.000 A 
ATOM      5  C   UNL     1       4.258   3.385  17.442  0.00  0.00    +0.000 A 
ATOM      6  C   UNL     1       3.888   2.081  17.774  0.00  0.00    +0.000 A 
ATOM      7  C   UNL     1       2.917   1.849  18.739  0.00  0.00    +0.000 A 
ATOM      8  C   UNL     1       2.308   2.922  19.394  0.00  0.00    +0.000 A 
ATOM      9 CL   UNL     1       1.104   2.489  20.560  0.00  0.00    +0.000 Cl
ATOM     10  C   UNL     1       2.676   4.242  19.069  0.00  0.00    +0.000 A 
ATOM     11  C   UNL     1       2.078   5.425  19.763  0.00  0.00    +0.000 A 
ATOM     12  O   UNL     1       1.329   5.315  20.728  0.00  0.00    +0.000 OA
ATOM     13  O   UNL     1       5.219   3.465  16.484  0.00  0.00    +0.000 OA
ATOM     14  C   UNL     1       5.642   4.755  16.054  0.00  0.00    +0.000 C 
ATOM     15  C   UNL     1       5.409   4.833  14.545  0.00  0.00    +0.000 C 
ATOM     16  C   UNL     1       5.096   5.999  16.768  0.00  0.00    +0.000 C 
ENDROOT
BRANCH   1  18
ATOM     17  N   UNL     1       1.698   8.082  21.171  0.00  0.00    +0.000 N 
ATOM     18  C   UNL     1       1.879   8.055  19.812  0.00  0.00    +0.000 C 
ATOM     19  O   UNL     1       1.628   9.004  19.075  0.00  0.00    +0.000 OA
ATOM     20  H   UNL     1       1.854   7.220  21.695  0.00  0.00    +0.000 HD
BRANCH  17  21
ATOM     21  C   UNL     1       1.179   9.239  21.869  0.00  0.00    +0.000 C 
BRANCH  21  22
ATOM     22  C   UNL     1      -0.310   9.093  22.155  0.00  0.00    +0.000 C 
BRANCH  22  23
ATOM     23  C   UNL     1      -0.767  10.065  23.236  0.00  0.00    +0.000 C 
BRANCH  23  24
ATOM     24  O   UNL     1      -0.315  11.376  22.914  0.00  0.00    +0.000 OA
BRANCH  24  26
ATOM     25  C   UNL     1      -2.581  12.083  23.162  0.00  0.00    +0.000 C 
ATOM     26  C   UNL     1      -1.334  12.159  22.304  0.00  0.00    +0.000 C 
ENDBRANCH  24  26
ENDBRANCH  23  24
ENDBRANCH  22  23
ENDBRANCH  21  22
ENDBRANCH  17  21
ENDBRANCH   1  18
TORSDOF 6
ENDMDL
MODEL 2
REMARK VINA RESULT:      -7.2      2.555      8.005
REMARK  Name = 
REMARK  8 active torsions:
REMARK  status: ('A' for Active; 'I' for Inactive)
REMARK    1  A    between atoms: C_1  and  C_2
REMARK    2  A    between atoms: C_2  and  O_3
REMARK    3  A    between atoms: O_3  and  C_4
REMARK    4  A    between atoms: C_4  and  C_5
REMARK    5  A    between atoms: C_5  and  C_6
REMARK    6  A    between atoms: C_6  and  N_7
REMARK    7  A    between atoms: C_8  and  C_10
REMARK    8  A    between atoms: C_23  and  C_24
REMARK                            x       y       z     vdW  Elec       q    Type
REMARK                         _______ _______ _______ _____ _____    ______ ____
ROOT
ATOM      1  C   UNL     1       4.655   5.474  17.225  0.00  0.00    +0.000 A 
ATOM      2  C   UNL     1       4.037   6.516  17.793  0.00  0.00    +0.000 A 
ATOM      3  N   UNL     1       3.037   6.451  18.742  0.00  0.00    +0.000 N 
ATOM      4  C   UNL     1       2.607   5.205  19.218  0.00  0.00    +0.000 A 
ATOM      5  C   UNL     1       1.621   5.113  20.206  0.00  0.00    +0.000 A 
ATOM      6  C   UNL     1       1.229   3.873  20.711  0.00  0.00    +0.000 A 
ATOM      7  C   UNL     1       1.808   2.703  20.236  0.00  0.00    +0.000 A 
ATOM      8  C   UNL     1       2.785   2.759  19.238  0.00  0.00    +0.000 A 
ATOM      9 CL   UNL     1       3.433   1.230  18.753  0.00  0.00    +0.000 Cl
ATOM     10  C   UNL     1       3.186   4.005  18.719  0.00  0.00    +0.000 A 
ATOM     11  C   UNL     1       4.204   4.118  17.628  0.00  0.00    +0.000 A 
ATOM     12  O   UNL     1       4.656   3.139  17.044  0.00  0.00    +0.000 OA
ATOM     13  O   UNL     1       0.972   6.171  20.759  0.00  0.00    +0.000 OA
ATOM     14  C   UNL     1       1.326   7.482  20.331  0.00  0.00    +0.000 C 
ATOM     15  C   UNL     1       1.765   8.265  21.569  0.00  0.00    +0.000 C 
ATOM     16  C   UNL     1       2.327   7.650  19.181  0.00  0.00    +0.000 C 
ENDROOT
BRANCH   1  18
ATOM     17  N   UNL     1       5.782   4.843  15.185  0.00  0.00    +0.000 N 
ATOM     18  C   UNL     1       5.703   5.756  16.204  0.00  0.00    +0.000 C 
ATOM     19  O   UNL     1       6.419   6.750  16.282  0.00  0.00    +0.000 OA
ATOM     20  H   UNL     1       5.205   4.003  15.245  0.00  0.00    +0.000 HD
BRANCH  17  21
ATOM     21  C   UNL     1       6.732   4.962  14.099  0.00  0.00    +0.000 C 
BRANCH  21  22
ATOM     22  C   UNL     1       6.527   3.866  13.061  0.00  0.00    +0.000 C 
BRANCH  22  23
ATOM     23  C   UNL     1       5.048   3.644  12.770  0.00  0.00    +0.000 C 
BRANCH  23  24
ATOM     24  O   UNL     1       4.876   3.355  11.386  0.00  0.00    +0.000 OA
BRANCH  24  26
ATOM     25  C   UNL     1       3.144   3.959   9.860  0.00  0.00    +0.000 C 
ATOM     26  C   UNL     1       3.515   3.105  11.056  0.00  0.00    +0.000 C 
ENDBRANCH  24  26
ENDBRANCH  23  24
ENDBRANCH  22  23
ENDBRANCH  21  22
ENDBRANCH  17  21
ENDBRANCH   1  18
TORSDOF 6
ENDMDL
MODEL 3
REMARK VINA RESULT:      -7.2      3.547      8.466
REMARK  Name = 
REMARK  8 active torsions:
REMARK  status: ('A' for Active; 'I' for Inactive)
REMARK    1  A    between atoms: C_1  and  C_2
REMARK    2  A    between atoms: C_2  and  O_3
REMARK    3  A    between atoms: O_3  and  C_4
REMARK    4  A    between atoms: C_4  and  C_5
REMARK    5  A    between atoms: C_5  and  C_6
REMARK    6  A    between atoms: C_6  and  N_7
REMARK    7  A    between atoms: C_8  and  C_10
REMARK    8  A    between atoms: C_23  and  C_24
REMARK                            x       y       z     vdW  Elec       q    Type
REMARK                         _______ _______ _______ _____ _____    ______ ____
ROOT
ATOM      1  C   UNL     1       5.105   4.930  17.271  0.00  0.00    +0.000 A 
ATOM      2  C   UNL     1       4.817   3.989  18.177  0.00  0.00    +0.000 A 
ATOM      3  N   UNL     1       3.936   4.116  19.231  0.00  0.00    +0.000 N 
ATOM      4  C   UNL     1       3.221   5.310  19.403  0.00  0.00    +0.000 A 
ATOM      5  C   UNL     1       2.295   5.451  20.441  0.00  0.00    +0.000 A 
ATOM      6  C   UNL     1       1.551   6.624  20.581  0.00  0.00    +0.000 A 
ATOM      7  C   UNL     1       1.722   7.677  19.692  0.00  0.00    +0.000 A 
ATOM      8  C   UNL     1       2.651   7.573  18.653  0.00  0.00    +0.000 A 
ATOM      9 CL   UNL     1       2.749   8.952  17.612  0.00  0.00    +0.000 Cl
ATOM     10  C   UNL     1       3.409   6.396  18.505  0.00  0.00    +0.000 A 
ATOM     11  C   UNL     1       4.439   6.248  17.429  0.00  0.00    +0.000 A 
ATOM     12  O   UNL     1       4.765   7.175  16.697  0.00  0.00    +0.000 OA
ATOM     13  O   UNL     1       2.026   4.505  21.379  0.00  0.00    +0.000 OA
ATOM     14  C   UNL     1       2.712   3.260  21.302  0.00  0.00    +0.000 C 
ATOM     15  C   UNL     1       1.655   2.160  21.200  0.00  0.00    +0.000 C 
ATOM     16  C   UNL     1       3.813   3.075  20.249  0.00  0.00    +0.000 C 
ENDROOT
BRANCH   1  18
ATOM     17  N   UNL     1       5.678   4.813  14.928  0.00  0.00    +0.000 N 
ATOM     18  C   UNL     1       6.102   4.599  16.214  0.00  0.00    +0.000 C 
ATOM     19  O   UNL     1       7.221   4.185  16.500  0.00  0.00    +0.000 OA
ATOM     20  H   UNL     1       4.703   5.080  14.780  0.00  0.00    +0.000 HD
BRANCH  17  21
ATOM     21  C   UNL     1       6.515   4.559  13.775  0.00  0.00    +0.000 C 
BRANCH  21  22
ATOM     22  C   UNL     1       5.997   3.379  12.963  0.00  0.00    +0.000 C 
BRANCH  22  23
ATOM     23  C   UNL     1       4.767   3.760  12.149  0.00  0.00    +0.000 C 
BRANCH  23  24
ATOM     24  O   UNL     1       4.488   2.732  11.203  0.00  0.00    +0.000 OA
BRANCH  24  26
ATOM     25  C   UNL     1       3.138   4.159   9.847  0.00  0.00    +0.000 C 
ATOM     26  C   UNL     1       3.191   2.865  10.635  0.00  0.00    +0.000 C 
ENDBRANCH  24  26
ENDBRANCH  23  24
ENDBRANCH  22  23
ENDBRANCH  21  22
ENDBRANCH  17  21
ENDBRANCH   1  18
TORSDOF 6
ENDMDL
MODEL 4
REMARK VINA RESULT:      -7.2      2.253      2.569
REMARK  Name = 
REMARK  8 active torsions:
REMARK  status: ('A' for Active; 'I' for Inactive)
REMARK    1  A    between atoms: C_1  and  C_2
REMARK    2  A    between atoms: C_2  and  O_3
REMARK    3  A    between atoms: O_3  and  C_4
REMARK    4  A    between atoms: C_4  and  C_5
REMARK    5  A    between atoms: C_5  and  C_6
REMARK    6  A    between atoms: C_6  and  N_7
REMARK    7  A    between atoms: C_8  and  C_10
REMARK    8  A    between atoms: C_23  and  C_24
REMARK                            x       y       z     vdW  Elec       q    Type
REMARK                         _______ _______ _______ _____ _____    ______ ____
ROOT
ATOM      1  C   UNL     1       2.565   7.601  18.432  0.00  0.00    +0.000 A 
ATOM      2  C   UNL     1       3.460   7.416  17.454  0.00  0.00    +0.000 A 
ATOM      3  N   UNL     1       4.164   6.256  17.203  0.00  0.00    +0.000 N 
ATOM      4  C   UNL     1       3.943   5.120  17.995  0.00  0.00    +0.000 A 
ATOM      5  C   UNL     1       4.616   3.922  17.740  0.00  0.00    +0.000 A 
ATOM      6  C   UNL     1       4.359   2.781  18.500  0.00  0.00    +0.000 A 
ATOM      7  C   UNL     1       3.430   2.816  19.532  0.00  0.00    +0.000 A 
ATOM      8  C   UNL     1       2.750   4.002  19.823  0.00  0.00    +0.000 A 
ATOM      9 CL   UNL     1       1.611   3.899  21.121  0.00  0.00    +0.000 Cl
ATOM     10  C   UNL     1       3.005   5.160  19.064  0.00  0.00    +0.000 A 
ATOM     11  C   UNL     1       2.329   6.463  19.357  0.00  0.00    +0.000 A 
ATOM     12  O   UNL     1       1.612   6.629  20.337  0.00  0.00    +0.000 OA
ATOM     13  O   UNL     1       5.547   3.744  16.765  0.00  0.00    +0.000 OA
ATOM     14  C   UNL     1       5.856   4.844  15.915  0.00  0.00    +0.000 C 
ATOM     15  C   UNL     1       5.586   4.400  14.477  0.00  0.00    +0.000 C 
ATOM     16  C   UNL     1       5.228   6.214  16.203  0.00  0.00    +0.000 C 
ENDROOT
BRANCH   1  18
ATOM     17  N   UNL     1       1.401   9.232  19.778  0.00  0.00    +0.000 N 
ATOM     18  C   UNL     1       1.922   8.940  18.544  0.00  0.00    +0.000 C 
ATOM     19  O   UNL     1       1.889   9.714  17.593  0.00  0.00    +0.000 OA
ATOM     20  H   UNL     1       1.399   8.497  20.487  0.00  0.00    +0.000 HD
BRANCH  17  21
ATOM     21  C   UNL     1       0.750  10.490  20.075  0.00  0.00    +0.000 C 
BRANCH  21  22
ATOM     22  C   UNL     1      -0.682  10.510  19.554  0.00  0.00    +0.000 C 
BRANCH  22  23
ATOM     23  C   UNL     1      -0.979  11.793  18.790  0.00  0.00    +0.000 C 
BRANCH  23  24
ATOM     24  O   UNL     1      -1.731  11.484  17.620  0.00  0.00    +0.000 OA
BRANCH  24  26
ATOM     25  C   UNL     1      -3.166   9.695  16.958  0.00  0.00    +0.000 C 
ATOM     26  C   UNL     1      -1.756  10.086  17.355  0.00  0.00    +0.000 C 
ENDBRANCH  24  26
ENDBRANCH  23  24
ENDBRANCH  22  23
ENDBRANCH  21  22
ENDBRANCH  17  21
ENDBRANCH   1  18
TORSDOF 6
ENDMDL
MODEL 5
REMARK VINA RESULT:      -7.1      1.721      2.150
REMARK  Name = 
REMARK  8 active torsions:
REMARK  status: ('A' for Active; 'I' for Inactive)
REMARK    1  A    between atoms: C_1  and  C_2
REMARK    2  A    between atoms: C_2  and  O_3
REMARK    3  A    between atoms: O_3  and  C_4
REMARK    4  A    between atoms: C_4  and  C_5
REMARK    5  A    between atoms: C_5  and  C_6
REMARK    6  A    between atoms: C_6  and  N_7
REMARK    7  A    between atoms: C_8  and  C_10
REMARK    8  A    between atoms: C_23  and  C_24
REMARK                            x       y       z     vdW  Elec       q    Type
REMARK                         _______ _______ _______ _____ _____    ______ ____
ROOT
ATOM      1  C   UNL     1       2.643   7.995  18.165  0.00  0.00    +0.000 A 
ATOM      2  C   UNL     1       3.502   7.722  17.177  0.00  0.00    +0.000 A 
ATOM      3  N   UNL     1       4.247   6.569  17.040  0.00  0.00    +0.000 N 
ATOM      4  C   UNL     1       4.110   5.535  17.978  0.00  0.00    +0.000 A 
ATOM      5  C   UNL     1       4.825   4.341  17.842  0.00  0.00    +0.000 A 
ATOM      6  C   UNL     1       4.651   3.297  18.751  0.00  0.00    +0.000 A 
ATOM      7  C   UNL     1       3.765   3.427  19.813  0.00  0.00    +0.000 A 
ATOM      8  C   UNL     1       3.047   4.613  19.985  0.00  0.00    +0.000 A 
ATOM      9 CL   UNL     1       1.968   4.631  21.339  0.00  0.00    +0.000 Cl
ATOM     10  C   UNL     1       3.218   5.674  19.076  0.00  0.00    +0.000 A 
ATOM     11  C   UNL     1       2.496   6.976  19.235  0.00  0.00    +0.000 A 
ATOM     12  O   UNL     1       1.815   7.237  20.220  0.00  0.00    +0.000 OA
ATOM     13  O   UNL     1       5.721   4.077  16.855  0.00  0.00    +0.000 OA
ATOM     14  C   UNL     1       5.945   5.071  15.860  0.00  0.00    +0.000 C 
ATOM     15  C   UNL     1       5.634   4.438  14.503  0.00  0.00    +0.000 C 
ATOM     16  C   UNL     1       5.268   6.441  16.004  0.00  0.00    +0.000 C 
ENDROOT
BRANCH   1  18
ATOM     17  N   UNL     1       0.786   9.369  18.868  0.00  0.00    +0.000 N 
ATOM     18  C   UNL     1       1.946   9.312  18.139  0.00  0.00    +0.000 C 
ATOM     19  O   UNL     1       2.405  10.266  17.518  0.00  0.00    +0.000 OA
ATOM     20  H   UNL     1       0.435   8.505  19.284  0.00  0.00    +0.000 HD
BRANCH  17  21
ATOM     21  C   UNL     1      -0.018  10.569  18.968  0.00  0.00    +0.000 C 
BRANCH  21  22
ATOM     22  C   UNL     1       0.578  11.554  19.966  0.00  0.00    +0.000 C 
BRANCH  22  23
ATOM     23  C   UNL     1       0.243  11.163  21.400  0.00  0.00    +0.000 C 
BRANCH  23  24
ATOM     24  O   UNL     1       1.260  10.302  21.904  0.00  0.00    +0.000 OA
BRANCH  24  26
ATOM     25  C   UNL     1      -0.567   8.807  22.259  0.00  0.00    +0.000 C 
ATOM     26  C   UNL     1       0.742   9.336  22.812  0.00  0.00    +0.000 C 
ENDBRANCH  24  26
ENDBRANCH  23  24
ENDBRANCH  22  23
ENDBRANCH  21  22
ENDBRANCH  17  21
ENDBRANCH   1  18
TORSDOF 6
ENDMDL
MODEL 6
REMARK VINA RESULT:      -7.1      3.045      3.404
REMARK  Name = 
REMARK  8 active torsions:
REMARK  status: ('A' for Active; 'I' for Inactive)
REMARK    1  A    between atoms: C_1  and  C_2
REMARK    2  A    between atoms: C_2  and  O_3
REMARK    3  A    between atoms: O_3  and  C_4
REMARK    4  A    between atoms: C_4  and  C_5
REMARK    5  A    between atoms: C_5  and  C_6
REMARK    6  A    between atoms: C_6  and  N_7
REMARK    7  A    between atoms: C_8  and  C_10
REMARK    8  A    between atoms: C_23  and  C_24
REMARK                            x       y       z     vdW  Elec       q    Type
REMARK                         _______ _______ _______ _____ _____    ______ ____
ROOT
ATOM      1  C   UNL     1       2.633   8.047  18.095  0.00  0.00    +0.000 A 
ATOM      2  C   UNL     1       3.504   7.762  17.120  0.00  0.00    +0.000 A 
ATOM      3  N   UNL     1       4.237   6.600  16.998  0.00  0.00    +0.000 N 
ATOM      4  C   UNL     1       4.076   5.571  17.936  0.00  0.00    +0.000 A 
ATOM      5  C   UNL     1       4.780   4.368  17.815  0.00  0.00    +0.000 A 
ATOM      6  C   UNL     1       4.581   3.329  18.724  0.00  0.00    +0.000 A 
ATOM      7  C   UNL     1       3.682   3.472  19.773  0.00  0.00    +0.000 A 
ATOM      8  C   UNL     1       2.974   4.666  19.931  0.00  0.00    +0.000 A 
ATOM      9 CL   UNL     1       1.877   4.701  21.269  0.00  0.00    +0.000 Cl
ATOM     10  C   UNL     1       3.170   5.722  19.022  0.00  0.00    +0.000 A 
ATOM     11  C   UNL     1       2.461   7.033  19.166  0.00  0.00    +0.000 A 
ATOM     12  O   UNL     1       1.768   7.304  20.140  0.00  0.00    +0.000 OA
ATOM     13  O   UNL     1       5.687   4.092  16.841  0.00  0.00    +0.000 OA
ATOM     14  C   UNL     1       5.936   5.080  15.846  0.00  0.00    +0.000 C 
ATOM     15  C   UNL     1       5.638   4.446  14.487  0.00  0.00    +0.000 C 
ATOM     16  C   UNL     1       5.272   6.458  15.976  0.00  0.00    +0.000 C 
ENDROOT
BRANCH   1  18
ATOM     17  N   UNL     1       0.668   9.378  18.539  0.00  0.00    +0.000 N 
ATOM     18  C   UNL     1       1.951   9.371  18.055  0.00  0.00    +0.000 C 
ATOM     19  O   UNL     1       2.523  10.372  17.633  0.00  0.00    +0.000 OA
ATOM     20  H   UNL     1       0.244   8.485  18.792  0.00  0.00    +0.000 HD
BRANCH  17  21
ATOM     21  C   UNL     1      -0.143  10.576  18.589  0.00  0.00    +0.000 C 
BRANCH  21  22
ATOM     22  C   UNL     1      -1.622  10.252  18.416  0.00  0.00    +0.000 C 
BRANCH  22  23
ATOM     23  C   UNL     1      -2.368  11.396  17.742  0.00  0.00    +0.000 C 
BRANCH  23  24
ATOM     24  O   UNL     1      -3.517  10.882  17.075  0.00  0.00    +0.000 OA
BRANCH  24  26
ATOM     25  C   UNL     1      -2.965   9.949  14.949  0.00  0.00    +0.000 C 
ATOM     26  C   UNL     1      -3.498  11.165  15.681  0.00  0.00    +0.000 C 
ENDBRANCH  24  26
ENDBRANCH  23  24
ENDBRANCH  22  23
ENDBRANCH  21  22
ENDBRANCH  17  21
ENDBRANCH   1  18
TORSDOF 6
ENDMDL
MODEL 7
REMARK VINA RESULT:      -7.1      2.499      2.834
REMARK  Name = 
REMARK  8 active torsions:
REMARK  status: ('A' for Active; 'I' for Inactive)
REMARK    1  A    between atoms: C_1  and  C_2
REMARK    2  A    between atoms: C_2  and  O_3
REMARK    3  A    between atoms: O_3  and  C_4
REMARK    4  A    between atoms: C_4  and  C_5
REMARK    5  A    between atoms: C_5  and  C_6
REMARK    6  A    between atoms: C_6  and  N_7
REMARK    7  A    between atoms: C_8  and  C_10
REMARK    8  A    between atoms: C_23  and  C_24
REMARK                            x       y       z     vdW  Elec       q    Type
REMARK                         _______ _______ _______ _____ _____    ______ ____
ROOT
ATOM      1  C   UNL     1       2.373   6.990  19.045  0.00  0.00    +0.000 A 
ATOM      2  C   UNL     1       3.281   6.982  18.062  0.00  0.00    +0.000 A 
ATOM      3  N   UNL     1       3.928   5.871  17.560  0.00  0.00    +0.000 N 
ATOM      4  C   UNL     1       3.624   4.599  18.065  0.00  0.00    +0.000 A 
ATOM      5  C   UNL     1       4.238   3.454  17.549  0.00  0.00    +0.000 A 
ATOM      6  C   UNL     1       3.898   2.186  18.022  0.00  0.00    +0.000 A 
ATOM      7  C   UNL     1       2.945   2.038  19.021  0.00  0.00    +0.000 A 
ATOM      8  C   UNL     1       2.324   3.164  19.569  0.00  0.00    +0.000 A 
ATOM      9 CL   UNL     1       1.146   2.833  20.793  0.00  0.00    +0.000 Cl
ATOM     10  C   UNL     1       2.662   4.448  19.102  0.00  0.00    +0.000 A 
ATOM     11  C   UNL     1       2.050   5.686  19.678  0.00  0.00    +0.000 A 
ATOM     12  O   UNL     1       1.318   5.664  20.661  0.00  0.00    +0.000 OA
ATOM     13  O   UNL     1       5.183   3.450  16.572  0.00  0.00    +0.000 OA
ATOM     14  C   UNL     1       5.574   4.696  16.003  0.00  0.00    +0.000 C 
ATOM     15  C   UNL     1       5.319   4.610  14.498  0.00  0.00    +0.000 C 
ATOM     16  C   UNL     1       5.014   5.997  16.591  0.00  0.00    +0.000 C 
ENDROOT
BRANCH   1  18
ATOM     17  N   UNL     1       1.403   9.112  18.421  0.00  0.00    +0.000 N 
ATOM     18  C   UNL     1       1.800   8.303  19.455  0.00  0.00    +0.000 C 
ATOM     19  O   UNL     1       1.687   8.608  20.638  0.00  0.00    +0.000 OA
ATOM     20  H   UNL     1       1.612   8.813  17.468  0.00  0.00    +0.000 HD
BRANCH  17  21
ATOM     21  C   UNL     1       0.815  10.418  18.631  0.00  0.00    +0.000 C 
BRANCH  21  22
ATOM     22  C   UNL     1      -0.706  10.341  18.669  0.00  0.00    +0.000 C 
BRANCH  22  23
ATOM     23  C   UNL     1      -1.342  11.608  18.111  0.00  0.00    +0.000 C 
BRANCH  23  24
ATOM     24  O   UNL     1      -2.611  11.291  17.547  0.00  0.00    +0.000 OA
BRANCH  24  26
ATOM     25  C   UNL     1      -2.775  10.282  15.390  0.00  0.00    +0.000 C 
ATOM     26  C   UNL     1      -2.599  10.037  16.875  0.00  0.00    +0.000 C 
ENDBRANCH  24  26
ENDBRANCH  23  24
ENDBRANCH  22  23
ENDBRANCH  21  22
ENDBRANCH  17  21
ENDBRANCH   1  18
TORSDOF 6
ENDMDL
MODEL 8
REMARK VINA RESULT:      -7.0      3.207      4.522
REMARK  Name = 
REMARK  8 active torsions:
REMARK  status: ('A' for Active; 'I' for Inactive)
REMARK    1  A    between atoms: C_1  and  C_2
REMARK    2  A    between atoms: C_2  and  O_3
REMARK    3  A    between atoms: O_3  and  C_4
REMARK    4  A    between atoms: C_4  and  C_5
REMARK    5  A    between atoms: C_5  and  C_6
REMARK    6  A    between atoms: C_6  and  N_7
REMARK    7  A    between atoms: C_8  and  C_10
REMARK    8  A    between atoms: C_23  and  C_24
REMARK                            x       y       z     vdW  Elec       q    Type
REMARK                         _______ _______ _______ _____ _____    ______ ____
ROOT
ATOM      1  C   UNL     1       1.921   7.595  19.684  0.00  0.00    +0.000 A 
ATOM      2  C   UNL     1       1.532   6.508  20.361  0.00  0.00    +0.000 A 
ATOM      3  N   UNL     1       1.880   5.203  20.076  0.00  0.00    +0.000 N 
ATOM      4  C   UNL     1       2.743   4.929  19.006  0.00  0.00    +0.000 A 
ATOM      5  C   UNL     1       3.140   3.620  18.718  0.00  0.00    +0.000 A 
ATOM      6  C   UNL     1       4.037   3.355  17.682  0.00  0.00    +0.000 A 
ATOM      7  C   UNL     1       4.549   4.392  16.912  0.00  0.00    +0.000 A 
ATOM      8  C   UNL     1       4.161   5.710  17.164  0.00  0.00    +0.000 A 
ATOM      9 CL   UNL     1       4.888   6.901  16.140  0.00  0.00    +0.000 Cl
ATOM     10  C   UNL     1       3.254   5.987  18.204  0.00  0.00    +0.000 A 
ATOM     11  C   UNL     1       2.782   7.378  18.493  0.00  0.00    +0.000 A 
ATOM     12  O   UNL     1       3.059   8.331  17.775  0.00  0.00    +0.000 OA
ATOM     13  O   UNL     1       2.720   2.514  19.387  0.00  0.00    +0.000 OA
ATOM     14  C   UNL     1       1.826   2.683  20.483  0.00  0.00    +0.000 C 
ATOM     15  C   UNL     1       2.490   2.066  21.714  0.00  0.00    +0.000 C 
ATOM     16  C   UNL     1       1.274   4.082  20.789  0.00  0.00    +0.000 C 
ENDROOT
BRANCH   1  18
ATOM     17  N   UNL     1       1.022   9.770  19.146  0.00  0.00    +0.000 N 
ATOM     18  C   UNL     1       1.420   8.920  20.145  0.00  0.00    +0.000 C 
ATOM     19  O   UNL     1       1.361   9.200  21.339  0.00  0.00    +0.000 OA
ATOM     20  H   UNL     1       1.184   9.487  18.179  0.00  0.00    +0.000 HD
BRANCH  17  21
ATOM     21  C   UNL     1       0.498  11.094  19.408  0.00  0.00    +0.000 C 
BRANCH  21  22
ATOM     22  C   UNL     1      -0.695  11.404  18.513  0.00  0.00    +0.000 C 
BRANCH  22  23
ATOM     23  C   UNL     1      -1.639  10.213  18.409  0.00  0.00    +0.000 C 
BRANCH  23  24
ATOM     24  O   UNL     1      -1.695   9.770  17.057  0.00  0.00    +0.000 OA
BRANCH  24  26
ATOM     25  C   UNL     1      -2.857  10.226  15.022  0.00  0.00    +0.000 C 
ATOM     26  C   UNL     1      -2.996   9.916  16.499  0.00  0.00    +0.000 C 
ENDBRANCH  24  26
ENDBRANCH  23  24
ENDBRANCH  22  23
ENDBRANCH  21  22
ENDBRANCH  17  21
ENDBRANCH   1  18
TORSDOF 6
ENDMDL
MODEL 9
REMARK VINA RESULT:      -6.9      2.090      2.395
REMARK  Name = 
REMARK  8 active torsions:
REMARK  status: ('A' for Active; 'I' for Inactive)
REMARK    1  A    between atoms: C_1  and  C_2
REMARK    2  A    between atoms: C_2  and  O_3
REMARK    3  A    between atoms: O_3  and  C_4
REMARK    4  A    between atoms: C_4  and  C_5
REMARK    5  A    between atoms: C_5  and  C_6
REMARK    6  A    between atoms: C_6  and  N_7
REMARK    7  A    between atoms: C_8  and  C_10
REMARK    8  A    between atoms: C_23  and  C_24
REMARK                            x       y       z     vdW  Elec       q    Type
REMARK                         _______ _______ _______ _____ _____    ______ ____
ROOT
ATOM      1  C   UNL     1       2.602   7.657  18.434  0.00  0.00    +0.000 A 
ATOM      2  C   UNL     1       3.479   7.466  17.442  0.00  0.00    +0.000 A 
ATOM      3  N   UNL     1       4.229   6.328  17.226  0.00  0.00    +0.000 N 
ATOM      4  C   UNL     1       4.080   5.222  18.074  0.00  0.00    +0.000 A 
ATOM      5  C   UNL     1       4.801   4.044  17.856  0.00  0.00    +0.000 A 
ATOM      6  C   UNL     1       4.614   2.929  18.674  0.00  0.00    +0.000 A 
ATOM      7  C   UNL     1       3.710   2.972  19.727  0.00  0.00    +0.000 A 
ATOM      8  C   UNL     1       2.985   4.138  19.982  0.00  0.00    +0.000 A 
ATOM      9 CL   UNL     1       1.883   4.046  21.313  0.00  0.00    +0.000 Cl
ATOM     10  C   UNL     1       3.168   5.270  19.165  0.00  0.00    +0.000 A 
ATOM     11  C   UNL     1       2.440   6.554  19.416  0.00  0.00    +0.000 A 
ATOM     12  O   UNL     1       1.741   6.733  20.406  0.00  0.00    +0.000 OA
ATOM     13  O   UNL     1       5.714   3.863  16.866  0.00  0.00    +0.000 OA
ATOM     14  C   UNL     1       5.952   4.935  15.958  0.00  0.00    +0.000 C 
ATOM     15  C   UNL     1       5.667   4.412  14.550  0.00  0.00    +0.000 C 
ATOM     16  C   UNL     1       5.269   6.287  16.201  0.00  0.00    +0.000 C 
ENDROOT
BRANCH   1  18
ATOM     17  N   UNL     1       1.279   9.234  19.696  0.00  0.00    +0.000 N 
ATOM     18  C   UNL     1       1.901   8.970  18.503  0.00  0.00    +0.000 C 
ATOM     19  O   UNL     1       1.909   9.748  17.554  0.00  0.00    +0.000 OA
ATOM     20  H   UNL     1       1.253   8.496  20.400  0.00  0.00    +0.000 HD
BRANCH  17  21
ATOM     21  C   UNL     1       0.560  10.465  19.947  0.00  0.00    +0.000 C 
BRANCH  21  22
ATOM     22  C   UNL     1      -0.869  10.388  19.424  0.00  0.00    +0.000 C 
BRANCH  22  23
ATOM     23  C   UNL     1      -1.262  11.663  18.687  0.00  0.00    +0.000 C 
BRANCH  23  24
ATOM     24  O   UNL     1      -0.095  12.436  18.426  0.00  0.00    +0.000 OA
BRANCH  24  26
ATOM     25  C   UNL     1       0.941  14.479  19.097  0.00  0.00    +0.000 C 
ATOM     26  C   UNL     1      -0.330  13.830  18.586  0.00  0.00    +0.000 C 
ENDBRANCH  24  26
ENDBRANCH  23  24
ENDBRANCH  22  23
ENDBRANCH  21  22
ENDBRANCH  17  21
ENDBRANCH   1  18
TORSDOF 6
ENDMDL
