MODEL 1
REMARK VINA RESULT:      -7.6      0.000      0.000
REMARK  Name = 
REMARK  6 active torsions:
REMARK  status: ('A' for Active; 'I' for Inactive)
REMARK    1  A    between atoms: C_1  and  C_2
REMARK    2  A    between atoms: C_6  and  C_7
REMARK    3  A    between atoms: N_10  and  C_11
REMARK    4  A    between atoms: N_19  and  C_20
REMARK    5  A    between atoms: C_20  and  C_21
REMARK    6  A    between atoms: C_21  and  C_23
REMARK                            x       y       z     vdW  Elec       q    Type
REMARK                         _______ _______ _______ _____ _____    ______ ____
ROOT
ATOM      1  C   UNL     1      -2.734  10.019  15.684  0.00  0.00    +0.000 C 
ATOM      2  C   UNL     1      -2.457  10.596  17.035  0.00  0.00    +0.000 A 
ATOM      3  S   UNL     1      -0.941  10.292  17.750  0.00  0.00    +0.000 S 
ATOM      4  C   UNL     1      -1.385  11.092  19.164  0.00  0.00    +0.000 A 
ATOM      5  C   UNL     1      -2.631  11.660  19.120  0.00  0.00    +0.000 A 
ATOM      6  C   UNL     1      -3.275  11.381  17.846  0.00  0.00    +0.000 A 
ATOM      7  C   UNL     1      -4.639  11.835  17.427  0.00  0.00    +0.000 C 
ATOM      8  C   UNL     1      -3.096  12.418  20.291  0.00  0.00    +0.000 A 
ATOM      9  O   UNL     1      -4.205  12.938  20.318  0.00  0.00    +0.000 OA
ATOM     10  N   UNL     1      -2.148  12.501  21.324  0.00  0.00    +0.000 N 
ATOM     11  C   UNL     1      -0.996  11.702  21.419  0.00  0.00    +0.000 A 
ATOM     12  O   UNL     1      -0.392  11.524  22.483  0.00  0.00    +0.000 OA
ATOM     13  N   UNL     1      -0.535  11.108  20.250  0.00  0.00    +0.000 N 
ENDROOT
BRANCH  10  14
ATOM     14  C   UNL     1      -2.438  13.282  22.486  0.00  0.00    +0.000 A 
ATOM     15  C   UNL     1      -2.046  14.621  22.564  0.00  0.00    +0.000 A 
ATOM     16  C   UNL     1      -2.513  15.424  23.609  0.00  0.00    +0.000 A 
ATOM     17  C   UNL     1      -3.333  14.885  24.602  0.00  0.00    +0.000 A 
ATOM     18  C   UNL     1      -3.703  13.545  24.551  0.00  0.00    +0.000 A 
ATOM     19  C   UNL     1      -3.266  12.746  23.488  0.00  0.00    +0.000 A 
ENDBRANCH  10  14
BRANCH  13  20
ATOM     20  C   UNL     1       0.782  10.487  20.303  0.00  0.00    +0.000 C 
BRANCH  20  21
ATOM     21  C   UNL     1       0.792   8.992  20.627  0.00  0.00    +0.000 C 
ATOM     22  O   UNL     1       0.059   8.464  21.457  0.00  0.00    +0.000 OA
BRANCH  21  23
ATOM     23  C   UNL     1       1.714   8.145  19.802  0.00  0.00    +0.000 A 
ATOM     24  C   UNL     1       2.202   8.587  18.560  0.00  0.00    +0.000 A 
ATOM     25  C   UNL     1       2.964   7.738  17.756  0.00  0.00    +0.000 A 
ATOM     26  C   UNL     1       3.248   6.449  18.191  0.00  0.00    +0.000 A 
ATOM     27 CL   UNL     1       4.123   5.383  17.162  0.00  0.00    +0.000 Cl
ATOM     28  C   UNL     1       2.811   6.011  19.441  0.00  0.00    +0.000 A 
ATOM     29  C   UNL     1       2.049   6.861  20.250  0.00  0.00    +0.000 A 
ENDBRANCH  21  23
ENDBRANCH  20  21
ENDBRANCH  13  20
TORSDOF 4
ENDMDL
MODEL 2
REMARK VINA RESULT:      -7.3      0.373      1.320
REMARK  Name = 
REMARK  6 active torsions:
REMARK  status: ('A' for Active; 'I' for Inactive)
REMARK    1  A    between atoms: C_1  and  C_2
REMARK    2  A    between atoms: C_6  and  C_7
REMARK    3  A    between atoms: N_10  and  C_11
REMARK    4  A    between atoms: N_19  and  C_20
REMARK    5  A    between atoms: C_20  and  C_21
REMARK    6  A    between atoms: C_21  and  C_23
REMARK                            x       y       z     vdW  Elec       q    Type
REMARK                         _______ _______ _______ _____ _____    ______ ____
ROOT
ATOM      1  C   UNL     1      -2.995  10.008  15.873  0.00  0.00    +0.000 C 
ATOM      2  C   UNL     1      -2.684  10.657  17.183  0.00  0.00    +0.000 A 
ATOM      3  S   UNL     1      -1.145  10.403  17.867  0.00  0.00    +0.000 S 
ATOM      4  C   UNL     1      -1.555  11.272  19.250  0.00  0.00    +0.000 A 
ATOM      5  C   UNL     1      -2.806  11.828  19.214  0.00  0.00    +0.000 A 
ATOM      6  C   UNL     1      -3.485  11.477  17.976  0.00  0.00    +0.000 A 
ATOM      7  C   UNL     1      -4.865  11.898  17.574  0.00  0.00    +0.000 C 
ATOM      8  C   UNL     1      -3.243  12.642  20.357  0.00  0.00    +0.000 A 
ATOM      9  O   UNL     1      -4.356  13.155  20.390  0.00  0.00    +0.000 OA
ATOM     10  N   UNL     1      -2.266  12.788  21.356  0.00  0.00    +0.000 N 
ATOM     11  C   UNL     1      -1.105  12.004  21.457  0.00  0.00    +0.000 A 
ATOM     12  O   UNL     1      -0.469  11.886  22.512  0.00  0.00    +0.000 OA
ATOM     13  N   UNL     1      -0.673  11.352  20.308  0.00  0.00    +0.000 N 
ENDROOT
BRANCH  10  14
ATOM     14  C   UNL     1      -2.529  13.626  22.483  0.00  0.00    +0.000 A 
ATOM     15  C   UNL     1      -3.339  13.182  23.532  0.00  0.00    +0.000 A 
ATOM     16  C   UNL     1      -3.419  13.924  24.713  0.00  0.00    +0.000 A 
ATOM     17  C   UNL     1      -2.730  15.132  24.838  0.00  0.00    +0.000 A 
ATOM     18  C   UNL     1      -1.946  15.599  23.787  0.00  0.00    +0.000 A 
ATOM     19  C   UNL     1      -1.836  14.842  22.615  0.00  0.00    +0.000 A 
ENDBRANCH  10  14
BRANCH  13  20
ATOM     20  C   UNL     1       0.650  10.745  20.355  0.00  0.00    +0.000 C 
BRANCH  20  21
ATOM     21  C   UNL     1       0.682   9.264  20.739  0.00  0.00    +0.000 C 
ATOM     22  O   UNL     1       0.048   8.783  21.671  0.00  0.00    +0.000 OA
BRANCH  21  23
ATOM     23  C   UNL     1       1.488   8.369  19.846  0.00  0.00    +0.000 A 
ATOM     24  C   UNL     1       1.907   7.095  20.267  0.00  0.00    +0.000 A 
ATOM     25  C   UNL     1       2.754   6.328  19.466  0.00  0.00    +0.000 A 
ATOM     26  C   UNL     1       3.178   6.824  18.239  0.00  0.00    +0.000 A 
ATOM     27 CL   UNL     1       4.280   5.904  17.291  0.00  0.00    +0.000 Cl
ATOM     28  C   UNL     1       2.733   8.065  17.785  0.00  0.00    +0.000 A 
ATOM     29  C   UNL     1       1.883   8.836  18.585  0.00  0.00    +0.000 A 
ENDBRANCH  21  23
ENDBRANCH  20  21
ENDBRANCH  13  20
TORSDOF 4
ENDMDL
MODEL 3
REMARK VINA RESULT:      -7.1      3.010      5.794
REMARK  Name = 
REMARK  6 active torsions:
REMARK  status: ('A' for Active; 'I' for Inactive)
REMARK    1  A    between atoms: C_1  and  C_2
REMARK    2  A    between atoms: C_6  and  C_7
REMARK    3  A    between atoms: N_10  and  C_11
REMARK    4  A    between atoms: N_19  and  C_20
REMARK    5  A    between atoms: C_20  and  C_21
REMARK    6  A    between atoms: C_21  and  C_23
REMARK                            x       y       z     vdW  Elec       q    Type
REMARK                         _______ _______ _______ _____ _____    ______ ____
ROOT
ATOM      1  C   UNL     1      -6.650  14.080  23.678  0.00  0.00    +0.000 C 
ATOM      2  C   UNL     1      -5.774  13.569  22.580  0.00  0.00    +0.000 A 
ATOM      3  S   UNL     1      -4.098  13.849  22.686  0.00  0.00    +0.000 S 
ATOM      4  C   UNL     1      -3.828  13.149  21.179  0.00  0.00    +0.000 A 
ATOM      5  C   UNL     1      -4.953  12.631  20.592  0.00  0.00    +0.000 A 
ATOM      6  C   UNL     1      -6.120  12.865  21.428  0.00  0.00    +0.000 A 
ATOM      7  C   UNL     1      -7.524  12.446  21.123  0.00  0.00    +0.000 C 
ATOM      8  C   UNL     1      -4.816  11.960  19.291  0.00  0.00    +0.000 A 
ATOM      9  O   UNL     1      -5.786  11.489  18.708  0.00  0.00    +0.000 OA
ATOM     10  N   UNL     1      -3.493  11.895  18.822  0.00  0.00    +0.000 N 
ATOM     11  C   UNL     1      -2.426  12.650  19.336  0.00  0.00    +0.000 A 
ATOM     12  O   UNL     1      -1.389  12.862  18.697  0.00  0.00    +0.000 OA
ATOM     13  N   UNL     1      -2.566  13.159  20.623  0.00  0.00    +0.000 N 
ENDROOT
BRANCH  10  14
ATOM     14  C   UNL     1      -3.207  11.194  17.610  0.00  0.00    +0.000 A 
ATOM     15  C   UNL     1      -2.489   9.995  17.630  0.00  0.00    +0.000 A 
ATOM     16  C   UNL     1      -2.397   9.219  16.471  0.00  0.00    +0.000 A 
ATOM     17  C   UNL     1      -2.979   9.655  15.279  0.00  0.00    +0.000 A 
ATOM     18  C   UNL     1      -3.669  10.863  15.242  0.00  0.00    +0.000 A 
ATOM     19  C   UNL     1      -3.794  11.626  16.408  0.00  0.00    +0.000 A 
ENDBRANCH  10  14
BRANCH  13  20
ATOM     20  C   UNL     1      -1.374  13.726  21.239  0.00  0.00    +0.000 C 
BRANCH  20  21
ATOM     21  C   UNL     1      -0.819  12.951  22.435  0.00  0.00    +0.000 C 
ATOM     22  O   UNL     1      -0.843  13.361  23.590  0.00  0.00    +0.000 OA
BRANCH  21  23
ATOM     23  C   UNL     1      -0.293  11.578  22.143  0.00  0.00    +0.000 A 
ATOM     24  C   UNL     1       0.556  11.334  21.050  0.00  0.00    +0.000 A 
ATOM     25  C   UNL     1       0.939  10.030  20.729  0.00  0.00    +0.000 A 
ATOM     26  C   UNL     1       0.483   8.968  21.500  0.00  0.00    +0.000 A 
ATOM     27 CL   UNL     1       0.898   7.360  21.053  0.00  0.00    +0.000 Cl
ATOM     28  C   UNL     1      -0.321   9.198  22.616  0.00  0.00    +0.000 A 
ATOM     29  C   UNL     1      -0.705  10.503  22.942  0.00  0.00    +0.000 A 
ENDBRANCH  21  23
ENDBRANCH  20  21
ENDBRANCH  13  20
TORSDOF 4
ENDMDL
MODEL 4
REMARK VINA RESULT:      -6.8      4.761     10.315
REMARK  Name = 
REMARK  6 active torsions:
REMARK  status: ('A' for Active; 'I' for Inactive)
REMARK    1  A    between atoms: C_1  and  C_2
REMARK    2  A    between atoms: C_6  and  C_7
REMARK    3  A    between atoms: N_10  and  C_11
REMARK    4  A    between atoms: N_19  and  C_20
REMARK    5  A    between atoms: C_20  and  C_21
REMARK    6  A    between atoms: C_21  and  C_23
REMARK                            x       y       z     vdW  Elec       q    Type
REMARK                         _______ _______ _______ _____ _____    ______ ____
ROOT
ATOM      1  C   UNL     1       1.153   2.750  21.720  0.00  0.00    +0.000 C 
ATOM      2  C   UNL     1       1.988   3.379  20.651  0.00  0.00    +0.000 A 
ATOM      3  S   UNL     1       2.212   5.067  20.689  0.00  0.00    +0.000 S 
ATOM      4  C   UNL     1       3.079   5.041  19.245  0.00  0.00    +0.000 A 
ATOM      5  C   UNL     1       3.284   3.785  18.737  0.00  0.00    +0.000 A 
ATOM      6  C   UNL     1       2.647   2.783  19.577  0.00  0.00    +0.000 A 
ATOM      7  C   UNL     1       2.653   1.304  19.348  0.00  0.00    +0.000 C 
ATOM      8  C   UNL     1       4.066   3.651  17.500  0.00  0.00    +0.000 A 
ATOM      9  O   UNL     1       4.273   2.557  16.988  0.00  0.00    +0.000 OA
ATOM     10  N   UNL     1       4.559   4.870  17.005  0.00  0.00    +0.000 N 
ATOM     11  C   UNL     1       4.118   6.137  17.421  0.00  0.00    +0.000 A 
ATOM     12  O   UNL     1       4.276   7.157  16.738  0.00  0.00    +0.000 OA
ATOM     13  N   UNL     1       3.490   6.220  18.659  0.00  0.00    +0.000 N 
ENDROOT
BRANCH  10  14
ATOM     14  C   UNL     1       5.409   4.874  15.856  0.00  0.00    +0.000 A 
ATOM     15  C   UNL     1       6.769   5.173  15.972  0.00  0.00    +0.000 A 
ATOM     16  C   UNL     1       7.622   4.973  14.884  0.00  0.00    +0.000 A 
ATOM     17  C   UNL     1       7.117   4.517  13.664  0.00  0.00    +0.000 A 
ATOM     18  C   UNL     1       5.759   4.247  13.528  0.00  0.00    +0.000 A 
ATOM     19  C   UNL     1       4.907   4.414  14.626  0.00  0.00    +0.000 A 
ENDBRANCH  10  14
BRANCH  13  20
ATOM     20  C   UNL     1       3.255   7.556  19.189  0.00  0.00    +0.000 C 
BRANCH  20  21
ATOM     21  C   UNL     1       1.906   8.181  18.826  0.00  0.00    +0.000 C 
ATOM     22  O   UNL     1       1.367   8.062  17.732  0.00  0.00    +0.000 OA
BRANCH  21  23
ATOM     23  C   UNL     1       1.200   8.909  19.929  0.00  0.00    +0.000 A 
ATOM     24  C   UNL     1       1.309   8.497  21.269  0.00  0.00    +0.000 A 
ATOM     25  C   UNL     1       0.551   9.116  22.264  0.00  0.00    +0.000 A 
ATOM     26  C   UNL     1      -0.311  10.154  21.929  0.00  0.00    +0.000 A 
ATOM     27 CL   UNL     1      -1.297  10.861  23.148  0.00  0.00    +0.000 Cl
ATOM     28  C   UNL     1      -0.396  10.605  20.612  0.00  0.00    +0.000 A 
ATOM     29  C   UNL     1       0.364   9.987  19.613  0.00  0.00    +0.000 A 
ENDBRANCH  21  23
ENDBRANCH  20  21
ENDBRANCH  13  20
TORSDOF 4
ENDMDL
MODEL 5
REMARK VINA RESULT:      -6.6      3.085      4.132
REMARK  Name = 
REMARK  6 active torsions:
REMARK  status: ('A' for Active; 'I' for Inactive)
REMARK    1  A    between atoms: C_1  and  C_2
REMARK    2  A    between atoms: C_6  and  C_7
REMARK    3  A    between atoms: N_10  and  C_11
REMARK    4  A    between atoms: N_19  and  C_20
REMARK    5  A    between atoms: C_20  and  C_21
REMARK    6  A    between atoms: C_21  and  C_23
REMARK                            x       y       z     vdW  Elec       q    Type
REMARK                         _______ _______ _______ _____ _____    ______ ____
ROOT
ATOM      1  C   UNL     1      -3.535  10.242  15.296  0.00  0.00    +0.000 C 
ATOM      2  C   UNL     1      -3.171  10.758  16.651  0.00  0.00    +0.000 A 
ATOM      3  S   UNL     1      -1.616  10.417  17.256  0.00  0.00    +0.000 S 
ATOM      4  C   UNL     1      -1.965  11.156  18.729  0.00  0.00    +0.000 A 
ATOM      5  C   UNL     1      -3.207  11.732  18.787  0.00  0.00    +0.000 A 
ATOM      6  C   UNL     1      -3.931  11.511  17.544  0.00  0.00    +0.000 A 
ATOM      7  C   UNL     1      -5.315  11.990  17.231  0.00  0.00    +0.000 C 
ATOM      8  C   UNL     1      -3.593  12.440  20.016  0.00  0.00    +0.000 A 
ATOM      9  O   UNL     1      -4.694  12.964  20.135  0.00  0.00    +0.000 OA
ATOM     10  N   UNL     1      -2.582  12.474  20.991  0.00  0.00    +0.000 N 
ATOM     11  C   UNL     1      -1.433  11.666  20.979  0.00  0.00    +0.000 A 
ATOM     12  O   UNL     1      -0.766  11.439  21.996  0.00  0.00    +0.000 OA
ATOM     13  N   UNL     1      -1.049  11.120  19.759  0.00  0.00    +0.000 N 
ENDROOT
BRANCH  10  14
ATOM     14  C   UNL     1      -2.793  13.204  22.202  0.00  0.00    +0.000 A 
ATOM     15  C   UNL     1      -2.403  14.542  22.307  0.00  0.00    +0.000 A 
ATOM     16  C   UNL     1      -2.799  15.298  23.413  0.00  0.00    +0.000 A 
ATOM     17  C   UNL     1      -3.546  14.714  24.439  0.00  0.00    +0.000 A 
ATOM     18  C   UNL     1      -3.912  13.374  24.358  0.00  0.00    +0.000 A 
ATOM     19  C   UNL     1      -3.547  12.623  23.236  0.00  0.00    +0.000 A 
ENDBRANCH  10  14
BRANCH  13  20
ATOM     20  C   UNL     1       0.264  10.492  19.704  0.00  0.00    +0.000 C 
BRANCH  20  21
ATOM     21  C   UNL     1       1.352  11.303  18.997  0.00  0.00    +0.000 C 
ATOM     22  O   UNL     1       2.073  10.858  18.111  0.00  0.00    +0.000 OA
BRANCH  21  23
ATOM     23  C   UNL     1       1.457  12.746  19.389  0.00  0.00    +0.000 A 
ATOM     24  C   UNL     1       0.987  13.770  18.549  0.00  0.00    +0.000 A 
ATOM     25  C   UNL     1       1.200  15.110  18.879  0.00  0.00    +0.000 A 
ATOM     26  C   UNL     1       1.873  15.432  20.052  0.00  0.00    +0.000 A 
ATOM     27 CL   UNL     1       2.197  17.082  20.414  0.00  0.00    +0.000 Cl
ATOM     28  C   UNL     1       2.303  14.428  20.919  0.00  0.00    +0.000 A 
ATOM     29  C   UNL     1       2.091  13.085  20.591  0.00  0.00    +0.000 A 
ENDBRANCH  21  23
ENDBRANCH  20  21
ENDBRANCH  13  20
TORSDOF 4
ENDMDL
MODEL 6
REMARK VINA RESULT:      -6.6      3.105      4.322
REMARK  Name = 
REMARK  6 active torsions:
REMARK  status: ('A' for Active; 'I' for Inactive)
REMARK    1  A    between atoms: C_1  and  C_2
REMARK    2  A    between atoms: C_6  and  C_7
REMARK    3  A    between atoms: N_10  and  C_11
REMARK    4  A    between atoms: N_19  and  C_20
REMARK    5  A    between atoms: C_20  and  C_21
REMARK    6  A    between atoms: C_21  and  C_23
REMARK                            x       y       z     vdW  Elec       q    Type
REMARK                         _______ _______ _______ _____ _____    ______ ____
ROOT
ATOM      1  C   UNL     1      -3.331  10.054  15.245  0.00  0.00    +0.000 C 
ATOM      2  C   UNL     1      -3.020  10.618  16.593  0.00  0.00    +0.000 A 
ATOM      3  S   UNL     1      -1.484  10.316  17.263  0.00  0.00    +0.000 S 
ATOM      4  C   UNL     1      -1.893  11.098  18.697  0.00  0.00    +0.000 A 
ATOM      5  C   UNL     1      -3.142  11.661  18.693  0.00  0.00    +0.000 A 
ATOM      6  C   UNL     1      -3.820  11.391  17.434  0.00  0.00    +0.000 A 
ATOM      7  C   UNL     1      -5.197  11.841  17.058  0.00  0.00    +0.000 C 
ATOM      8  C   UNL     1      -3.578  12.404  19.884  0.00  0.00    +0.000 A 
ATOM      9  O   UNL     1      -4.689  12.918  19.947  0.00  0.00    +0.000 OA
ATOM     10  N   UNL     1      -2.603  12.482  20.892  0.00  0.00    +0.000 N 
ATOM     11  C   UNL     1      -1.445  11.689  20.947  0.00  0.00    +0.000 A 
ATOM     12  O   UNL     1      -0.811  11.503  21.993  0.00  0.00    +0.000 OA
ATOM     13  N   UNL     1      -1.013  11.108  19.760  0.00  0.00    +0.000 N 
ENDROOT
BRANCH  10  14
ATOM     14  C   UNL     1      -2.865  13.249  22.070  0.00  0.00    +0.000 A 
ATOM     15  C   UNL     1      -3.630  12.721  23.112  0.00  0.00    +0.000 A 
ATOM     16  C   UNL     1      -3.705  13.396  24.334  0.00  0.00    +0.000 A 
ATOM     17  C   UNL     1      -3.055  14.620  24.506  0.00  0.00    +0.000 A 
ATOM     18  C   UNL     1      -2.317  15.170  23.463  0.00  0.00    +0.000 A 
ATOM     19  C   UNL     1      -2.211  14.481  22.250  0.00  0.00    +0.000 A 
ENDBRANCH  10  14
BRANCH  13  20
ATOM     20  C   UNL     1       0.308  10.494  19.770  0.00  0.00    +0.000 C 
BRANCH  20  21
ATOM     21  C   UNL     1       1.406  11.282  19.051  0.00  0.00    +0.000 C 
ATOM     22  O   UNL     1       2.119  10.816  18.170  0.00  0.00    +0.000 OA
BRANCH  21  23
ATOM     23  C   UNL     1       1.529  12.728  19.423  0.00  0.00    +0.000 A 
ATOM     24  C   UNL     1       2.060  13.125  20.663  0.00  0.00    +0.000 A 
ATOM     25  C   UNL     1       2.057  14.470  21.036  0.00  0.00    +0.000 A 
ATOM     26  C   UNL     1       1.536  15.424  20.171  0.00  0.00    +0.000 A 
ATOM     27 CL   UNL     1       1.468  17.069  20.669  0.00  0.00    +0.000 Cl
ATOM     28  C   UNL     1       1.050  15.053  18.918  0.00  0.00    +0.000 A 
ATOM     29  C   UNL     1       1.051  13.706  18.541  0.00  0.00    +0.000 A 
ENDBRANCH  21  23
ENDBRANCH  20  21
ENDBRANCH  13  20
TORSDOF 4
ENDMDL
MODEL 7
REMARK VINA RESULT:      -6.6      1.219      1.411
REMARK  Name = 
REMARK  6 active torsions:
REMARK  status: ('A' for Active; 'I' for Inactive)
REMARK    1  A    between atoms: C_1  and  C_2
REMARK    2  A    between atoms: C_6  and  C_7
REMARK    3  A    between atoms: N_10  and  C_11
REMARK    4  A    between atoms: N_19  and  C_20
REMARK    5  A    between atoms: C_20  and  C_21
REMARK    6  A    between atoms: C_21  and  C_23
REMARK                            x       y       z     vdW  Elec       q    Type
REMARK                         _______ _______ _______ _____ _____    ______ ____
ROOT
ATOM      1  C   UNL     1      -4.325  10.258  16.913  0.00  0.00    +0.000 C 
ATOM      2  C   UNL     1      -3.471  10.958  17.920  0.00  0.00    +0.000 A 
ATOM      3  S   UNL     1      -1.821  10.546  18.009  0.00  0.00    +0.000 S 
ATOM      4  C   UNL     1      -1.578  11.570  19.323  0.00  0.00    +0.000 A 
ATOM      5  C   UNL     1      -2.685  12.292  19.684  0.00  0.00    +0.000 A 
ATOM      6  C   UNL     1      -3.819  11.943  18.843  0.00  0.00    +0.000 A 
ATOM      7  C   UNL     1      -5.198  12.520  18.934  0.00  0.00    +0.000 C 
ATOM      8  C   UNL     1      -2.565  13.247  20.795  0.00  0.00    +0.000 A 
ATOM      9  O   UNL     1      -3.522  13.912  21.175  0.00  0.00    +0.000 OA
ATOM     10  N   UNL     1      -1.269  13.333  21.332  0.00  0.00    +0.000 N 
ATOM     11  C   UNL     1      -0.243  12.404  21.093  0.00  0.00    +0.000 A 
ATOM     12  O   UNL     1       0.735  12.282  21.841  0.00  0.00    +0.000 OA
ATOM     13  N   UNL     1      -0.354  11.609  19.958  0.00  0.00    +0.000 N 
ENDROOT
BRANCH  10  14
ATOM     14  C   UNL     1      -0.993  14.286  22.361  0.00  0.00    +0.000 A 
ATOM     15  C   UNL     1      -0.452  15.536  22.050  0.00  0.00    +0.000 A 
ATOM     16  C   UNL     1      -0.381  16.528  23.033  0.00  0.00    +0.000 A 
ATOM     17  C   UNL     1      -0.806  16.264  24.336  0.00  0.00    +0.000 A 
ATOM     18  C   UNL     1      -1.316  15.011  24.663  0.00  0.00    +0.000 A 
ATOM     19  C   UNL     1      -1.421  14.027  23.675  0.00  0.00    +0.000 A 
ENDBRANCH  10  14
BRANCH  13  20
ATOM     20  C   UNL     1       0.818  10.828  19.585  0.00  0.00    +0.000 C 
BRANCH  20  21
ATOM     21  C   UNL     1       0.855   9.398  20.128  0.00  0.00    +0.000 C 
ATOM     22  O   UNL     1       0.147   8.992  21.042  0.00  0.00    +0.000 OA
BRANCH  21  23
ATOM     23  C   UNL     1       1.773   8.448  19.419  0.00  0.00    +0.000 A 
ATOM     24  C   UNL     1       2.281   8.735  18.140  0.00  0.00    +0.000 A 
ATOM     25  C   UNL     1       3.038   7.787  17.450  0.00  0.00    +0.000 A 
ATOM     26  C   UNL     1       3.298   6.553  18.036  0.00  0.00    +0.000 A 
ATOM     27 CL   UNL     1       4.167   5.363  17.149  0.00  0.00    +0.000 Cl
ATOM     28  C   UNL     1       2.841   6.271  19.322  0.00  0.00    +0.000 A 
ATOM     29  C   UNL     1       2.083   7.220  20.018  0.00  0.00    +0.000 A 
ENDBRANCH  21  23
ENDBRANCH  20  21
ENDBRANCH  13  20
TORSDOF 4
ENDMDL
MODEL 8
REMARK VINA RESULT:      -6.6      3.296      4.978
REMARK  Name = 
REMARK  6 active torsions:
REMARK  status: ('A' for Active; 'I' for Inactive)
REMARK    1  A    between atoms: C_1  and  C_2
REMARK    2  A    between atoms: C_6  and  C_7
REMARK    3  A    between atoms: N_10  and  C_11
REMARK    4  A    between atoms: N_19  and  C_20
REMARK    5  A    between atoms: C_20  and  C_21
REMARK    6  A    between atoms: C_21  and  C_23
REMARK                            x       y       z     vdW  Elec       q    Type
REMARK                         _______ _______ _______ _____ _____    ______ ____
ROOT
ATOM      1  C   UNL     1      -4.217  12.827  24.545  0.00  0.00    +0.000 C 
ATOM      2  C   UNL     1      -3.039  13.123  23.674  0.00  0.00    +0.000 A 
ATOM      3  S   UNL     1      -2.153  11.814  23.038  0.00  0.00    +0.000 S 
ATOM      4  C   UNL     1      -1.027  12.847  22.330  0.00  0.00    +0.000 A 
ATOM      5  C   UNL     1      -1.312  14.178  22.485  0.00  0.00    +0.000 A 
ATOM      6  C   UNL     1      -2.520  14.354  23.275  0.00  0.00    +0.000 A 
ATOM      7  C   UNL     1      -3.146  15.660  23.654  0.00  0.00    +0.000 C 
ATOM      8  C   UNL     1      -0.411  15.162  21.867  0.00  0.00    +0.000 A 
ATOM      9  O   UNL     1      -0.604  16.367  21.980  0.00  0.00    +0.000 OA
ATOM     10  N   UNL     1       0.639  14.586  21.132  0.00  0.00    +0.000 N 
ATOM     11  C   UNL     1       1.023  13.237  21.210  0.00  0.00    +0.000 A 
ATOM     12  O   UNL     1       2.142  12.840  20.864  0.00  0.00    +0.000 OA
ATOM     13  N   UNL     1       0.083  12.333  21.692  0.00  0.00    +0.000 N 
ENDROOT
BRANCH  10  14
ATOM     14  C   UNL     1       1.539  15.428  20.408  0.00  0.00    +0.000 A 
ATOM     15  C   UNL     1       2.658  15.984  21.033  0.00  0.00    +0.000 A 
ATOM     16  C   UNL     1       3.633  16.631  20.270  0.00  0.00    +0.000 A 
ATOM     17  C   UNL     1       3.476  16.766  18.889  0.00  0.00    +0.000 A 
ATOM     18  C   UNL     1       2.349  16.245  18.261  0.00  0.00    +0.000 A 
ATOM     19  C   UNL     1       1.387  15.566  19.017  0.00  0.00    +0.000 A 
ENDBRANCH  10  14
BRANCH  13  20
ATOM     20  C   UNL     1       0.395  10.918  21.544  0.00  0.00    +0.000 C 
BRANCH  20  21
ATOM     21  C   UNL     1      -0.002  10.293  20.205  0.00  0.00    +0.000 C 
ATOM     22  O   UNL     1      -1.032  10.566  19.600  0.00  0.00    +0.000 OA
BRANCH  21  23
ATOM     23  C   UNL     1       0.994   9.353  19.596  0.00  0.00    +0.000 A 
ATOM     24  C   UNL     1       1.432   9.507  18.269  0.00  0.00    +0.000 A 
ATOM     25  C   UNL     1       2.269   8.555  17.685  0.00  0.00    +0.000 A 
ATOM     26  C   UNL     1       2.679   7.452  18.424  0.00  0.00    +0.000 A 
ATOM     27 CL   UNL     1       3.649   6.246  17.675  0.00  0.00    +0.000 Cl
ATOM     28  C   UNL     1       2.292   7.310  19.756  0.00  0.00    +0.000 A 
ATOM     29  C   UNL     1       1.454   8.263  20.345  0.00  0.00    +0.000 A 
ENDBRANCH  21  23
ENDBRANCH  20  21
ENDBRANCH  13  20
TORSDOF 4
ENDMDL
MODEL 9
REMARK VINA RESULT:      -6.5      3.927      4.677
REMARK  Name = 
REMARK  6 active torsions:
REMARK  status: ('A' for Active; 'I' for Inactive)
REMARK    1  A    between atoms: C_1  and  C_2
REMARK    2  A    between atoms: C_6  and  C_7
REMARK    3  A    between atoms: N_10  and  C_11
REMARK    4  A    between atoms: N_19  and  C_20
REMARK    5  A    between atoms: C_20  and  C_21
REMARK    6  A    between atoms: C_21  and  C_23
REMARK                            x       y       z     vdW  Elec       q    Type
REMARK                         _______ _______ _______ _____ _____    ______ ____
ROOT
ATOM      1  C   UNL     1      -2.353  10.694  16.349  0.00  0.00    +0.000 C 
ATOM      2  C   UNL     1      -2.762  11.286  17.659  0.00  0.00    +0.000 A 
ATOM      3  S   UNL     1      -1.563  11.541  18.842  0.00  0.00    +0.000 S 
ATOM      4  C   UNL     1      -2.701  12.071  19.963  0.00  0.00    +0.000 A 
ATOM      5  C   UNL     1      -3.980  12.140  19.476  0.00  0.00    +0.000 A 
ATOM      6  C   UNL     1      -4.025  11.685  18.095  0.00  0.00    +0.000 A 
ATOM      7  C   UNL     1      -5.242  11.616  17.226  0.00  0.00    +0.000 C 
ATOM      8  C   UNL     1      -5.042  12.632  20.365  0.00  0.00    +0.000 A 
ATOM      9  O   UNL     1      -6.207  12.704  19.993  0.00  0.00    +0.000 OA
ATOM     10  N   UNL     1      -4.582  13.025  21.633  0.00  0.00    +0.000 N 
ATOM     11  C   UNL     1      -3.320  12.706  22.159  0.00  0.00    +0.000 A 
ATOM     12  O   UNL     1      -3.077  12.728  23.372  0.00  0.00    +0.000 OA
ATOM     13  N   UNL     1      -2.320  12.364  21.256  0.00  0.00    +0.000 N 
ENDROOT
BRANCH  10  14
ATOM     14  C   UNL     1      -5.497  13.604  22.567  0.00  0.00    +0.000 A 
ATOM     15  C   UNL     1      -5.659  14.989  22.645  0.00  0.00    +0.000 A 
ATOM     16  C   UNL     1      -6.697  15.527  23.410  0.00  0.00    +0.000 A 
ATOM     17  C   UNL     1      -7.549  14.691  24.134  0.00  0.00    +0.000 A 
ATOM     18  C   UNL     1      -7.376  13.311  24.088  0.00  0.00    +0.000 A 
ATOM     19  C   UNL     1      -6.359  12.766  23.297  0.00  0.00    +0.000 A 
ENDBRANCH  10  14
BRANCH  13  20
ATOM     20  C   UNL     1      -0.963  12.273  21.780  0.00  0.00    +0.000 C 
BRANCH  20  21
ATOM     21  C   UNL     1      -0.211  13.601  21.893  0.00  0.00    +0.000 C 
ATOM     22  O   UNL     1      -0.219  14.311  22.893  0.00  0.00    +0.000 OA
BRANCH  21  23
ATOM     23  C   UNL     1       0.636  13.980  20.716  0.00  0.00    +0.000 A 
ATOM     24  C   UNL     1       1.671  13.147  20.258  0.00  0.00    +0.000 A 
ATOM     25  C   UNL     1       2.522  13.573  19.236  0.00  0.00    +0.000 A 
ATOM     26  C   UNL     1       2.337  14.825  18.662  0.00  0.00    +0.000 A 
ATOM     27 CL   UNL     1       3.435  15.372  17.456  0.00  0.00    +0.000 Cl
ATOM     28  C   UNL     1       1.286  15.643  19.073  0.00  0.00    +0.000 A 
ATOM     29  C   UNL     1       0.431  15.220  20.096  0.00  0.00    +0.000 A 
ENDBRANCH  21  23
ENDBRANCH  20  21
ENDBRANCH  13  20
TORSDOF 4
ENDMDL
