MODEL 1
REMARK VINA RESULT:      -7.0      0.000      0.000
REMARK  Name = 
REMARK  5 active torsions:
REMARK  status: ('A' for Active; 'I' for Inactive)
REMARK    1  A    between atoms: C_1  and  C_2
REMARK    2  A    between atoms: C_2  and  C_3
REMARK    3  A    between atoms: C_2  and  C_4
REMARK    4  A    between atoms: N_8  and  C_9
REMARK    5  A    between atoms: C_14  and  C_16
REMARK                            x       y       z     vdW  Elec       q    Type
REMARK                         _______ _______ _______ _____ _____    ______ ____
ROOT
ATOM      1  C   UNL     1      -3.553  12.023  18.227  0.00  0.00    +0.000 C 
ATOM      2  C   UNL     1      -4.063  10.740  17.550  0.00  0.00    +0.000 C 
ATOM      3  C   UNL     1      -3.228   9.490  17.830  0.00  0.00    +0.000 C 
ATOM      4  C   UNL     1      -1.719   9.715  17.731  0.00  0.00    +0.000 C 
ATOM      5  N   UNL     1      -1.271  10.923  18.420  0.00  0.00    +0.000 N 
ATOM      6  C   UNL     1      -0.038  11.102  19.037  0.00  0.00    +0.000 C 
ATOM      7  O   UNL     1       0.296  12.172  19.533  0.00  0.00    +0.000 OA
ATOM      8  C   UNL     1      -2.028  12.154  18.133  0.00  0.00    +0.000 C 
ENDROOT
BRANCH   6   9
ATOM      9  C   UNL     1       0.993  10.021  19.115  0.00  0.00    +0.000 A 
ATOM     10  C   UNL     1       1.689   9.742  17.925  0.00  0.00    +0.000 A 
ATOM     11  C   UNL     1       2.479   8.599  17.782  0.00  0.00    +0.000 A 
ATOM     12  C   UNL     1       2.296   7.637  18.768  0.00  0.00    +0.000 A 
ATOM     13  N   UNL     1       2.567   6.297  18.826  0.00  0.00    +0.000 N 
ATOM     14  N   UNL     1       2.228   5.776  20.017  0.00  0.00    +0.000 NA
ATOM     15  N   UNL     1       1.700   6.754  20.745  0.00  0.00    +0.000 NA
ATOM     16  C   UNL     1       1.661   7.889  19.975  0.00  0.00    +0.000 A 
ATOM     17  C   UNL     1       1.065   9.143  20.211  0.00  0.00    +0.000 A 
ATOM     18  H   UNL     1       2.857   5.674  18.082  0.00  0.00    +0.000 HD
ENDBRANCH   6   9
BRANCH   1  23
ATOM     19  C   UNL     1      -5.346  12.008  20.053  0.00  0.00    +0.000 A 
ATOM     20  N   UNL     1      -5.421  12.291  21.340  0.00  0.00    +0.000 NA
ATOM     21  C   UNL     1      -4.196  12.764  21.703  0.00  0.00    +0.000 A 
ATOM     22  C   UNL     1      -3.339  12.751  20.634  0.00  0.00    +0.000 A 
ATOM     23  N   UNL     1      -4.060  12.248  19.582  0.00  0.00    +0.000 N 
BRANCH  19  25
ATOM     24  C   UNL     1      -7.361  10.552  20.109  0.00  0.00    +0.000 C 
ATOM     25  C   UNL     1      -6.501  11.475  19.244  0.00  0.00    +0.000 C 
ATOM     26  C   UNL     1      -7.366  12.615  18.690  0.00  0.00    +0.000 C 
ENDBRANCH  19  25
ENDBRANCH   1  23
TORSDOF 3
ENDMDL
MODEL 2
REMARK VINA RESULT:      -6.9      3.911      5.009
REMARK  Name = 
REMARK  5 active torsions:
REMARK  status: ('A' for Active; 'I' for Inactive)
REMARK    1  A    between atoms: C_1  and  C_2
REMARK    2  A    between atoms: C_2  and  C_3
REMARK    3  A    between atoms: C_2  and  C_4
REMARK    4  A    between atoms: N_8  and  C_9
REMARK    5  A    between atoms: C_14  and  C_16
REMARK                            x       y       z     vdW  Elec       q    Type
REMARK                         _______ _______ _______ _____ _____    ______ ____
ROOT
ATOM      1  C   UNL     1       0.003  11.805  19.191  0.00  0.00    +0.000 C 
ATOM      2  C   UNL     1      -0.286  11.602  20.688  0.00  0.00    +0.000 C 
ATOM      3  C   UNL     1       0.596  10.560  21.378  0.00  0.00    +0.000 C 
ATOM      4  C   UNL     1       0.778   9.271  20.576  0.00  0.00    +0.000 C 
ATOM      5  N   UNL     1       1.089   9.507  19.169  0.00  0.00    +0.000 N 
ATOM      6  C   UNL     1       1.873   8.696  18.358  0.00  0.00    +0.000 C 
ATOM      7  O   UNL     1       2.031   8.921  17.163  0.00  0.00    +0.000 OA
ATOM      8  C   UNL     1       0.226  10.472  18.465  0.00  0.00    +0.000 C 
ENDROOT
BRANCH   6   9
ATOM      9  C   UNL     1       2.559   7.466  18.864  0.00  0.00    +0.000 A 
ATOM     10  C   UNL     1       3.456   6.846  17.975  0.00  0.00    +0.000 A 
ATOM     11  C   UNL     1       3.959   5.564  18.209  0.00  0.00    +0.000 A 
ATOM     12  C   UNL     1       3.300   4.851  19.203  0.00  0.00    +0.000 A 
ATOM     13  N   UNL     1       3.218   3.518  19.497  0.00  0.00    +0.000 N 
ATOM     14  N   UNL     1       2.465   3.297  20.587  0.00  0.00    +0.000 NA
ATOM     15  N   UNL     1       2.013   4.474  21.005  0.00  0.00    +0.000 NA
ATOM     16  C   UNL     1       2.449   5.436  20.130  0.00  0.00    +0.000 A 
ATOM     17  C   UNL     1       2.130   6.804  20.028  0.00  0.00    +0.000 A 
ATOM     18  H   UNL     1       3.536   2.725  18.951  0.00  0.00    +0.000 HD
ENDBRANCH   6   9
BRANCH   1  23
ATOM     19  C   UNL     1       0.927  14.179  18.955  0.00  0.00    +0.000 A 
ATOM     20  N   UNL     1       2.081  14.745  18.657  0.00  0.00    +0.000 NA
ATOM     21  C   UNL     1       2.939  13.732  18.348  0.00  0.00    +0.000 A 
ATOM     22  C   UNL     1       2.317  12.518  18.482  0.00  0.00    +0.000 A 
ATOM     23  N   UNL     1       1.038  12.795  18.892  0.00  0.00    +0.000 N 
BRANCH  19  25
ATOM     24  C   UNL     1      -0.311  15.228  20.840  0.00  0.00    +0.000 C 
ATOM     25  C   UNL     1      -0.310  14.952  19.336  0.00  0.00    +0.000 C 
ATOM     26  C   UNL     1      -0.396  16.278  18.569  0.00  0.00    +0.000 C 
ENDBRANCH  19  25
ENDBRANCH   1  23
TORSDOF 3
ENDMDL
MODEL 3
REMARK VINA RESULT:      -6.8      3.450      4.647
REMARK  Name = 
REMARK  5 active torsions:
REMARK  status: ('A' for Active; 'I' for Inactive)
REMARK    1  A    between atoms: C_1  and  C_2
REMARK    2  A    between atoms: C_2  and  C_3
REMARK    3  A    between atoms: C_2  and  C_4
REMARK    4  A    between atoms: N_8  and  C_9
REMARK    5  A    between atoms: C_14  and  C_16
REMARK                            x       y       z     vdW  Elec       q    Type
REMARK                         _______ _______ _______ _____ _____    ______ ____
ROOT
ATOM      1  C   UNL     1      -0.572  10.996  21.299  0.00  0.00    +0.000 C 
ATOM      2  C   UNL     1      -0.416  10.207  22.610  0.00  0.00    +0.000 C 
ATOM      3  C   UNL     1       0.764   9.234  22.639  0.00  0.00    +0.000 C 
ATOM      4  C   UNL     1       0.915   8.403  21.365  0.00  0.00    +0.000 C 
ATOM      5  N   UNL     1       0.800   9.195  20.143  0.00  0.00    +0.000 N 
ATOM      6  C   UNL     1       1.451   8.943  18.941  0.00  0.00    +0.000 C 
ATOM      7  O   UNL     1       1.248   9.612  17.934  0.00  0.00    +0.000 OA
ATOM      8  C   UNL     1      -0.354  10.108  20.066  0.00  0.00    +0.000 C 
ENDROOT
BRANCH   6   9
ATOM      9  C   UNL     1       2.423   7.819  18.767  0.00  0.00    +0.000 A 
ATOM     10  C   UNL     1       3.312   7.931  17.683  0.00  0.00    +0.000 A 
ATOM     11  C   UNL     1       4.084   6.851  17.247  0.00  0.00    +0.000 A 
ATOM     12  C   UNL     1       3.704   5.617  17.760  0.00  0.00    +0.000 A 
ATOM     13  N   UNL     1       3.925   4.330  17.354  0.00  0.00    +0.000 N 
ATOM     14  N   UNL     1       3.366   3.444  18.195  0.00  0.00    +0.000 NA
ATOM     15  N   UNL     1       2.743   4.133  19.145  0.00  0.00    +0.000 NA
ATOM     16  C   UNL     1       2.871   5.468  18.860  0.00  0.00    +0.000 A 
ATOM     17  C   UNL     1       2.276   6.599  19.452  0.00  0.00    +0.000 A 
ATOM     18  H   UNL     1       4.326   3.996  16.486  0.00  0.00    +0.000 HD
ENDBRANCH   6   9
BRANCH   1  23
ATOM     19  C   UNL     1      -0.086  13.432  21.911  0.00  0.00    +0.000 A 
ATOM     20  N   UNL     1       0.842  14.332  21.643  0.00  0.00    +0.000 NA
ATOM     21  C   UNL     1       1.696  13.753  20.754  0.00  0.00    +0.000 A 
ATOM     22  C   UNL     1       1.311  12.466  20.485  0.00  0.00    +0.000 A 
ATOM     23  N   UNL     1       0.186  12.246  21.238  0.00  0.00    +0.000 N 
BRANCH  19  25
ATOM     24  C   UNL     1      -0.932  14.851  23.769  0.00  0.00    +0.000 C 
ATOM     25  C   UNL     1      -1.246  13.676  22.842  0.00  0.00    +0.000 C 
ATOM     26  C   UNL     1      -2.535  13.967  22.061  0.00  0.00    +0.000 C 
ENDBRANCH  19  25
ENDBRANCH   1  23
TORSDOF 3
ENDMDL
MODEL 4
REMARK VINA RESULT:      -6.7      4.021      5.170
REMARK  Name = 
REMARK  5 active torsions:
REMARK  status: ('A' for Active; 'I' for Inactive)
REMARK    1  A    between atoms: C_1  and  C_2
REMARK    2  A    between atoms: C_2  and  C_3
REMARK    3  A    between atoms: C_2  and  C_4
REMARK    4  A    between atoms: N_8  and  C_9
REMARK    5  A    between atoms: C_14  and  C_16
REMARK                            x       y       z     vdW  Elec       q    Type
REMARK                         _______ _______ _______ _____ _____    ______ ____
ROOT
ATOM      1  C   UNL     1       0.125  11.025  19.592  0.00  0.00    +0.000 C 
ATOM      2  C   UNL     1       0.026  10.648  21.080  0.00  0.00    +0.000 C 
ATOM      3  C   UNL     1       1.083   9.654  21.563  0.00  0.00    +0.000 C 
ATOM      4  C   UNL     1       1.310   8.477  20.614  0.00  0.00    +0.000 C 
ATOM      5  N   UNL     1       1.438   8.882  19.216  0.00  0.00    +0.000 N 
ATOM      6  C   UNL     1       2.210   8.248  18.249  0.00  0.00    +0.000 C 
ATOM      7  O   UNL     1       2.210   8.604  17.075  0.00  0.00    +0.000 OA
ATOM      8  C   UNL     1       0.406   9.803  18.708  0.00  0.00    +0.000 C 
ENDROOT
BRANCH   6   9
ATOM      9  C   UNL     1       3.072   7.063  18.550  0.00  0.00    +0.000 A 
ATOM     10  C   UNL     1       4.164   6.857  17.688  0.00  0.00    +0.000 A 
ATOM     11  C   UNL     1       4.889   5.662  17.687  0.00  0.00    +0.000 A 
ATOM     12  C   UNL     1       4.286   4.615  18.373  0.00  0.00    +0.000 A 
ATOM     13  N   UNL     1       4.445   3.257  18.329  0.00  0.00    +0.000 N 
ATOM     14  N   UNL     1       3.641   2.636  19.208  0.00  0.00    +0.000 NA
ATOM     15  N   UNL     1       2.920   3.570  19.817  0.00  0.00    +0.000 NA
ATOM     16  C   UNL     1       3.242   4.786  19.270  0.00  0.00    +0.000 A 
ATOM     17  C   UNL     1       2.665   6.059  19.446  0.00  0.00    +0.000 A 
ATOM     18  H   UNL     1       4.972   2.699  17.667  0.00  0.00    +0.000 HD
ENDBRANCH   6   9
BRANCH   1  23
ATOM     19  C   UNL     1       0.851  13.477  19.692  0.00  0.00    +0.000 A 
ATOM     20  N   UNL     1       1.874  14.203  19.281  0.00  0.00    +0.000 NA
ATOM     21  C   UNL     1       2.683  13.364  18.575  0.00  0.00    +0.000 A 
ATOM     22  C   UNL     1       2.170  12.093  18.570  0.00  0.00    +0.000 A 
ATOM     23  N   UNL     1       1.011  12.153  19.301  0.00  0.00    +0.000 N 
BRANCH  19  25
ATOM     24  C   UNL     1       0.129  14.223  21.952  0.00  0.00    +0.000 C 
ATOM     25  C   UNL     1      -0.298  14.030  20.497  0.00  0.00    +0.000 C 
ATOM     26  C   UNL     1      -0.789  15.365  19.921  0.00  0.00    +0.000 C 
ENDBRANCH  19  25
ENDBRANCH   1  23
TORSDOF 3
ENDMDL
MODEL 5
REMARK VINA RESULT:      -6.6      3.452      8.932
REMARK  Name = 
REMARK  5 active torsions:
REMARK  status: ('A' for Active; 'I' for Inactive)
REMARK    1  A    between atoms: C_1  and  C_2
REMARK    2  A    between atoms: C_2  and  C_3
REMARK    3  A    between atoms: C_2  and  C_4
REMARK    4  A    between atoms: N_8  and  C_9
REMARK    5  A    between atoms: C_14  and  C_16
REMARK                            x       y       z     vdW  Elec       q    Type
REMARK                         _______ _______ _______ _____ _____    ______ ____
ROOT
ATOM      1  C   UNL     1       3.627   5.272  19.579  0.00  0.00    +0.000 C 
ATOM      2  C   UNL     1       2.766   4.945  20.811  0.00  0.00    +0.000 C 
ATOM      3  C   UNL     1       1.431   5.688  20.878  0.00  0.00    +0.000 C 
ATOM      4  C   UNL     1       1.530   7.175  20.538  0.00  0.00    +0.000 C 
ATOM      5  N   UNL     1       2.322   7.440  19.340  0.00  0.00    +0.000 N 
ATOM      6  C   UNL     1       2.126   8.485  18.444  0.00  0.00    +0.000 C 
ATOM      7  O   UNL     1       2.879   8.687  17.498  0.00  0.00    +0.000 OA
ATOM      8  C   UNL     1       3.635   6.774  19.268  0.00  0.00    +0.000 C 
ENDROOT
BRANCH   6   9
ATOM      9  C   UNL     1       1.006   9.467  18.580  0.00  0.00    +0.000 A 
ATOM     10  C   UNL     1      -0.129   9.226  17.784  0.00  0.00    +0.000 A 
ATOM     11  C   UNL     1      -1.127  10.188  17.610  0.00  0.00    +0.000 A 
ATOM     12  C   UNL     1      -0.784  11.467  18.033  0.00  0.00    +0.000 A 
ATOM     13  N   UNL     1      -1.277  12.709  17.742  0.00  0.00    +0.000 N 
ATOM     14  N   UNL     1      -0.627  13.670  18.419  0.00  0.00    +0.000 NA
ATOM     15  N   UNL     1       0.322  13.080  19.138  0.00  0.00    +0.000 NA
ATOM     16  C   UNL     1       0.295  11.736  18.861  0.00  0.00    +0.000 A 
ATOM     17  C   UNL     1       1.176  10.701  19.232  0.00  0.00    +0.000 A 
ATOM     18  H   UNL     1      -1.945  12.978  17.029  0.00  0.00    +0.000 HD
ENDBRANCH   6   9
BRANCH   1  23
ATOM     19  C   UNL     1       4.103   4.369  17.233  0.00  0.00    +0.000 A 
ATOM     20  N   UNL     1       3.570   3.488  16.406  0.00  0.00    +0.000 NA
ATOM     21  C   UNL     1       2.439   3.027  17.010  0.00  0.00    +0.000 A 
ATOM     22  C   UNL     1       2.280   3.609  18.241  0.00  0.00    +0.000 A 
ATOM     23  N   UNL     1       3.352   4.450  18.400  0.00  0.00    +0.000 N 
BRANCH  19  25
ATOM     24  C   UNL     1       6.426   4.199  16.362  0.00  0.00    +0.000 C 
ATOM     25  C   UNL     1       5.365   5.139  16.936  0.00  0.00    +0.000 C 
ATOM     26  C   UNL     1       5.100   6.282  15.947  0.00  0.00    +0.000 C 
ENDBRANCH  19  25
ENDBRANCH   1  23
TORSDOF 3
ENDMDL
MODEL 6
REMARK VINA RESULT:      -6.5      3.317      4.776
REMARK  Name = 
REMARK  5 active torsions:
REMARK  status: ('A' for Active; 'I' for Inactive)
REMARK    1  A    between atoms: C_1  and  C_2
REMARK    2  A    between atoms: C_2  and  C_3
REMARK    3  A    between atoms: C_2  and  C_4
REMARK    4  A    between atoms: N_8  and  C_9
REMARK    5  A    between atoms: C_14  and  C_16
REMARK                            x       y       z     vdW  Elec       q    Type
REMARK                         _______ _______ _______ _____ _____    ______ ____
ROOT
ATOM      1  C   UNL     1      -0.208  10.890  20.761  0.00  0.00    +0.000 C 
ATOM      2  C   UNL     1      -0.073  10.143  22.099  0.00  0.00    +0.000 C 
ATOM      3  C   UNL     1       1.084   9.145  22.165  0.00  0.00    +0.000 C 
ATOM      4  C   UNL     1       1.219   8.268  20.920  0.00  0.00    +0.000 C 
ATOM      5  N   UNL     1       1.126   9.021  19.672  0.00  0.00    +0.000 N 
ATOM      6  C   UNL     1       1.774   8.714  18.481  0.00  0.00    +0.000 C 
ATOM      7  O   UNL     1       1.589   9.353  17.451  0.00  0.00    +0.000 OA
ATOM      8  C   UNL     1      -0.007   9.957  19.560  0.00  0.00    +0.000 C 
ENDROOT
BRANCH   6   9
ATOM      9  C   UNL     1       2.720   7.562  18.349  0.00  0.00    +0.000 A 
ATOM     10  C   UNL     1       3.805   7.750  17.472  0.00  0.00    +0.000 A 
ATOM     11  C   UNL     1       4.607   6.686  17.052  0.00  0.00    +0.000 A 
ATOM     12  C   UNL     1       4.091   5.424  17.324  0.00  0.00    +0.000 A 
ATOM     13  N   UNL     1       4.340   4.183  16.805  0.00  0.00    +0.000 N 
ATOM     14  N   UNL     1       3.599   3.238  17.407  0.00  0.00    +0.000 NA
ATOM     15  N   UNL     1       2.830   3.846  18.304  0.00  0.00    +0.000 NA
ATOM     16  C   UNL     1       3.059   5.196  18.221  0.00  0.00    +0.000 A 
ATOM     17  C   UNL     1       2.402   6.281  18.832  0.00  0.00    +0.000 A 
ATOM     18  H   UNL     1       4.888   3.932  15.991  0.00  0.00    +0.000 HD
ENDBRANCH   6   9
BRANCH   1  23
ATOM     19  C   UNL     1       0.203  13.397  21.063  0.00  0.00    +0.000 A 
ATOM     20  N   UNL     1       1.190  14.250  20.855  0.00  0.00    +0.000 NA
ATOM     21  C   UNL     1       2.196  13.541  20.271  0.00  0.00    +0.000 A 
ATOM     22  C   UNL     1       1.841  12.224  20.137  0.00  0.00    +0.000 A 
ATOM     23  N   UNL     1       0.578  12.121  20.661  0.00  0.00    +0.000 N 
BRANCH  19  25
ATOM     24  C   UNL     1      -2.265  13.162  20.877  0.00  0.00    +0.000 C 
ATOM     25  C   UNL     1      -1.119  13.781  21.677  0.00  0.00    +0.000 C 
ATOM     26  C   UNL     1      -1.206  13.324  23.140  0.00  0.00    +0.000 C 
ENDBRANCH  19  25
ENDBRANCH   1  23
TORSDOF 3
ENDMDL
MODEL 7
REMARK VINA RESULT:      -6.5      3.813      5.398
REMARK  Name = 
REMARK  5 active torsions:
REMARK  status: ('A' for Active; 'I' for Inactive)
REMARK    1  A    between atoms: C_1  and  C_2
REMARK    2  A    between atoms: C_2  and  C_3
REMARK    3  A    between atoms: C_2  and  C_4
REMARK    4  A    between atoms: N_8  and  C_9
REMARK    5  A    between atoms: C_14  and  C_16
REMARK                            x       y       z     vdW  Elec       q    Type
REMARK                         _______ _______ _______ _____ _____    ______ ____
ROOT
ATOM      1  C   UNL     1       0.160  10.933  20.161  0.00  0.00    +0.000 C 
ATOM      2  C   UNL     1       0.194  10.361  21.589  0.00  0.00    +0.000 C 
ATOM      3  C   UNL     1       1.272   9.305  21.834  0.00  0.00    +0.000 C 
ATOM      4  C   UNL     1       1.386   8.263  20.720  0.00  0.00    +0.000 C 
ATOM      5  N   UNL     1       1.390   8.850  19.382  0.00  0.00    +0.000 N 
ATOM      6  C   UNL     1       2.055   8.345  18.271  0.00  0.00    +0.000 C 
ATOM      7  O   UNL     1       1.953   8.853  17.160  0.00  0.00    +0.000 OA
ATOM      8  C   UNL     1       0.333   9.837  19.101  0.00  0.00    +0.000 C 
ENDROOT
BRANCH   6   9
ATOM      9  C   UNL     1       2.919   7.124  18.330  0.00  0.00    +0.000 A 
ATOM     10  C   UNL     1       2.666   6.238  19.393  0.00  0.00    +0.000 A 
ATOM     11  C   UNL     1       3.552   5.210  19.723  0.00  0.00    +0.000 A 
ATOM     12  C   UNL     1       4.805   5.306  19.129  0.00  0.00    +0.000 A 
ATOM     13  N   UNL     1       6.024   4.764  19.429  0.00  0.00    +0.000 N 
ATOM     14  N   UNL     1       6.962   5.132  18.540  0.00  0.00    +0.000 NA
ATOM     15  N   UNL     1       6.383   5.947  17.665  0.00  0.00    +0.000 NA
ATOM     16  C   UNL     1       5.078   6.129  18.046  0.00  0.00    +0.000 A 
ATOM     17  C   UNL     1       4.089   7.006  17.559  0.00  0.00    +0.000 A 
ATOM     18  H   UNL     1       6.307   4.254  20.258  0.00  0.00    +0.000 HD
ENDBRANCH   6   9
BRANCH   1  23
ATOM     19  C   UNL     1       0.981  13.322  20.564  0.00  0.00    +0.000 A 
ATOM     20  N   UNL     1       1.961  14.096  20.137  0.00  0.00    +0.000 NA
ATOM     21  C   UNL     1       2.632  13.380  19.191  0.00  0.00    +0.000 A 
ATOM     22  C   UNL     1       2.078  12.135  19.047  0.00  0.00    +0.000 A 
ATOM     23  N   UNL     1       1.037  12.083  19.937  0.00  0.00    +0.000 N 
BRANCH  19  25
ATOM     24  C   UNL     1       0.478  14.988  22.341  0.00  0.00    +0.000 C 
ATOM     25  C   UNL     1      -0.023  13.743  21.608  0.00  0.00    +0.000 C 
ATOM     26  C   UNL     1      -1.393  14.031  20.978  0.00  0.00    +0.000 C 
ENDBRANCH  19  25
ENDBRANCH   1  23
TORSDOF 3
ENDMDL
MODEL 8
REMARK VINA RESULT:      -6.4      4.402      9.934
REMARK  Name = 
REMARK  5 active torsions:
REMARK  status: ('A' for Active; 'I' for Inactive)
REMARK    1  A    between atoms: C_1  and  C_2
REMARK    2  A    between atoms: C_2  and  C_3
REMARK    3  A    between atoms: C_2  and  C_4
REMARK    4  A    between atoms: N_8  and  C_9
REMARK    5  A    between atoms: C_14  and  C_16
REMARK                            x       y       z     vdW  Elec       q    Type
REMARK                         _______ _______ _______ _____ _____    ______ ____
ROOT
ATOM      1  C   UNL     1       4.882   3.587  17.708  0.00  0.00    +0.000 C 
ATOM      2  C   UNL     1       3.630   2.812  17.266  0.00  0.00    +0.000 C 
ATOM      3  C   UNL     1       2.384   3.672  17.049  0.00  0.00    +0.000 C 
ATOM      4  C   UNL     1       2.145   4.708  18.148  0.00  0.00    +0.000 C 
ATOM      5  N   UNL     1       3.350   5.449  18.512  0.00  0.00    +0.000 N 
ATOM      6  C   UNL     1       3.397   6.766  18.954  0.00  0.00    +0.000 C 
ATOM      7  O   UNL     1       4.441   7.300  19.312  0.00  0.00    +0.000 OA
ATOM      8  C   UNL     1       4.556   4.644  18.772  0.00  0.00    +0.000 C 
ENDROOT
BRANCH   6   9
ATOM      9  C   UNL     1       2.178   7.627  19.065  0.00  0.00    +0.000 A 
ATOM     10  C   UNL     1       1.870   8.411  17.938  0.00  0.00    +0.000 A 
ATOM     11  C   UNL     1       0.930   9.443  17.992  0.00  0.00    +0.000 A 
ATOM     12  C   UNL     1       0.549   9.819  19.274  0.00  0.00    +0.000 A 
ATOM     13  N   UNL     1      -0.028  10.950  19.783  0.00  0.00    +0.000 N 
ATOM     14  N   UNL     1      -0.232  10.849  21.107  0.00  0.00    +0.000 NA
ATOM     15  N   UNL     1       0.237   9.667  21.493  0.00  0.00    +0.000 NA
ATOM     16  C   UNL     1       0.789   9.047  20.401  0.00  0.00    +0.000 A 
ATOM     17  C   UNL     1       1.547   7.864  20.298  0.00  0.00    +0.000 A 
ATOM     18  H   UNL     1      -0.192  11.840  19.328  0.00  0.00    +0.000 HD
ENDBRANCH   6   9
BRANCH   1  23
ATOM     19  C   UNL     1       6.635   5.141  16.679  0.00  0.00    +0.000 A 
ATOM     20  N   UNL     1       7.206   5.313  15.501  0.00  0.00    +0.000 NA
ATOM     21  C   UNL     1       6.606   4.435  14.650  0.00  0.00    +0.000 A 
ATOM     22  C   UNL     1       5.669   3.686  15.313  0.00  0.00    +0.000 A 
ATOM     23  N   UNL     1       5.698   4.116  16.615  0.00  0.00    +0.000 N 
BRANCH  19  25
ATOM     24  C   UNL     1       8.045   5.189  18.728  0.00  0.00    +0.000 C 
ATOM     25  C   UNL     1       6.994   5.938  17.908  0.00  0.00    +0.000 C 
ATOM     26  C   UNL     1       7.526   7.328  17.533  0.00  0.00    +0.000 C 
ENDBRANCH  19  25
ENDBRANCH   1  23
TORSDOF 3
ENDMDL
MODEL 9
REMARK VINA RESULT:      -6.4      1.461      2.205
REMARK  Name = 
REMARK  5 active torsions:
REMARK  status: ('A' for Active; 'I' for Inactive)
REMARK    1  A    between atoms: C_1  and  C_2
REMARK    2  A    between atoms: C_2  and  C_3
REMARK    3  A    between atoms: C_2  and  C_4
REMARK    4  A    between atoms: N_8  and  C_9
REMARK    5  A    between atoms: C_14  and  C_16
REMARK                            x       y       z     vdW  Elec       q    Type
REMARK                         _______ _______ _______ _____ _____    ______ ____
ROOT
ATOM      1  C   UNL     1      -2.081  12.366  18.982  0.00  0.00    +0.000 C 
ATOM      2  C   UNL     1      -2.980  11.568  18.023  0.00  0.00    +0.000 C 
ATOM      3  C   UNL     1      -2.636  10.083  17.905  0.00  0.00    +0.000 C 
ATOM      4  C   UNL     1      -1.139   9.801  17.768  0.00  0.00    +0.000 C 
ATOM      5  N   UNL     1      -0.324  10.548  18.722  0.00  0.00    +0.000 N 
ATOM      6  C   UNL     1       0.877  10.124  19.281  0.00  0.00    +0.000 C 
ATOM      7  O   UNL     1       1.544  10.838  20.020  0.00  0.00    +0.000 OA
ATOM      8  C   UNL     1      -0.601  11.992  18.825  0.00  0.00    +0.000 C 
ENDROOT
BRANCH   6   9
ATOM      9  C   UNL     1       1.469   8.779  18.999  0.00  0.00    +0.000 A 
ATOM     10  C   UNL     1       1.474   7.868  20.071  0.00  0.00    +0.000 A 
ATOM     11  C   UNL     1       2.222   6.688  20.033  0.00  0.00    +0.000 A 
ATOM     12  C   UNL     1       3.161   6.625  19.011  0.00  0.00    +0.000 A 
ATOM     13  N   UNL     1       4.287   5.872  18.824  0.00  0.00    +0.000 N 
ATOM     14  N   UNL     1       4.879   6.150  17.650  0.00  0.00    +0.000 NA
ATOM     15  N   UNL     1       4.172   7.110  17.065  0.00  0.00    +0.000 NA
ATOM     16  C   UNL     1       3.156   7.472  17.912  0.00  0.00    +0.000 A 
ATOM     17  C   UNL     1       2.229   8.531  17.843  0.00  0.00    +0.000 A 
ATOM     18  H   UNL     1       4.762   5.263  19.480  0.00  0.00    +0.000 HD
ENDBRANCH   6   9
BRANCH   1  23
ATOM     19  C   UNL     1      -3.788  12.666  20.864  0.00  0.00    +0.000 A 
ATOM     20  N   UNL     1      -3.820  12.524  22.176  0.00  0.00    +0.000 NA
ATOM     21  C   UNL     1      -2.557  12.184  22.558  0.00  0.00    +0.000 A 
ATOM     22  C   UNL     1      -1.734  12.087  21.466  0.00  0.00    +0.000 A 
ATOM     23  N   UNL     1      -2.520  12.371  20.378  0.00  0.00    +0.000 N 
BRANCH  19  25
ATOM     24  C   UNL     1      -6.062  11.982  20.124  0.00  0.00    +0.000 C 
ATOM     25  C   UNL     1      -4.984  13.063  20.036  0.00  0.00    +0.000 C 
ATOM     26  C   UNL     1      -5.561  14.407  20.502  0.00  0.00    +0.000 C 
ENDBRANCH  19  25
ENDBRANCH   1  23
TORSDOF 3
ENDMDL
