MODEL 1
REMARK VINA RESULT:      -7.8      0.000      0.000
REMARK  Name = 
REMARK  12 active torsions:
REMARK  status: ('A' for Active; 'I' for Inactive)
REMARK    1  A    between atoms: C_1  and  C_2
REMARK    2  A    between atoms: C_2  and  C_3
REMARK    3  A    between atoms: C_6  and  O_7
REMARK    4  A    between atoms: O_7  and  C_8
REMARK    5  A    between atoms: C_8  and  C_9
REMARK    6  A    between atoms: C_9  and  O_10
REMARK    7  A    between atoms: O_10  and  C_11
REMARK    8  A    between atoms: C_22  and  N_23
REMARK    9  A    between atoms: N_23  and  C_26
REMARK   10  A    between atoms: C_26  and  C_27
REMARK   11  A    between atoms: C_30  and  O_31
REMARK   12  A    between atoms: O_31  and  C_32
REMARK                            x       y       z     vdW  Elec       q    Type
REMARK                         _______ _______ _______ _____ _____    ______ ____
ROOT
ATOM      1  C   UNL     1       2.307   4.788  20.825  0.00  0.00    +0.000 A 
ATOM      2  N   UNL     1       1.890   6.010  21.293  0.00  0.00    +0.000 NA
ATOM      3  C   UNL     1       1.993   6.846  20.281  0.00  0.00    +0.000 A 
ATOM      4  C   UNL     1       1.663   8.240  20.173  0.00  0.00    +0.000 A 
ATOM      5  C   UNL     1       1.862   8.867  18.993  0.00  0.00    +0.000 A 
ATOM      6  C   UNL     1       2.398   8.169  17.834  0.00  0.00    +0.000 A 
ATOM      7  C   UNL     1       2.687   6.861  17.928  0.00  0.00    +0.000 A 
ATOM      8  N   UNL     1       2.486   6.201  19.143  0.00  0.00    +0.000 N 
ATOM      9  C   UNL     1       2.660   4.863  19.483  0.00  0.00    +0.000 A 
ENDROOT
BRANCH   9  10
ATOM     10  N   UNL     1       3.010   3.843  18.587  0.00  0.00    +0.000 N 
ATOM     11  C   UNL     1       2.055   3.541  17.623  0.00  0.00    +0.000 C 
ATOM     12  O   UNL     1       2.228   2.835  16.636  0.00  0.00    +0.000 OA
BRANCH  10  13
ATOM     13  C   UNL     1       4.384   3.379  18.368  0.00  0.00    +0.000 C 
BRANCH  13  14
ATOM     14  C   UNL     1       5.408   4.434  17.952  0.00  0.00    +0.000 A 
ATOM     15  C   UNL     1       6.315   5.038  18.832  0.00  0.00    +0.000 A 
ATOM     16  C   UNL     1       7.138   6.095  18.410  0.00  0.00    +0.000 A 
ATOM     17  C   UNL     1       7.111   6.540  17.086  0.00  0.00    +0.000 A 
ATOM     18  C   UNL     1       6.273   5.895  16.179  0.00  0.00    +0.000 A 
ATOM     19  C   UNL     1       5.436   4.852  16.610  0.00  0.00    +0.000 A 
BRANCH  17  20
ATOM     20  O   UNL     1       7.909   7.620  16.821  0.00  0.00    +0.000 OA
ATOM     21  C   UNL     1       7.937   8.649  17.803  0.00  0.00    +0.000 C 
ENDBRANCH  17  20
ENDBRANCH  13  14
ENDBRANCH  10  13
ENDBRANCH   9  10
BRANCH   1  23
ATOM     22  C   UNL     1       1.275   2.576  21.375  0.00  0.00    +0.000 C 
ATOM     23  C   UNL     1       2.308   3.623  21.752  0.00  0.00    +0.000 C 
ENDBRANCH   1  23
BRANCH   4  24
ATOM     24  O   UNL     1       1.166   8.786  21.333  0.00  0.00    +0.000 OA
BRANCH  24  25
ATOM     25  C   UNL     1      -0.248   8.880  21.520  0.00  0.00    +0.000 C 
BRANCH  25  26
ATOM     26  C   UNL     1      -0.682  10.346  21.567  0.00  0.00    +0.000 C 
BRANCH  26  27
ATOM     27  O   UNL     1      -0.863  10.830  20.234  0.00  0.00    +0.000 OA
BRANCH  27  28
ATOM     28  C   UNL     1      -0.131  11.931  19.873  0.00  0.00    +0.000 A 
ATOM     29  C   UNL     1       1.150  12.248  20.335  0.00  0.00    +0.000 A 
ATOM     30  C   UNL     1       1.792  13.408  19.890  0.00  0.00    +0.000 A 
ATOM     31  C   UNL     1       1.154  14.245  18.983  0.00  0.00    +0.000 A 
ATOM     32  F   UNL     1       1.774  15.354  18.558  0.00  0.00    +0.000 F 
ATOM     33  C   UNL     1      -0.117  13.945  18.511  0.00  0.00    +0.000 A 
ATOM     34  C   UNL     1      -0.759  12.787  18.959  0.00  0.00    +0.000 A 
ENDBRANCH  27  28
ENDBRANCH  26  27
ENDBRANCH  25  26
ENDBRANCH  24  25
ENDBRANCH   4  24
TORSDOF 10
ENDMDL
MODEL 2
REMARK VINA RESULT:      -7.6      2.243      2.787
REMARK  Name = 
REMARK  12 active torsions:
REMARK  status: ('A' for Active; 'I' for Inactive)
REMARK    1  A    between atoms: C_1  and  C_2
REMARK    2  A    between atoms: C_2  and  C_3
REMARK    3  A    between atoms: C_6  and  O_7
REMARK    4  A    between atoms: O_7  and  C_8
REMARK    5  A    between atoms: C_8  and  C_9
REMARK    6  A    between atoms: C_9  and  O_10
REMARK    7  A    between atoms: O_10  and  C_11
REMARK    8  A    between atoms: C_22  and  N_23
REMARK    9  A    between atoms: N_23  and  C_26
REMARK   10  A    between atoms: C_26  and  C_27
REMARK   11  A    between atoms: C_30  and  O_31
REMARK   12  A    between atoms: O_31  and  C_32
REMARK                            x       y       z     vdW  Elec       q    Type
REMARK                         _______ _______ _______ _____ _____    ______ ____
ROOT
ATOM      1  C   UNL     1       2.200   4.928  20.851  0.00  0.00    +0.000 A 
ATOM      2  N   UNL     1       1.681   6.132  21.263  0.00  0.00    +0.000 NA
ATOM      3  C   UNL     1       1.829   6.961  20.250  0.00  0.00    +0.000 A 
ATOM      4  C   UNL     1       1.437   8.334  20.093  0.00  0.00    +0.000 A 
ATOM      5  C   UNL     1       1.704   8.958  18.925  0.00  0.00    +0.000 A 
ATOM      6  C   UNL     1       2.375   8.277  17.828  0.00  0.00    +0.000 A 
ATOM      7  C   UNL     1       2.722   6.987  17.966  0.00  0.00    +0.000 A 
ATOM      8  N   UNL     1       2.451   6.331  19.170  0.00  0.00    +0.000 N 
ATOM      9  C   UNL     1       2.664   5.008  19.544  0.00  0.00    +0.000 A 
ENDROOT
BRANCH   9  10
ATOM     10  N   UNL     1       3.142   3.997  18.697  0.00  0.00    +0.000 N 
ATOM     11  C   UNL     1       2.292   3.636  17.658  0.00  0.00    +0.000 C 
ATOM     12  O   UNL     1       2.587   2.930  16.701  0.00  0.00    +0.000 OA
BRANCH  10  13
ATOM     13  C   UNL     1       4.553   3.605  18.604  0.00  0.00    +0.000 C 
BRANCH  13  14
ATOM     14  C   UNL     1       5.537   4.677  18.140  0.00  0.00    +0.000 A 
ATOM     15  C   UNL     1       6.626   5.125  18.898  0.00  0.00    +0.000 A 
ATOM     16  C   UNL     1       7.412   6.206  18.467  0.00  0.00    +0.000 A 
ATOM     17  C   UNL     1       7.161   6.832  17.243  0.00  0.00    +0.000 A 
ATOM     18  C   UNL     1       6.131   6.345  16.440  0.00  0.00    +0.000 A 
ATOM     19  C   UNL     1       5.334   5.277  16.884  0.00  0.00    +0.000 A 
BRANCH  17  20
ATOM     20  O   UNL     1       7.953   7.915  16.973  0.00  0.00    +0.000 OA
ATOM     21  C   UNL     1       7.991   8.940  17.957  0.00  0.00    +0.000 C 
ENDBRANCH  17  20
ENDBRANCH  13  14
ENDBRANCH  10  13
ENDBRANCH   9  10
BRANCH   1  23
ATOM     22  C   UNL     1       1.261   2.659  21.330  0.00  0.00    +0.000 C 
ATOM     23  C   UNL     1       2.181   3.775  21.792  0.00  0.00    +0.000 C 
ENDBRANCH   1  23
BRANCH   4  24
ATOM     24  O   UNL     1       0.813   8.865  21.198  0.00  0.00    +0.000 OA
BRANCH  24  25
ATOM     25  C   UNL     1      -0.266   9.786  21.025  0.00  0.00    +0.000 C 
BRANCH  25  26
ATOM     26  C   UNL     1       0.042  11.105  21.735  0.00  0.00    +0.000 C 
BRANCH  26  27
ATOM     27  O   UNL     1      -0.720  12.156  21.133  0.00  0.00    +0.000 OA
BRANCH  27  28
ATOM     28  C   UNL     1      -1.975  12.375  21.639  0.00  0.00    +0.000 A 
ATOM     29  C   UNL     1      -3.109  12.708  20.893  0.00  0.00    +0.000 A 
ATOM     30  C   UNL     1      -4.338  12.909  21.532  0.00  0.00    +0.000 A 
ATOM     31  C   UNL     1      -4.428  12.774  22.912  0.00  0.00    +0.000 A 
ATOM     32  F   UNL     1      -5.607  12.965  23.518  0.00  0.00    +0.000 F 
ATOM     33  C   UNL     1      -3.312  12.441  23.667  0.00  0.00    +0.000 A 
ATOM     34  C   UNL     1      -2.085  12.243  23.029  0.00  0.00    +0.000 A 
ENDBRANCH  27  28
ENDBRANCH  26  27
ENDBRANCH  25  26
ENDBRANCH  24  25
ENDBRANCH   4  24
TORSDOF 10
ENDMDL
MODEL 3
REMARK VINA RESULT:      -7.6      3.061      8.279
REMARK  Name = 
REMARK  12 active torsions:
REMARK  status: ('A' for Active; 'I' for Inactive)
REMARK    1  A    between atoms: C_1  and  C_2
REMARK    2  A    between atoms: C_2  and  C_3
REMARK    3  A    between atoms: C_6  and  O_7
REMARK    4  A    between atoms: O_7  and  C_8
REMARK    5  A    between atoms: C_8  and  C_9
REMARK    6  A    between atoms: C_9  and  O_10
REMARK    7  A    between atoms: O_10  and  C_11
REMARK    8  A    between atoms: C_22  and  N_23
REMARK    9  A    between atoms: N_23  and  C_26
REMARK   10  A    between atoms: C_26  and  C_27
REMARK   11  A    between atoms: C_30  and  O_31
REMARK   12  A    between atoms: O_31  and  C_32
REMARK                            x       y       z     vdW  Elec       q    Type
REMARK                         _______ _______ _______ _____ _____    ______ ____
ROOT
ATOM      1  C   UNL     1       0.860   9.331  21.745  0.00  0.00    +0.000 A 
ATOM      2  N   UNL     1       1.419   8.104  21.479  0.00  0.00    +0.000 NA
ATOM      3  C   UNL     1       1.719   8.107  20.197  0.00  0.00    +0.000 A 
ATOM      4  C   UNL     1       2.356   7.116  19.377  0.00  0.00    +0.000 A 
ATOM      5  C   UNL     1       2.556   7.383  18.067  0.00  0.00    +0.000 A 
ATOM      6  C   UNL     1       2.144   8.646  17.471  0.00  0.00    +0.000 A 
ATOM      7  C   UNL     1       1.568   9.581  18.242  0.00  0.00    +0.000 A 
ATOM      8  N   UNL     1       1.356   9.316  19.598  0.00  0.00    +0.000 N 
ATOM      9  C   UNL     1       0.829  10.121  20.603  0.00  0.00    +0.000 A 
ENDROOT
BRANCH   9  10
ATOM     10  N   UNL     1       0.469  11.468  20.452  0.00  0.00    +0.000 N 
ATOM     11  C   UNL     1       1.511  12.333  20.137  0.00  0.00    +0.000 C 
ATOM     12  O   UNL     1       1.393  13.496  19.771  0.00  0.00    +0.000 OA
BRANCH  10  13
ATOM     13  C   UNL     1      -0.905  11.930  20.226  0.00  0.00    +0.000 C 
BRANCH  13  14
ATOM     14  C   UNL     1      -1.641  11.338  19.026  0.00  0.00    +0.000 A 
ATOM     15  C   UNL     1      -2.248  10.076  19.020  0.00  0.00    +0.000 A 
ATOM     16  C   UNL     1      -2.793   9.539  17.843  0.00  0.00    +0.000 A 
ATOM     17  C   UNL     1      -2.789  10.271  16.653  0.00  0.00    +0.000 A 
ATOM     18  C   UNL     1      -2.262  11.560  16.661  0.00  0.00    +0.000 A 
ATOM     19  C   UNL     1      -1.700  12.086  17.836  0.00  0.00    +0.000 A 
BRANCH  17  20
ATOM     20  O   UNL     1      -3.287   9.608  15.563  0.00  0.00    +0.000 OA
ATOM     21  C   UNL     1      -2.901  10.100  14.286  0.00  0.00    +0.000 C 
ENDBRANCH  17  20
ENDBRANCH  13  14
ENDBRANCH  10  13
ENDBRANCH   9  10
BRANCH   1  23
ATOM     22  C   UNL     1      -0.933  10.341  23.167  0.00  0.00    +0.000 C 
ATOM     23  C   UNL     1       0.409   9.632  23.131  0.00  0.00    +0.000 C 
ENDBRANCH   1  23
BRANCH   4  24
ATOM     24  O   UNL     1       2.697   5.968  20.054  0.00  0.00    +0.000 OA
BRANCH  24  25
ATOM     25  C   UNL     1       2.325   4.696  19.520  0.00  0.00    +0.000 C 
BRANCH  25  26
ATOM     26  C   UNL     1       3.470   3.695  19.682  0.00  0.00    +0.000 C 
BRANCH  26  27
ATOM     27  O   UNL     1       4.106   3.493  18.416  0.00  0.00    +0.000 OA
BRANCH  27  28
ATOM     28  C   UNL     1       4.985   4.461  18.006  0.00  0.00    +0.000 A 
ATOM     29  C   UNL     1       4.961   5.116  16.771  0.00  0.00    +0.000 A 
ATOM     30  C   UNL     1       5.922   6.088  16.472  0.00  0.00    +0.000 A 
ATOM     31  C   UNL     1       6.899   6.404  17.407  0.00  0.00    +0.000 A 
ATOM     32  F   UNL     1       7.815   7.338  17.116  0.00  0.00    +0.000 F 
ATOM     33  C   UNL     1       6.935   5.766  18.640  0.00  0.00    +0.000 A 
ATOM     34  C   UNL     1       5.978   4.792  18.937  0.00  0.00    +0.000 A 
ENDBRANCH  27  28
ENDBRANCH  26  27
ENDBRANCH  25  26
ENDBRANCH  24  25
ENDBRANCH   4  24
TORSDOF 10
ENDMDL
MODEL 4
REMARK VINA RESULT:      -7.5      3.379      8.660
REMARK  Name = 
REMARK  12 active torsions:
REMARK  status: ('A' for Active; 'I' for Inactive)
REMARK    1  A    between atoms: C_1  and  C_2
REMARK    2  A    between atoms: C_2  and  C_3
REMARK    3  A    between atoms: C_6  and  O_7
REMARK    4  A    between atoms: O_7  and  C_8
REMARK    5  A    between atoms: C_8  and  C_9
REMARK    6  A    between atoms: C_9  and  O_10
REMARK    7  A    between atoms: O_10  and  C_11
REMARK    8  A    between atoms: C_22  and  N_23
REMARK    9  A    between atoms: N_23  and  C_26
REMARK   10  A    between atoms: C_26  and  C_27
REMARK   11  A    between atoms: C_30  and  O_31
REMARK   12  A    between atoms: O_31  and  C_32
REMARK                            x       y       z     vdW  Elec       q    Type
REMARK                         _______ _______ _______ _____ _____    ______ ____
ROOT
ATOM      1  C   UNL     1       0.730   9.418  21.772  0.00  0.00    +0.000 A 
ATOM      2  N   UNL     1       1.252   8.165  21.561  0.00  0.00    +0.000 NA
ATOM      3  C   UNL     1       1.629   8.132  20.299  0.00  0.00    +0.000 A 
ATOM      4  C   UNL     1       2.273   7.101  19.535  0.00  0.00    +0.000 A 
ATOM      5  C   UNL     1       2.564   7.336  18.237  0.00  0.00    +0.000 A 
ATOM      6  C   UNL     1       2.243   8.604  17.597  0.00  0.00    +0.000 A 
ATOM      7  C   UNL     1       1.661   9.576  18.317  0.00  0.00    +0.000 A 
ATOM      8  N   UNL     1       1.355   9.344  19.660  0.00  0.00    +0.000 N 
ATOM      9  C   UNL     1       0.802  10.188  20.618  0.00  0.00    +0.000 A 
ENDROOT
BRANCH   9  10
ATOM     10  N   UNL     1       0.510  11.546  20.425  0.00  0.00    +0.000 N 
ATOM     11  C   UNL     1       1.575  12.331  19.997  0.00  0.00    +0.000 C 
ATOM     12  O   UNL     1       1.498  13.482  19.582  0.00  0.00    +0.000 OA
BRANCH  10  13
ATOM     13  C   UNL     1      -0.848  12.079  20.269  0.00  0.00    +0.000 C 
BRANCH  13  14
ATOM     14  C   UNL     1      -1.692  11.491  19.140  0.00  0.00    +0.000 A 
ATOM     15  C   UNL     1      -1.202  10.608  18.170  0.00  0.00    +0.000 A 
ATOM     16  C   UNL     1      -1.998  10.210  17.084  0.00  0.00    +0.000 A 
ATOM     17  C   UNL     1      -3.320  10.645  16.967  0.00  0.00    +0.000 A 
ATOM     18  C   UNL     1      -3.849  11.459  17.967  0.00  0.00    +0.000 A 
ATOM     19  C   UNL     1      -3.043  11.871  19.042  0.00  0.00    +0.000 A 
BRANCH  17  20
ATOM     20  O   UNL     1      -3.965  10.242  15.828  0.00  0.00    +0.000 OA
ATOM     21  C   UNL     1      -3.204  10.250  14.628  0.00  0.00    +0.000 C 
ENDBRANCH  17  20
ENDBRANCH  13  14
ENDBRANCH  10  13
ENDBRANCH   9  10
BRANCH   1  23
ATOM     22  C   UNL     1      -1.197  10.337  23.077  0.00  0.00    +0.000 C 
ATOM     23  C   UNL     1       0.208   9.762  23.123  0.00  0.00    +0.000 C 
ENDBRANCH   1  23
BRANCH   4  24
ATOM     24  O   UNL     1       2.524   5.952  20.250  0.00  0.00    +0.000 OA
BRANCH  24  25
ATOM     25  C   UNL     1       1.867   4.737  19.885  0.00  0.00    +0.000 C 
BRANCH  25  26
ATOM     26  C   UNL     1       2.809   3.845  19.075  0.00  0.00    +0.000 C 
BRANCH  26  27
ATOM     27  O   UNL     1       4.163   4.145  19.426  0.00  0.00    +0.000 OA
BRANCH  27  28
ATOM     28  C   UNL     1       5.055   4.266  18.392  0.00  0.00    +0.000 A 
ATOM     29  C   UNL     1       6.341   4.808  18.482  0.00  0.00    +0.000 A 
ATOM     30  C   UNL     1       7.156   4.878  17.346  0.00  0.00    +0.000 A 
ATOM     31  C   UNL     1       6.684   4.404  16.128  0.00  0.00    +0.000 A 
ATOM     32  F   UNL     1       7.470   4.471  15.045  0.00  0.00    +0.000 F 
ATOM     33  C   UNL     1       5.412   3.859  16.022  0.00  0.00    +0.000 A 
ATOM     34  C   UNL     1       4.597   3.793  17.156  0.00  0.00    +0.000 A 
ENDBRANCH  27  28
ENDBRANCH  26  27
ENDBRANCH  25  26
ENDBRANCH  24  25
ENDBRANCH   4  24
TORSDOF 10
ENDMDL
MODEL 5
REMARK VINA RESULT:      -7.5      2.998      7.852
REMARK  Name = 
REMARK  12 active torsions:
REMARK  status: ('A' for Active; 'I' for Inactive)
REMARK    1  A    between atoms: C_1  and  C_2
REMARK    2  A    between atoms: C_2  and  C_3
REMARK    3  A    between atoms: C_6  and  O_7
REMARK    4  A    between atoms: O_7  and  C_8
REMARK    5  A    between atoms: C_8  and  C_9
REMARK    6  A    between atoms: C_9  and  O_10
REMARK    7  A    between atoms: O_10  and  C_11
REMARK    8  A    between atoms: C_22  and  N_23
REMARK    9  A    between atoms: N_23  and  C_26
REMARK   10  A    between atoms: C_26  and  C_27
REMARK   11  A    between atoms: C_30  and  O_31
REMARK   12  A    between atoms: O_31  and  C_32
REMARK                            x       y       z     vdW  Elec       q    Type
REMARK                         _______ _______ _______ _____ _____    ______ ____
ROOT
ATOM      1  C   UNL     1       0.702   9.400  21.776  0.00  0.00    +0.000 A 
ATOM      2  N   UNL     1       1.269   8.170  21.546  0.00  0.00    +0.000 NA
ATOM      3  C   UNL     1       1.610   8.155  20.274  0.00  0.00    +0.000 A 
ATOM      4  C   UNL     1       2.273   7.152  19.489  0.00  0.00    +0.000 A 
ATOM      5  C   UNL     1       2.515   7.402  18.183  0.00  0.00    +0.000 A 
ATOM      6  C   UNL     1       2.124   8.656  17.556  0.00  0.00    +0.000 A 
ATOM      7  C   UNL     1       1.524   9.603  18.296  0.00  0.00    +0.000 A 
ATOM      8  N   UNL     1       1.268   9.356  19.647  0.00  0.00    +0.000 N 
ATOM      9  C   UNL     1       0.709  10.175  20.623  0.00  0.00    +0.000 A 
ENDROOT
BRANCH   9  10
ATOM     10  N   UNL     1       0.356  11.520  20.442  0.00  0.00    +0.000 N 
ATOM     11  C   UNL     1      -0.920  11.740  19.936  0.00  0.00    +0.000 C 
ATOM     12  O   UNL     1      -1.498  12.819  19.888  0.00  0.00    +0.000 OA
BRANCH  10  13
ATOM     13  C   UNL     1       1.048  12.643  21.084  0.00  0.00    +0.000 C 
BRANCH  13  14
ATOM     14  C   UNL     1       2.044  13.419  20.225  0.00  0.00    +0.000 A 
ATOM     15  C   UNL     1       2.188  13.250  18.843  0.00  0.00    +0.000 A 
ATOM     16  C   UNL     1       3.213  13.900  18.137  0.00  0.00    +0.000 A 
ATOM     17  C   UNL     1       4.088  14.774  18.786  0.00  0.00    +0.000 A 
ATOM     18  C   UNL     1       3.907  15.016  20.147  0.00  0.00    +0.000 A 
ATOM     19  C   UNL     1       2.893  14.348  20.853  0.00  0.00    +0.000 A 
BRANCH  17  20
ATOM     20  O   UNL     1       5.084  15.288  18.000  0.00  0.00    +0.000 OA
ATOM     21  C   UNL     1       6.222  14.462  17.791  0.00  0.00    +0.000 C 
ENDBRANCH  17  20
ENDBRANCH  13  14
ENDBRANCH  10  13
ENDBRANCH   9  10
BRANCH   1  23
ATOM     22  C   UNL     1      -1.149  10.405  23.127  0.00  0.00    +0.000 C 
ATOM     23  C   UNL     1       0.207   9.721  23.143  0.00  0.00    +0.000 C 
ENDBRANCH   1  23
BRANCH   4  24
ATOM     24  O   UNL     1       2.591   6.014  20.192  0.00  0.00    +0.000 OA
BRANCH  24  25
ATOM     25  C   UNL     1       2.257   4.734  19.652  0.00  0.00    +0.000 C 
BRANCH  25  26
ATOM     26  C   UNL     1       3.473   3.806  19.692  0.00  0.00    +0.000 C 
BRANCH  26  27
ATOM     27  O   UNL     1       3.990   3.645  18.368  0.00  0.00    +0.000 OA
BRANCH  27  28
ATOM     28  C   UNL     1       4.925   4.558  17.956  0.00  0.00    +0.000 A 
ATOM     29  C   UNL     1       4.990   5.147  16.690  0.00  0.00    +0.000 A 
ATOM     30  C   UNL     1       6.000   6.068  16.392  0.00  0.00    +0.000 A 
ATOM     31  C   UNL     1       6.940   6.398  17.361  0.00  0.00    +0.000 A 
ATOM     32  F   UNL     1       7.904   7.282  17.072  0.00  0.00    +0.000 F 
ATOM     33  C   UNL     1       6.889   5.825  18.624  0.00  0.00    +0.000 A 
ATOM     34  C   UNL     1       5.881   4.903  18.920  0.00  0.00    +0.000 A 
ENDBRANCH  27  28
ENDBRANCH  26  27
ENDBRANCH  25  26
ENDBRANCH  24  25
ENDBRANCH   4  24
TORSDOF 10
ENDMDL
MODEL 6
REMARK VINA RESULT:      -7.5      3.338      8.974
REMARK  Name = 
REMARK  12 active torsions:
REMARK  status: ('A' for Active; 'I' for Inactive)
REMARK    1  A    between atoms: C_1  and  C_2
REMARK    2  A    between atoms: C_2  and  C_3
REMARK    3  A    between atoms: C_6  and  O_7
REMARK    4  A    between atoms: O_7  and  C_8
REMARK    5  A    between atoms: C_8  and  C_9
REMARK    6  A    between atoms: C_9  and  O_10
REMARK    7  A    between atoms: O_10  and  C_11
REMARK    8  A    between atoms: C_22  and  N_23
REMARK    9  A    between atoms: N_23  and  C_26
REMARK   10  A    between atoms: C_26  and  C_27
REMARK   11  A    between atoms: C_30  and  O_31
REMARK   12  A    between atoms: O_31  and  C_32
REMARK                            x       y       z     vdW  Elec       q    Type
REMARK                         _______ _______ _______ _____ _____    ______ ____
ROOT
ATOM      1  C   UNL     1       0.163  10.631  20.998  0.00  0.00    +0.000 A 
ATOM      2  N   UNL     1       0.510   9.320  21.215  0.00  0.00    +0.000 NA
ATOM      3  C   UNL     1       1.166   8.931  20.141  0.00  0.00    +0.000 A 
ATOM      4  C   UNL     1       1.797   7.680  19.825  0.00  0.00    +0.000 A 
ATOM      5  C   UNL     1       2.422   7.548  18.635  0.00  0.00    +0.000 A 
ATOM      6  C   UNL     1       2.472   8.637  17.670  0.00  0.00    +0.000 A 
ATOM      7  C   UNL     1       1.902   9.814  17.975  0.00  0.00    +0.000 A 
ATOM      8  N   UNL     1       1.252   9.962  19.203  0.00  0.00    +0.000 N 
ATOM      9  C   UNL     1       0.631  11.072  19.767  0.00  0.00    +0.000 A 
ENDROOT
BRANCH   9  10
ATOM     10  N   UNL     1       0.618  12.359  19.209  0.00  0.00    +0.000 N 
ATOM     11  C   UNL     1       1.796  13.083  19.348  0.00  0.00    +0.000 C 
ATOM     12  O   UNL     1       2.068  14.131  18.773  0.00  0.00    +0.000 OA
BRANCH  10  13
ATOM     13  C   UNL     1      -0.356  12.808  18.208  0.00  0.00    +0.000 C 
BRANCH  13  14
ATOM     14  C   UNL     1      -1.709  12.100  18.198  0.00  0.00    +0.000 A 
ATOM     15  C   UNL     1      -2.059  11.085  17.298  0.00  0.00    +0.000 A 
ATOM     16  C   UNL     1      -3.364  10.570  17.260  0.00  0.00    +0.000 A 
ATOM     17  C   UNL     1      -4.340  11.020  18.153  0.00  0.00    +0.000 A 
ATOM     18  C   UNL     1      -3.986  11.971  19.108  0.00  0.00    +0.000 A 
ATOM     19  C   UNL     1      -2.684  12.499  19.130  0.00  0.00    +0.000 A 
BRANCH  17  20
ATOM     20  O   UNL     1      -5.587  10.489  17.965  0.00  0.00    +0.000 OA
ATOM     21  C   UNL     1      -6.692  11.345  18.229  0.00  0.00    +0.000 C 
ENDBRANCH  17  20
ENDBRANCH  13  14
ENDBRANCH  10  13
ENDBRANCH   9  10
BRANCH   1  23
ATOM     22  C   UNL     1      -1.068  10.443  23.168  0.00  0.00    +0.000 C 
ATOM     23  C   UNL     1      -0.602  11.357  22.048  0.00  0.00    +0.000 C 
ENDBRANCH   1  23
BRANCH   4  24
ATOM     24  O   UNL     1       1.681   6.731  20.814  0.00  0.00    +0.000 OA
BRANCH  24  25
ATOM     25  C   UNL     1       1.392   5.377  20.463  0.00  0.00    +0.000 C 
BRANCH  25  26
ATOM     26  C   UNL     1       2.640   4.507  20.629  0.00  0.00    +0.000 C 
BRANCH  26  27
ATOM     27  O   UNL     1       2.887   3.795  19.413  0.00  0.00    +0.000 OA
BRANCH  27  28
ATOM     28  C   UNL     1       3.989   4.173  18.691  0.00  0.00    +0.000 A 
ATOM     29  C   UNL     1       4.201   3.922  17.332  0.00  0.00    +0.000 A 
ATOM     30  C   UNL     1       5.375   4.360  16.710  0.00  0.00    +0.000 A 
ATOM     31  C   UNL     1       6.331   5.048  17.446  0.00  0.00    +0.000 A 
ATOM     32  F   UNL     1       7.452   5.468  16.845  0.00  0.00    +0.000 F 
ATOM     33  C   UNL     1       6.135   5.309  18.796  0.00  0.00    +0.000 A 
ATOM     34  C   UNL     1       4.964   4.869  19.418  0.00  0.00    +0.000 A 
ENDBRANCH  27  28
ENDBRANCH  26  27
ENDBRANCH  25  26
ENDBRANCH  24  25
ENDBRANCH   4  24
TORSDOF 10
ENDMDL
MODEL 7
REMARK VINA RESULT:      -7.4      3.240      8.053
REMARK  Name = 
REMARK  12 active torsions:
REMARK  status: ('A' for Active; 'I' for Inactive)
REMARK    1  A    between atoms: C_1  and  C_2
REMARK    2  A    between atoms: C_2  and  C_3
REMARK    3  A    between atoms: C_6  and  O_7
REMARK    4  A    between atoms: O_7  and  C_8
REMARK    5  A    between atoms: C_8  and  C_9
REMARK    6  A    between atoms: C_9  and  O_10
REMARK    7  A    between atoms: O_10  and  C_11
REMARK    8  A    between atoms: C_22  and  N_23
REMARK    9  A    between atoms: N_23  and  C_26
REMARK   10  A    between atoms: C_26  and  C_27
REMARK   11  A    between atoms: C_30  and  O_31
REMARK   12  A    between atoms: O_31  and  C_32
REMARK                            x       y       z     vdW  Elec       q    Type
REMARK                         _______ _______ _______ _____ _____    ______ ____
ROOT
ATOM      1  C   UNL     1       0.413   8.573  21.256  0.00  0.00    +0.000 A 
ATOM      2  N   UNL     1       1.149   7.420  21.131  0.00  0.00    +0.000 NA
ATOM      3  C   UNL     1       1.809   7.528  19.996  0.00  0.00    +0.000 A 
ATOM      4  C   UNL     1       2.758   6.649  19.372  0.00  0.00    +0.000 A 
ATOM      5  C   UNL     1       3.303   7.012  18.190  0.00  0.00    +0.000 A 
ATOM      6  C   UNL     1       2.955   8.266  17.538  0.00  0.00    +0.000 A 
ATOM      7  C   UNL     1       2.084   9.098  18.132  0.00  0.00    +0.000 A 
ATOM      8  N   UNL     1       1.514   8.733  19.354  0.00  0.00    +0.000 N 
ATOM      9  C   UNL     1       0.635   9.425  20.182  0.00  0.00    +0.000 A 
ENDROOT
BRANCH   9  10
ATOM     10  N   UNL     1       0.198  10.741  19.973  0.00  0.00    +0.000 N 
ATOM     11  C   UNL     1      -1.007  10.869  19.293  0.00  0.00    +0.000 C 
ATOM     12  O   UNL     1      -1.662  11.899  19.179  0.00  0.00    +0.000 OA
BRANCH  10  13
ATOM     13  C   UNL     1       0.694  11.899  20.725  0.00  0.00    +0.000 C 
BRANCH  13  14
ATOM     14  C   UNL     1       1.611  12.864  19.977  0.00  0.00    +0.000 A 
ATOM     15  C   UNL     1       2.124  12.627  18.696  0.00  0.00    +0.000 A 
ATOM     16  C   UNL     1       3.066  13.495  18.121  0.00  0.00    +0.000 A 
ATOM     17  C   UNL     1       3.482  14.648  18.791  0.00  0.00    +0.000 A 
ATOM     18  C   UNL     1       2.920  14.941  20.032  0.00  0.00    +0.000 A 
ATOM     19  C   UNL     1       1.992  14.060  20.612  0.00  0.00    +0.000 A 
BRANCH  17  20
ATOM     20  O   UNL     1       4.454  15.371  18.153  0.00  0.00    +0.000 OA
ATOM     21  C   UNL     1       5.663  14.687  17.853  0.00  0.00    +0.000 C 
ENDBRANCH  17  20
ENDBRANCH  13  14
ENDBRANCH  10  13
ENDBRANCH   9  10
BRANCH   1  23
ATOM     22  C   UNL     1       0.207   9.590  23.533  0.00  0.00    +0.000 C 
ATOM     23  C   UNL     1      -0.452   8.748  22.455  0.00  0.00    +0.000 C 
ENDBRANCH   1  23
BRANCH   4  24
ATOM     24  O   UNL     1       3.003   5.498  20.083  0.00  0.00    +0.000 OA
BRANCH  24  25
ATOM     25  C   UNL     1       2.727   4.228  19.489  0.00  0.00    +0.000 C 
BRANCH  25  26
ATOM     26  C   UNL     1       3.979   3.349  19.504  0.00  0.00    +0.000 C 
BRANCH  26  27
ATOM     27  O   UNL     1       5.140   4.177  19.395  0.00  0.00    +0.000 OA
BRANCH  27  28
ATOM     28  C   UNL     1       5.710   4.279  18.153  0.00  0.00    +0.000 A 
ATOM     29  C   UNL     1       7.012   4.710  17.885  0.00  0.00    +0.000 A 
ATOM     30  C   UNL     1       7.475   4.773  16.566  0.00  0.00    +0.000 A 
ATOM     31  C   UNL     1       6.637   4.401  15.522  0.00  0.00    +0.000 A 
ATOM     32  F   UNL     1       7.086   4.460  14.261  0.00  0.00    +0.000 F 
ATOM     33  C   UNL     1       5.342   3.968  15.771  0.00  0.00    +0.000 A 
ATOM     34  C   UNL     1       4.879   3.909  17.088  0.00  0.00    +0.000 A 
ENDBRANCH  27  28
ENDBRANCH  26  27
ENDBRANCH  25  26
ENDBRANCH  24  25
ENDBRANCH   4  24
TORSDOF 10
ENDMDL
MODEL 8
REMARK VINA RESULT:      -7.4      2.264      2.672
REMARK  Name = 
REMARK  12 active torsions:
REMARK  status: ('A' for Active; 'I' for Inactive)
REMARK    1  A    between atoms: C_1  and  C_2
REMARK    2  A    between atoms: C_2  and  C_3
REMARK    3  A    between atoms: C_6  and  O_7
REMARK    4  A    between atoms: O_7  and  C_8
REMARK    5  A    between atoms: C_8  and  C_9
REMARK    6  A    between atoms: C_9  and  O_10
REMARK    7  A    between atoms: O_10  and  C_11
REMARK    8  A    between atoms: C_22  and  N_23
REMARK    9  A    between atoms: N_23  and  C_26
REMARK   10  A    between atoms: C_26  and  C_27
REMARK   11  A    between atoms: C_30  and  O_31
REMARK   12  A    between atoms: O_31  and  C_32
REMARK                            x       y       z     vdW  Elec       q    Type
REMARK                         _______ _______ _______ _____ _____    ______ ____
ROOT
ATOM      1  C   UNL     1       2.259   4.975  20.812  0.00  0.00    +0.000 A 
ATOM      2  N   UNL     1       1.819   6.191  21.276  0.00  0.00    +0.000 NA
ATOM      3  C   UNL     1       1.923   7.029  20.265  0.00  0.00    +0.000 A 
ATOM      4  C   UNL     1       1.574   8.418  20.153  0.00  0.00    +0.000 A 
ATOM      5  C   UNL     1       1.778   9.048  18.975  0.00  0.00    +0.000 A 
ATOM      6  C   UNL     1       2.339   8.358  17.823  0.00  0.00    +0.000 A 
ATOM      7  C   UNL     1       2.644   7.054  17.921  0.00  0.00    +0.000 A 
ATOM      8  N   UNL     1       2.438   6.391  19.133  0.00  0.00    +0.000 N 
ATOM      9  C   UNL     1       2.627   5.056  19.475  0.00  0.00    +0.000 A 
ENDROOT
BRANCH   9  10
ATOM     10  N   UNL     1       3.002   4.040  18.584  0.00  0.00    +0.000 N 
ATOM     11  C   UNL     1       2.082   3.757  17.581  0.00  0.00    +0.000 C 
ATOM     12  O   UNL     1       2.286   3.059  16.594  0.00  0.00    +0.000 OA
BRANCH  10  13
ATOM     13  C   UNL     1       4.380   3.567  18.412  0.00  0.00    +0.000 C 
BRANCH  13  14
ATOM     14  C   UNL     1       5.419   4.608  18.002  0.00  0.00    +0.000 A 
ATOM     15  C   UNL     1       6.536   4.950  18.775  0.00  0.00    +0.000 A 
ATOM     16  C   UNL     1       7.379   6.009  18.401  0.00  0.00    +0.000 A 
ATOM     17  C   UNL     1       7.156   6.719  17.218  0.00  0.00    +0.000 A 
ATOM     18  C   UNL     1       6.097   6.337  16.397  0.00  0.00    +0.000 A 
ATOM     19  C   UNL     1       5.244   5.290  16.785  0.00  0.00    +0.000 A 
BRANCH  17  20
ATOM     20  O   UNL     1       8.007   7.770  17.004  0.00  0.00    +0.000 OA
ATOM     21  C   UNL     1       7.797   8.932  17.795  0.00  0.00    +0.000 C 
ENDBRANCH  17  20
ENDBRANCH  13  14
ENDBRANCH  10  13
ENDBRANCH   9  10
BRANCH   1  23
ATOM     22  C   UNL     1       1.303   2.717  21.309  0.00  0.00    +0.000 C 
ATOM     23  C   UNL     1       2.265   3.811  21.739  0.00  0.00    +0.000 C 
ENDBRANCH   1  23
BRANCH   4  24
ATOM     24  O   UNL     1       1.055   8.957  21.307  0.00  0.00    +0.000 OA
BRANCH  24  25
ATOM     25  C   UNL     1      -0.273   9.482  21.306  0.00  0.00    +0.000 C 
BRANCH  25  26
ATOM     26  C   UNL     1      -0.360  10.711  22.212  0.00  0.00    +0.000 C 
BRANCH  26  27
ATOM     27  O   UNL     1      -1.696  10.841  22.708  0.00  0.00    +0.000 OA
BRANCH  27  28
ATOM     28  C   UNL     1      -2.062  12.076  23.176  0.00  0.00    +0.000 A 
ATOM     29  C   UNL     1      -3.309  12.410  23.713  0.00  0.00    +0.000 A 
ATOM     30  C   UNL     1      -3.559  13.714  24.155  0.00  0.00    +0.000 A 
ATOM     31  C   UNL     1      -2.562  14.677  24.062  0.00  0.00    +0.000 A 
ATOM     32  F   UNL     1      -2.806  15.923  24.489  0.00  0.00    +0.000 F 
ATOM     33  C   UNL     1      -1.317  14.362  23.534  0.00  0.00    +0.000 A 
ATOM     34  C   UNL     1      -1.069  13.061  23.090  0.00  0.00    +0.000 A 
ENDBRANCH  27  28
ENDBRANCH  26  27
ENDBRANCH  25  26
ENDBRANCH  24  25
ENDBRANCH   4  24
TORSDOF 10
ENDMDL
MODEL 9
REMARK VINA RESULT:      -7.4      3.501      8.575
REMARK  Name = 
REMARK  12 active torsions:
REMARK  status: ('A' for Active; 'I' for Inactive)
REMARK    1  A    between atoms: C_1  and  C_2
REMARK    2  A    between atoms: C_2  and  C_3
REMARK    3  A    between atoms: C_6  and  O_7
REMARK    4  A    between atoms: O_7  and  C_8
REMARK    5  A    between atoms: C_8  and  C_9
REMARK    6  A    between atoms: C_9  and  O_10
REMARK    7  A    between atoms: O_10  and  C_11
REMARK    8  A    between atoms: C_22  and  N_23
REMARK    9  A    between atoms: N_23  and  C_26
REMARK   10  A    between atoms: C_26  and  C_27
REMARK   11  A    between atoms: C_30  and  O_31
REMARK   12  A    between atoms: O_31  and  C_32
REMARK                            x       y       z     vdW  Elec       q    Type
REMARK                         _______ _______ _______ _____ _____    ______ ____
ROOT
ATOM      1  C   UNL     1       0.166   9.554  21.793  0.00  0.00    +0.000 A 
ATOM      2  N   UNL     1       0.896   8.421  21.527  0.00  0.00    +0.000 NA
ATOM      3  C   UNL     1       1.308   8.534  20.281  0.00  0.00    +0.000 A 
ATOM      4  C   UNL     1       2.136   7.675  19.481  0.00  0.00    +0.000 A 
ATOM      5  C   UNL     1       2.418   8.040  18.211  0.00  0.00    +0.000 A 
ATOM      6  C   UNL     1       1.906   9.275  17.636  0.00  0.00    +0.000 A 
ATOM      7  C   UNL     1       1.149  10.089  18.391  0.00  0.00    +0.000 A 
ATOM      8  N   UNL     1       0.851   9.722  19.706  0.00  0.00    +0.000 N 
ATOM      9  C   UNL     1       0.139  10.399  20.691  0.00  0.00    +0.000 A 
ENDROOT
BRANCH   9  10
ATOM     10  N   UNL     1      -0.372  11.699  20.568  0.00  0.00    +0.000 N 
ATOM     11  C   UNL     1       0.577  12.715  20.554  0.00  0.00    +0.000 C 
ATOM     12  O   UNL     1       0.370  13.886  20.260  0.00  0.00    +0.000 OA
BRANCH  10  13
ATOM     13  C   UNL     1      -1.723  12.007  20.084  0.00  0.00    +0.000 C 
BRANCH  13  14
ATOM     14  C   UNL     1      -2.144  11.365  18.765  0.00  0.00    +0.000 A 
ATOM     15  C   UNL     1      -2.827  10.146  18.666  0.00  0.00    +0.000 A 
ATOM     16  C   UNL     1      -3.067   9.549  17.419  0.00  0.00    +0.000 A 
ATOM     17  C   UNL     1      -2.675  10.179  16.235  0.00  0.00    +0.000 A 
ATOM     18  C   UNL     1      -2.066  11.430  16.311  0.00  0.00    +0.000 A 
ATOM     19  C   UNL     1      -1.810  12.015  17.563  0.00  0.00    +0.000 A 
BRANCH  17  20
ATOM     20  O   UNL     1      -2.904   9.460  15.092  0.00  0.00    +0.000 OA
ATOM     21  C   UNL     1      -3.674  10.098  14.081  0.00  0.00    +0.000 C 
ENDBRANCH  17  20
ENDBRANCH  13  14
ENDBRANCH  10  13
ENDBRANCH   9  10
BRANCH   1  23
ATOM     22  C   UNL     1      -1.343  10.937  23.232  0.00  0.00    +0.000 C 
ATOM     23  C   UNL     1      -0.442   9.718  23.142  0.00  0.00    +0.000 C 
ENDBRANCH   1  23
BRANCH   4  24
ATOM     24  O   UNL     1       2.556   6.540  20.135  0.00  0.00    +0.000 OA
BRANCH  24  25
ATOM     25  C   UNL     1       2.080   5.263  19.708  0.00  0.00    +0.000 C 
BRANCH  25  26
ATOM     26  C   UNL     1       3.226   4.436  19.123  0.00  0.00    +0.000 C 
BRANCH  26  27
ATOM     27  O   UNL     1       4.429   5.208  19.149  0.00  0.00    +0.000 OA
BRANCH  27  28
ATOM     28  C   UNL     1       5.251   5.106  18.056  0.00  0.00    +0.000 A 
ATOM     29  C   UNL     1       6.574   4.655  18.068  0.00  0.00    +0.000 A 
ATOM     30  C   UNL     1       7.310   4.600  16.880  0.00  0.00    +0.000 A 
ATOM     31  C   UNL     1       6.721   4.995  15.685  0.00  0.00    +0.000 A 
ATOM     32  F   UNL     1       7.429   4.938  14.549  0.00  0.00    +0.000 F 
ATOM     33  C   UNL     1       5.407   5.443  15.654  0.00  0.00    +0.000 A 
ATOM     34  C   UNL     1       4.673   5.500  16.842  0.00  0.00    +0.000 A 
ENDBRANCH  27  28
ENDBRANCH  26  27
ENDBRANCH  25  26
ENDBRANCH  24  25
ENDBRANCH   4  24
TORSDOF 10
ENDMDL
