MODEL 1
REMARK VINA RESULT:      -8.0      0.000      0.000
REMARK  Name = 
REMARK  8 active torsions:
REMARK  status: ('A' for Active; 'I' for Inactive)
REMARK    1  A    between atoms: C_2  and  O_3
REMARK    2  A    between atoms: C_2  and  C_4
REMARK    3  A    between atoms: C_4  and  C_5
REMARK    4  A    between atoms: C_7  and  C_8
REMARK    5  A    between atoms: C_11  and  O_12
REMARK    6  A    between atoms: O_12  and  C_13
REMARK    7  A    between atoms: C_13  and  C_14
REMARK    8  A    between atoms: C_14  and  C_15
REMARK                            x       y       z     vdW  Elec       q    Type
REMARK                         _______ _______ _______ _____ _____    ______ ____
ROOT
ATOM      1  C   UNL     1       3.046   7.203  18.206  0.00  0.00    +0.000 A 
ATOM      2  C   UNL     1       2.555   8.406  17.671  0.00  0.00    +0.000 A 
ATOM      3  C   UNL     1       1.709   9.253  18.415  0.00  0.00    +0.000 A 
ATOM      4  C   UNL     1       1.317   8.918  19.714  0.00  0.00    +0.000 A 
ATOM      5  C   UNL     1       1.794   7.724  20.255  0.00  0.00    +0.000 A 
ATOM      6  F   UNL     1       1.444   7.319  21.483  0.00  0.00    +0.000 F 
ATOM      7  C   UNL     1       2.639   6.894  19.512  0.00  0.00    +0.000 A 
ATOM      8  F   UNL     1       3.044   5.736  20.061  0.00  0.00    +0.000 F 
ENDROOT
BRANCH   1  11
ATOM      9  C   UNL     1       5.391   6.151  17.582  0.00  0.00    +0.000 C 
ATOM     10  C   UNL     1       4.781   6.603  16.282  0.00  0.00    +0.000 C 
ATOM     11  C   UNL     1       3.874   6.206  17.417  0.00  0.00    +0.000 C 
BRANCH   9  12
ATOM     12  C   UNL     1       6.035   4.795  17.756  0.00  0.00    +0.000 C 
BRANCH  12  14
ATOM     13  O   UNL     1       8.343   4.138  17.806  0.00  0.00    +0.000 OA
ATOM     14  C   UNL     1       7.394   4.528  17.141  0.00  0.00    +0.000 C 
BRANCH  14  15
ATOM     15  O   UNL     1       7.516   4.732  15.815  0.00  0.00    +0.000 OA
ATOM     16  H   UNL     1       7.810   3.957  15.305  0.00  0.00    +0.000 HD
ENDBRANCH  14  15
ENDBRANCH  12  14
ENDBRANCH   9  12
ENDBRANCH   1  11
BRANCH   4  17
ATOM     17  O   UNL     1       0.476   9.821  20.318  0.00  0.00    +0.000 OA
BRANCH  17  18
ATOM     18  C   UNL     1       1.078  11.022  20.825  0.00  0.00    +0.000 C 
BRANCH  18  19
ATOM     19  C   UNL     1       0.653  12.207  19.960  0.00  0.00    +0.000 C 
BRANCH  19  20
ATOM     20  C   UNL     1      -0.771  12.053  19.491  0.00  0.00    +0.000 A 
ATOM     21  C   UNL     1      -1.825  12.254  20.377  0.00  0.00    +0.000 A 
ATOM     22  C   UNL     1      -3.126  12.156  19.901  0.00  0.00    +0.000 A 
ATOM     23  C   UNL     1      -3.344  11.878  18.551  0.00  0.00    +0.000 A 
ATOM     24  C   UNL     1      -2.233  11.680  17.725  0.00  0.00    +0.000 A 
ATOM     25  N   UNL     1      -0.967  11.768  18.178  0.00  0.00    +0.000 NA
ATOM     26  N   UNL     1      -2.391  11.438  16.367  0.00  0.00    +0.000 N 
ATOM     27  C   UNL     1      -3.652  10.868  15.944  0.00  0.00    +0.000 C 
ATOM     28  C   UNL     1      -4.785  11.727  16.493  0.00  0.00    +0.000 C 
ATOM     29  C   UNL     1      -4.742  11.715  18.019  0.00  0.00    +0.000 C 
ATOM     30  H   UNL     1      -1.528  11.093  15.963  0.00  0.00    +0.000 HD
ENDBRANCH  19  20
ENDBRANCH  18  19
ENDBRANCH  17  18
ENDBRANCH   4  17
TORSDOF 8
ENDMDL
MODEL 2
REMARK VINA RESULT:      -8.0      4.513      9.371
REMARK  Name = 
REMARK  8 active torsions:
REMARK  status: ('A' for Active; 'I' for Inactive)
REMARK    1  A    between atoms: C_2  and  O_3
REMARK    2  A    between atoms: C_2  and  C_4
REMARK    3  A    between atoms: C_4  and  C_5
REMARK    4  A    between atoms: C_7  and  C_8
REMARK    5  A    between atoms: C_11  and  O_12
REMARK    6  A    between atoms: O_12  and  C_13
REMARK    7  A    between atoms: C_13  and  C_14
REMARK    8  A    between atoms: C_14  and  C_15
REMARK                            x       y       z     vdW  Elec       q    Type
REMARK                         _______ _______ _______ _____ _____    ______ ____
ROOT
ATOM      1  C   UNL     1       1.590   7.478  20.500  0.00  0.00    +0.000 A 
ATOM      2  C   UNL     1       1.109   6.283  21.062  0.00  0.00    +0.000 A 
ATOM      3  C   UNL     1       1.272   5.045  20.410  0.00  0.00    +0.000 A 
ATOM      4  C   UNL     1       1.910   4.961  19.169  0.00  0.00    +0.000 A 
ATOM      5  C   UNL     1       2.388   6.142  18.600  0.00  0.00    +0.000 A 
ATOM      6  F   UNL     1       2.988   6.151  17.401  0.00  0.00    +0.000 F 
ATOM      7  C   UNL     1       2.229   7.365  19.257  0.00  0.00    +0.000 A 
ATOM      8  F   UNL     1       2.673   8.480  18.652  0.00  0.00    +0.000 F 
ENDROOT
BRANCH   1  11
ATOM      9  C   UNL     1      -0.048   9.283  21.526  0.00  0.00    +0.000 C 
ATOM     10  C   UNL     1       0.648   9.962  20.377  0.00  0.00    +0.000 C 
ATOM     11  C   UNL     1       1.354   8.849  21.106  0.00  0.00    +0.000 C 
BRANCH   9  12
ATOM     12  C   UNL     1      -0.213   9.930  22.882  0.00  0.00    +0.000 C 
BRANCH  12  14
ATOM     13  O   UNL     1      -0.327  12.324  22.762  0.00  0.00    +0.000 OA
ATOM     14  C   UNL     1      -0.907  11.272  22.991  0.00  0.00    +0.000 C 
BRANCH  14  15
ATOM     15  O   UNL     1      -2.206  11.262  23.346  0.00  0.00    +0.000 OA
ATOM     16  H   UNL     1      -2.829  11.073  22.622  0.00  0.00    +0.000 HD
ENDBRANCH  14  15
ENDBRANCH  12  14
ENDBRANCH   9  12
ENDBRANCH   1  11
BRANCH   4  17
ATOM     17  O   UNL     1       1.985   3.698  18.637  0.00  0.00    +0.000 OA
BRANCH  17  18
ATOM     18  C   UNL     1       2.424   2.653  19.517  0.00  0.00    +0.000 C 
BRANCH  18  19
ATOM     19  C   UNL     1       3.700   2.023  18.962  0.00  0.00    +0.000 C 
BRANCH  19  20
ATOM     20  C   UNL     1       4.594   3.067  18.342  0.00  0.00    +0.000 A 
ATOM     21  C   UNL     1       4.553   3.296  16.970  0.00  0.00    +0.000 A 
ATOM     22  C   UNL     1       5.350   4.300  16.437  0.00  0.00    +0.000 A 
ATOM     23  C   UNL     1       6.155   5.062  17.286  0.00  0.00    +0.000 A 
ATOM     24  C   UNL     1       6.148   4.764  18.652  0.00  0.00    +0.000 A 
ATOM     25  N   UNL     1       5.381   3.789  19.179  0.00  0.00    +0.000 NA
ATOM     26  N   UNL     1       6.899   5.515  19.547  0.00  0.00    +0.000 N 
ATOM     27  C   UNL     1       8.055   6.205  19.016  0.00  0.00    +0.000 C 
ATOM     28  C   UNL     1       7.618   7.040  17.817  0.00  0.00    +0.000 C 
ATOM     29  C   UNL     1       7.067   6.121  16.729  0.00  0.00    +0.000 C 
ATOM     30  H   UNL     1       6.968   5.041  20.439  0.00  0.00    +0.000 HD
ENDBRANCH  19  20
ENDBRANCH  18  19
ENDBRANCH  17  18
ENDBRANCH   4  17
TORSDOF 8
ENDMDL
MODEL 3
REMARK VINA RESULT:      -8.0      6.556      9.323
REMARK  Name = 
REMARK  8 active torsions:
REMARK  status: ('A' for Active; 'I' for Inactive)
REMARK    1  A    between atoms: C_2  and  O_3
REMARK    2  A    between atoms: C_2  and  C_4
REMARK    3  A    between atoms: C_4  and  C_5
REMARK    4  A    between atoms: C_7  and  C_8
REMARK    5  A    between atoms: C_11  and  O_12
REMARK    6  A    between atoms: O_12  and  C_13
REMARK    7  A    between atoms: C_13  and  C_14
REMARK    8  A    between atoms: C_14  and  C_15
REMARK                            x       y       z     vdW  Elec       q    Type
REMARK                         _______ _______ _______ _____ _____    ______ ____
ROOT
ATOM      1  C   UNL     1       4.739   5.481  18.037  0.00  0.00    +0.000 A 
ATOM      2  C   UNL     1       4.701   6.505  17.074  0.00  0.00    +0.000 A 
ATOM      3  C   UNL     1       5.827   7.309  16.809  0.00  0.00    +0.000 A 
ATOM      4  C   UNL     1       7.025   7.124  17.505  0.00  0.00    +0.000 A 
ATOM      5  C   UNL     1       7.074   6.114  18.466  0.00  0.00    +0.000 A 
ATOM      6  F   UNL     1       8.175   5.890  19.196  0.00  0.00    +0.000 F 
ATOM      7  C   UNL     1       5.954   5.316  18.718  0.00  0.00    +0.000 A 
ATOM      8  F   UNL     1       6.037   4.380  19.678  0.00  0.00    +0.000 F 
ENDROOT
BRANCH   1  11
ATOM      9  C   UNL     1       2.889   3.686  17.445  0.00  0.00    +0.000 C 
ATOM     10  C   UNL     1       2.144   4.911  17.904  0.00  0.00    +0.000 C 
ATOM     11  C   UNL     1       3.530   4.654  18.436  0.00  0.00    +0.000 C 
BRANCH   9  12
ATOM     12  C   UNL     1       2.555   2.294  17.931  0.00  0.00    +0.000 C 
BRANCH  12  14
ATOM     13  O   UNL     1       1.560   2.175  20.112  0.00  0.00    +0.000 OA
ATOM     14  C   UNL     1       1.408   2.096  18.901  0.00  0.00    +0.000 C 
BRANCH  14  15
ATOM     15  O   UNL     1       0.198   1.835  18.372  0.00  0.00    +0.000 OA
ATOM     16  H   UNL     1      -0.107   2.473  17.704  0.00  0.00    +0.000 HD
ENDBRANCH  14  15
ENDBRANCH  12  14
ENDBRANCH   9  12
ENDBRANCH   1  11
BRANCH   4  17
ATOM     17  O   UNL     1       8.036   7.987  17.162  0.00  0.00    +0.000 OA
BRANCH  17  18
ATOM     18  C   UNL     1       7.982   9.303  17.734  0.00  0.00    +0.000 C 
BRANCH  18  19
ATOM     19  C   UNL     1       9.006   9.410  18.862  0.00  0.00    +0.000 C 
BRANCH  19  20
ATOM     20  C   UNL     1       9.536  10.816  18.982  0.00  0.00    +0.000 A 
ATOM     21  C   UNL     1      10.220  11.397  17.919  0.00  0.00    +0.000 A 
ATOM     22  C   UNL     1      10.650  12.711  18.041  0.00  0.00    +0.000 A 
ATOM     23  C   UNL     1      10.371  13.420  19.211  0.00  0.00    +0.000 A 
ATOM     24  C   UNL     1       9.686  12.763  20.237  0.00  0.00    +0.000 A 
ATOM     25  N   UNL     1       9.269  11.486  20.131  0.00  0.00    +0.000 NA
ATOM     26  N   UNL     1       9.348  13.431  21.407  0.00  0.00    +0.000 N 
ATOM     27  C   UNL     1      10.156  14.578  21.765  0.00  0.00    +0.000 C 
ATOM     28  C   UNL     1      10.208  15.529  20.575  0.00  0.00    +0.000 C 
ATOM     29  C   UNL     1      10.869  14.828  19.389  0.00  0.00    +0.000 C 
ATOM     30  H   UNL     1       9.071  12.773  22.126  0.00  0.00    +0.000 HD
ENDBRANCH  19  20
ENDBRANCH  18  19
ENDBRANCH  17  18
ENDBRANCH   4  17
TORSDOF 8
ENDMDL
MODEL 4
REMARK VINA RESULT:      -7.9      6.557      9.282
REMARK  Name = 
REMARK  8 active torsions:
REMARK  status: ('A' for Active; 'I' for Inactive)
REMARK    1  A    between atoms: C_2  and  O_3
REMARK    2  A    between atoms: C_2  and  C_4
REMARK    3  A    between atoms: C_4  and  C_5
REMARK    4  A    between atoms: C_7  and  C_8
REMARK    5  A    between atoms: C_11  and  O_12
REMARK    6  A    between atoms: O_12  and  C_13
REMARK    7  A    between atoms: C_13  and  C_14
REMARK    8  A    between atoms: C_14  and  C_15
REMARK                            x       y       z     vdW  Elec       q    Type
REMARK                         _______ _______ _______ _____ _____    ______ ____
ROOT
ATOM      1  C   UNL     1       4.779   5.537  18.117  0.00  0.00    +0.000 A 
ATOM      2  C   UNL     1       4.828   6.638  17.244  0.00  0.00    +0.000 A 
ATOM      3  C   UNL     1       6.003   7.399  17.084  0.00  0.00    +0.000 A 
ATOM      4  C   UNL     1       7.165   7.091  17.799  0.00  0.00    +0.000 A 
ATOM      5  C   UNL     1       7.126   6.004  18.672  0.00  0.00    +0.000 A 
ATOM      6  F   UNL     1       8.188   5.660  19.414  0.00  0.00    +0.000 F 
ATOM      7  C   UNL     1       5.958   5.250  18.819  0.00  0.00    +0.000 A 
ATOM      8  F   UNL     1       5.958   4.234  19.698  0.00  0.00    +0.000 F 
ENDROOT
BRANCH   1  11
ATOM      9  C   UNL     1       3.145   3.534  17.556  0.00  0.00    +0.000 C 
ATOM     10  C   UNL     1       2.301   4.780  17.515  0.00  0.00    +0.000 C 
ATOM     11  C   UNL     1       3.516   4.747  18.405  0.00  0.00    +0.000 C 
BRANCH   9  12
ATOM     12  C   UNL     1       2.713   2.275  18.270  0.00  0.00    +0.000 C 
BRANCH  12  14
ATOM     13  O   UNL     1       0.336   2.134  18.571  0.00  0.00    +0.000 OA
ATOM     14  C   UNL     1       1.436   2.279  19.085  0.00  0.00    +0.000 C 
BRANCH  14  15
ATOM     15  O   UNL     1       1.560   2.441  20.416  0.00  0.00    +0.000 OA
ATOM     16  H   UNL     1       1.205   1.712  20.955  0.00  0.00    +0.000 HD
ENDBRANCH  14  15
ENDBRANCH  12  14
ENDBRANCH   9  12
ENDBRANCH   1  11
BRANCH   4  17
ATOM     17  O   UNL     1       8.231   7.924  17.563  0.00  0.00    +0.000 OA
BRANCH  17  18
ATOM     18  C   UNL     1       8.011   9.327  17.772  0.00  0.00    +0.000 C 
BRANCH  18  19
ATOM     19  C   UNL     1       8.954   9.833  18.862  0.00  0.00    +0.000 C 
BRANCH  19  20
ATOM     20  C   UNL     1       9.649  11.100  18.434  0.00  0.00    +0.000 A 
ATOM     21  C   UNL     1      10.993  11.073  18.075  0.00  0.00    +0.000 A 
ATOM     22  C   UNL     1      11.590  12.246  17.634  0.00  0.00    +0.000 A 
ATOM     23  C   UNL     1      10.829  13.413  17.544  0.00  0.00    +0.000 A 
ATOM     24  C   UNL     1       9.487  13.361  17.932  0.00  0.00    +0.000 A 
ATOM     25  N   UNL     1       8.899  12.229  18.366  0.00  0.00    +0.000 NA
ATOM     26  N   UNL     1       8.673  14.482  17.827  0.00  0.00    +0.000 N 
ATOM     27  C   UNL     1       9.329  15.772  17.845  0.00  0.00    +0.000 C 
ATOM     28  C   UNL     1      10.425  15.778  16.785  0.00  0.00    +0.000 C 
ATOM     29  C   UNL     1      11.463  14.709  17.119  0.00  0.00    +0.000 C 
ATOM     30  H   UNL     1       7.817  14.351  18.352  0.00  0.00    +0.000 HD
ENDBRANCH  19  20
ENDBRANCH  18  19
ENDBRANCH  17  18
ENDBRANCH   4  17
TORSDOF 8
ENDMDL
MODEL 5
REMARK VINA RESULT:      -7.9      6.497      9.052
REMARK  Name = 
REMARK  8 active torsions:
REMARK  status: ('A' for Active; 'I' for Inactive)
REMARK    1  A    between atoms: C_2  and  O_3
REMARK    2  A    between atoms: C_2  and  C_4
REMARK    3  A    between atoms: C_4  and  C_5
REMARK    4  A    between atoms: C_7  and  C_8
REMARK    5  A    between atoms: C_11  and  O_12
REMARK    6  A    between atoms: O_12  and  C_13
REMARK    7  A    between atoms: C_13  and  C_14
REMARK    8  A    between atoms: C_14  and  C_15
REMARK                            x       y       z     vdW  Elec       q    Type
REMARK                         _______ _______ _______ _____ _____    ______ ____
ROOT
ATOM      1  C   UNL     1       4.065   5.324  18.213  0.00  0.00    +0.000 A 
ATOM      2  C   UNL     1       4.168   6.288  17.195  0.00  0.00    +0.000 A 
ATOM      3  C   UNL     1       5.398   6.898  16.879  0.00  0.00    +0.000 A 
ATOM      4  C   UNL     1       6.564   6.573  17.579  0.00  0.00    +0.000 A 
ATOM      5  C   UNL     1       6.474   5.622  18.594  0.00  0.00    +0.000 A 
ATOM      6  F   UNL     1       7.539   5.275  19.330  0.00  0.00    +0.000 F 
ATOM      7  C   UNL     1       5.251   5.017  18.896  0.00  0.00    +0.000 A 
ATOM      8  F   UNL     1       5.205   4.132  19.907  0.00  0.00    +0.000 F 
ENDROOT
BRANCH   1  11
ATOM      9  C   UNL     1       2.574   3.196  18.706  0.00  0.00    +0.000 C 
ATOM     10  C   UNL     1       1.796   4.027  17.722  0.00  0.00    +0.000 C 
ATOM     11  C   UNL     1       2.752   4.711  18.663  0.00  0.00    +0.000 C 
BRANCH   9  12
ATOM     12  C   UNL     1       1.950   2.591  19.942  0.00  0.00    +0.000 C 
BRANCH  12  14
ATOM     13  O   UNL     1       3.724   2.017  21.453  0.00  0.00    +0.000 OA
ATOM     14  C   UNL     1       2.694   2.648  21.260  0.00  0.00    +0.000 C 
BRANCH  14  15
ATOM     15  O   UNL     1       2.177   3.438  22.221  0.00  0.00    +0.000 OA
ATOM     16  H   UNL     1       2.825   3.797  22.851  0.00  0.00    +0.000 HD
ENDBRANCH  14  15
ENDBRANCH  12  14
ENDBRANCH   9  12
ENDBRANCH   1  11
BRANCH   4  17
ATOM     17  O   UNL     1       7.689   7.255  17.183  0.00  0.00    +0.000 OA
BRANCH  17  18
ATOM     18  C   UNL     1       8.209   8.228  18.101  0.00  0.00    +0.000 C 
BRANCH  18  19
ATOM     19  C   UNL     1       8.166   9.611  17.454  0.00  0.00    +0.000 C 
BRANCH  19  20
ATOM     20  C   UNL     1       8.812  10.645  18.342  0.00  0.00    +0.000 A 
ATOM     21  C   UNL     1       9.310  10.282  19.588  0.00  0.00    +0.000 A 
ATOM     22  C   UNL     1       9.946  11.245  20.360  0.00  0.00    +0.000 A 
ATOM     23  C   UNL     1      10.085  12.542  19.862  0.00  0.00    +0.000 A 
ATOM     24  C   UNL     1       9.549  12.831  18.604  0.00  0.00    +0.000 A 
ATOM     25  N   UNL     1       8.926  11.904  17.849  0.00  0.00    +0.000 NA
ATOM     26  N   UNL     1       9.692  14.093  18.044  0.00  0.00    +0.000 N 
ATOM     27  C   UNL     1       9.895  15.198  18.957  0.00  0.00    +0.000 C 
ATOM     28  C   UNL     1      11.062  14.861  19.879  0.00  0.00    +0.000 C 
ATOM     29  C   UNL     1      10.723  13.618  20.698  0.00  0.00    +0.000 C 
ATOM     30  H   UNL     1       9.065  14.207  17.256  0.00  0.00    +0.000 HD
ENDBRANCH  19  20
ENDBRANCH  18  19
ENDBRANCH  17  18
ENDBRANCH   4  17
TORSDOF 8
ENDMDL
MODEL 6
REMARK VINA RESULT:      -7.9      1.627      2.346
REMARK  Name = 
REMARK  8 active torsions:
REMARK  status: ('A' for Active; 'I' for Inactive)
REMARK    1  A    between atoms: C_2  and  O_3
REMARK    2  A    between atoms: C_2  and  C_4
REMARK    3  A    between atoms: C_4  and  C_5
REMARK    4  A    between atoms: C_7  and  C_8
REMARK    5  A    between atoms: C_11  and  O_12
REMARK    6  A    between atoms: O_12  and  C_13
REMARK    7  A    between atoms: C_13  and  C_14
REMARK    8  A    between atoms: C_14  and  C_15
REMARK                            x       y       z     vdW  Elec       q    Type
REMARK                         _______ _______ _______ _____ _____    ______ ____
ROOT
ATOM      1  C   UNL     1       3.859   5.689  18.277  0.00  0.00    +0.000 A 
ATOM      2  C   UNL     1       3.777   6.885  17.542  0.00  0.00    +0.000 A 
ATOM      3  C   UNL     1       2.948   7.947  17.954  0.00  0.00    +0.000 A 
ATOM      4  C   UNL     1       2.165   7.845  19.108  0.00  0.00    +0.000 A 
ATOM      5  C   UNL     1       2.235   6.661  19.843  0.00  0.00    +0.000 A 
ATOM      6  F   UNL     1       1.496   6.473  20.945  0.00  0.00    +0.000 F 
ATOM      7  C   UNL     1       3.065   5.615  19.430  0.00  0.00    +0.000 A 
ATOM      8  F   UNL     1       3.072   4.480  20.150  0.00  0.00    +0.000 F 
ENDROOT
BRANCH   1  11
ATOM      9  C   UNL     1       4.750   4.115  16.347  0.00  0.00    +0.000 C 
ATOM     10  C   UNL     1       4.012   3.218  17.304  0.00  0.00    +0.000 C 
ATOM     11  C   UNL     1       4.654   4.477  17.827  0.00  0.00    +0.000 C 
BRANCH   9  12
ATOM     12  C   UNL     1       6.113   3.774  15.789  0.00  0.00    +0.000 C 
BRANCH  12  14
ATOM     13  O   UNL     1       7.457   5.707  15.323  0.00  0.00    +0.000 OA
ATOM     14  C   UNL     1       6.818   4.761  14.882  0.00  0.00    +0.000 C 
BRANCH  14  15
ATOM     15  O   UNL     1       6.722   4.551  13.556  0.00  0.00    +0.000 OA
ATOM     16  H   UNL     1       7.552   4.291  13.119  0.00  0.00    +0.000 HD
ENDBRANCH  14  15
ENDBRANCH  12  14
ENDBRANCH   9  12
ENDBRANCH   1  11
BRANCH   4  17
ATOM     17  O   UNL     1       1.390   8.944  19.384  0.00  0.00    +0.000 OA
BRANCH  17  18
ATOM     18  C   UNL     1       1.000   9.755  18.265  0.00  0.00    +0.000 C 
BRANCH  18  19
ATOM     19  C   UNL     1       0.310  11.020  18.770  0.00  0.00    +0.000 C 
BRANCH  19  20
ATOM     20  C   UNL     1      -1.162  11.001  18.446  0.00  0.00    +0.000 A 
ATOM     21  C   UNL     1      -1.659  10.103  17.508  0.00  0.00    +0.000 A 
ATOM     22  C   UNL     1      -3.027  10.074  17.270  0.00  0.00    +0.000 A 
ATOM     23  C   UNL     1      -3.867  10.927  17.987  0.00  0.00    +0.000 A 
ATOM     24  C   UNL     1      -3.290  11.808  18.907  0.00  0.00    +0.000 A 
ATOM     25  N   UNL     1      -1.964  11.848  19.141  0.00  0.00    +0.000 NA
ATOM     26  N   UNL     1      -4.081  12.652  19.675  0.00  0.00    +0.000 N 
ATOM     27  C   UNL     1      -5.384  12.993  19.145  0.00  0.00    +0.000 C 
ATOM     28  C   UNL     1      -6.121  11.706  18.793  0.00  0.00    +0.000 C 
ATOM     29  C   UNL     1      -5.347  10.953  17.713  0.00  0.00    +0.000 C 
ATOM     30  H   UNL     1      -3.517  13.372  20.110  0.00  0.00    +0.000 HD
ENDBRANCH  19  20
ENDBRANCH  18  19
ENDBRANCH  17  18
ENDBRANCH   4  17
TORSDOF 8
ENDMDL
MODEL 7
REMARK VINA RESULT:      -7.9      6.679      8.776
REMARK  Name = 
REMARK  8 active torsions:
REMARK  status: ('A' for Active; 'I' for Inactive)
REMARK    1  A    between atoms: C_2  and  O_3
REMARK    2  A    between atoms: C_2  and  C_4
REMARK    3  A    between atoms: C_4  and  C_5
REMARK    4  A    between atoms: C_7  and  C_8
REMARK    5  A    between atoms: C_11  and  O_12
REMARK    6  A    between atoms: O_12  and  C_13
REMARK    7  A    between atoms: C_13  and  C_14
REMARK    8  A    between atoms: C_14  and  C_15
REMARK                            x       y       z     vdW  Elec       q    Type
REMARK                         _______ _______ _______ _____ _____    ______ ____
ROOT
ATOM      1  C   UNL     1       4.343   5.265  17.746  0.00  0.00    +0.000 A 
ATOM      2  C   UNL     1       4.591   6.067  16.618  0.00  0.00    +0.000 A 
ATOM      3  C   UNL     1       5.794   6.786  16.475  0.00  0.00    +0.000 A 
ATOM      4  C   UNL     1       6.784   6.738  17.461  0.00  0.00    +0.000 A 
ATOM      5  C   UNL     1       6.548   5.949  18.587  0.00  0.00    +0.000 A 
ATOM      6  F   UNL     1       7.434   5.870  19.589  0.00  0.00    +0.000 F 
ATOM      7  C   UNL     1       5.354   5.233  18.717  0.00  0.00    +0.000 A 
ATOM      8  F   UNL     1       5.156   4.516  19.836  0.00  0.00    +0.000 F 
ENDROOT
BRANCH   1  11
ATOM      9  C   UNL     1       2.999   3.205  18.717  0.00  0.00    +0.000 C 
ATOM     10  C   UNL     1       2.611   3.305  17.265  0.00  0.00    +0.000 C 
ATOM     11  C   UNL     1       3.028   4.552  18.000  0.00  0.00    +0.000 C 
BRANCH   9  12
ATOM     12  C   UNL     1       1.987   3.013  19.823  0.00  0.00    +0.000 C 
BRANCH  12  14
ATOM     13  O   UNL     1       2.519   2.626  22.131  0.00  0.00    +0.000 OA
ATOM     14  C   UNL     1       2.335   3.438  21.235  0.00  0.00    +0.000 C 
BRANCH  14  15
ATOM     15  O   UNL     1       2.443   4.760  21.468  0.00  0.00    +0.000 OA
ATOM     16  H   UNL     1       1.599   5.224  21.605  0.00  0.00    +0.000 HD
ENDBRANCH  14  15
ENDBRANCH  12  14
ENDBRANCH   9  12
ENDBRANCH   1  11
BRANCH   4  17
ATOM     17  O   UNL     1       7.897   7.500  17.205  0.00  0.00    +0.000 OA
BRANCH  17  18
ATOM     18  C   UNL     1       7.854   8.869  17.636  0.00  0.00    +0.000 C 
BRANCH  18  19
ATOM     19  C   UNL     1       8.896   9.091  18.730  0.00  0.00    +0.000 C 
BRANCH  19  20
ATOM     20  C   UNL     1       9.241  10.553  18.861  0.00  0.00    +0.000 A 
ATOM     21  C   UNL     1      10.300  10.951  19.670  0.00  0.00    +0.000 A 
ATOM     22  C   UNL     1      10.626  12.299  19.729  0.00  0.00    +0.000 A 
ATOM     23  C   UNL     1       9.900  13.215  18.965  0.00  0.00    +0.000 A 
ATOM     24  C   UNL     1       8.844  12.738  18.183  0.00  0.00    +0.000 A 
ATOM     25  N   UNL     1       8.516  11.432  18.123  0.00  0.00    +0.000 NA
ATOM     26  N   UNL     1       8.113  13.599  17.375  0.00  0.00    +0.000 N 
ATOM     27  C   UNL     1       8.090  14.996  17.755  0.00  0.00    +0.000 C 
ATOM     28  C   UNL     1       9.526  15.478  17.928  0.00  0.00    +0.000 C 
ATOM     29  C   UNL     1      10.198  14.688  19.049  0.00  0.00    +0.000 C 
ATOM     30  H   UNL     1       7.258  13.154  17.061  0.00  0.00    +0.000 HD
ENDBRANCH  19  20
ENDBRANCH  18  19
ENDBRANCH  17  18
ENDBRANCH   4  17
TORSDOF 8
ENDMDL
MODEL 8
REMARK VINA RESULT:      -7.8      4.145      8.956
REMARK  Name = 
REMARK  8 active torsions:
REMARK  status: ('A' for Active; 'I' for Inactive)
REMARK    1  A    between atoms: C_2  and  O_3
REMARK    2  A    between atoms: C_2  and  C_4
REMARK    3  A    between atoms: C_4  and  C_5
REMARK    4  A    between atoms: C_7  and  C_8
REMARK    5  A    between atoms: C_11  and  O_12
REMARK    6  A    between atoms: O_12  and  C_13
REMARK    7  A    between atoms: C_13  and  C_14
REMARK    8  A    between atoms: C_14  and  C_15
REMARK                            x       y       z     vdW  Elec       q    Type
REMARK                         _______ _______ _______ _____ _____    ______ ____
ROOT
ATOM      1  C   UNL     1       1.867   6.748  18.969  0.00  0.00    +0.000 A 
ATOM      2  C   UNL     1       1.829   5.981  17.791  0.00  0.00    +0.000 A 
ATOM      3  C   UNL     1       1.639   4.585  17.827  0.00  0.00    +0.000 A 
ATOM      4  C   UNL     1       1.491   3.908  19.041  0.00  0.00    +0.000 A 
ATOM      5  C   UNL     1       1.531   4.658  20.216  0.00  0.00    +0.000 A 
ATOM      6  F   UNL     1       1.425   4.081  21.421  0.00  0.00    +0.000 F 
ATOM      7  C   UNL     1       1.714   6.043  20.172  0.00  0.00    +0.000 A 
ATOM      8  F   UNL     1       1.782   6.718  21.332  0.00  0.00    +0.000 F 
ENDROOT
BRANCH   1  11
ATOM      9  C   UNL     1       1.070   9.258  18.732  0.00  0.00    +0.000 C 
ATOM     10  C   UNL     1       2.207   9.091  17.759  0.00  0.00    +0.000 C 
ATOM     11  C   UNL     1       2.170   8.234  18.997  0.00  0.00    +0.000 C 
BRANCH   9  12
ATOM     12  C   UNL     1       0.960  10.439  19.669  0.00  0.00    +0.000 C 
BRANCH  12  14
ATOM     13  O   UNL     1      -1.092  11.211  20.644  0.00  0.00    +0.000 OA
ATOM     14  C   UNL     1      -0.317  11.253  19.699  0.00  0.00    +0.000 C 
BRANCH  14  15
ATOM     15  O   UNL     1      -0.566  12.041  18.636  0.00  0.00    +0.000 OA
ATOM     16  H   UNL     1       0.055  11.940  17.894  0.00  0.00    +0.000 HD
ENDBRANCH  14  15
ENDBRANCH  12  14
ENDBRANCH   9  12
ENDBRANCH   1  11
BRANCH   4  17
ATOM     17  O   UNL     1       1.332   2.548  18.932  0.00  0.00    +0.000 OA
BRANCH  17  18
ATOM     18  C   UNL     1       2.374   1.829  18.255  0.00  0.00    +0.000 C 
BRANCH  18  19
ATOM     19  C   UNL     1       3.682   1.982  19.028  0.00  0.00    +0.000 C 
BRANCH  19  20
ATOM     20  C   UNL     1       4.566   3.027  18.396  0.00  0.00    +0.000 A 
ATOM     21  C   UNL     1       4.499   3.264  17.027  0.00  0.00    +0.000 A 
ATOM     22  C   UNL     1       5.288   4.269  16.484  0.00  0.00    +0.000 A 
ATOM     23  C   UNL     1       6.110   5.025  17.321  0.00  0.00    +0.000 A 
ATOM     24  C   UNL     1       6.129   4.720  18.685  0.00  0.00    +0.000 A 
ATOM     25  N   UNL     1       5.371   3.743  19.222  0.00  0.00    +0.000 NA
ATOM     26  N   UNL     1       6.898   5.465  19.569  0.00  0.00    +0.000 N 
ATOM     27  C   UNL     1       8.045   6.156  19.020  0.00  0.00    +0.000 C 
ATOM     28  C   UNL     1       7.587   6.998  17.835  0.00  0.00    +0.000 C 
ATOM     29  C   UNL     1       7.013   6.086  16.752  0.00  0.00    +0.000 C 
ATOM     30  H   UNL     1       6.984   4.986  20.458  0.00  0.00    +0.000 HD
ENDBRANCH  19  20
ENDBRANCH  18  19
ENDBRANCH  17  18
ENDBRANCH   4  17
TORSDOF 8
ENDMDL
MODEL 9
REMARK VINA RESULT:      -7.7      4.365      8.936
REMARK  Name = 
REMARK  8 active torsions:
REMARK  status: ('A' for Active; 'I' for Inactive)
REMARK    1  A    between atoms: C_2  and  O_3
REMARK    2  A    between atoms: C_2  and  C_4
REMARK    3  A    between atoms: C_4  and  C_5
REMARK    4  A    between atoms: C_7  and  C_8
REMARK    5  A    between atoms: C_11  and  O_12
REMARK    6  A    between atoms: O_12  and  C_13
REMARK    7  A    between atoms: C_13  and  C_14
REMARK    8  A    between atoms: C_14  and  C_15
REMARK                            x       y       z     vdW  Elec       q    Type
REMARK                         _______ _______ _______ _____ _____    ______ ____
ROOT
ATOM      1  C   UNL     1       1.976   7.165  18.967  0.00  0.00    +0.000 A 
ATOM      2  C   UNL     1       2.026   6.379  17.802  0.00  0.00    +0.000 A 
ATOM      3  C   UNL     1       1.943   4.974  17.857  0.00  0.00    +0.000 A 
ATOM      4  C   UNL     1       1.818   4.306  19.079  0.00  0.00    +0.000 A 
ATOM      5  C   UNL     1       1.772   5.075  20.242  0.00  0.00    +0.000 A 
ATOM      6  F   UNL     1       1.681   4.511  21.454  0.00  0.00    +0.000 F 
ATOM      7  C   UNL     1       1.848   6.469  20.177  0.00  0.00    +0.000 A 
ATOM      8  F   UNL     1       1.836   7.165  21.327  0.00  0.00    +0.000 F 
ENDROOT
BRANCH   1  11
ATOM      9  C   UNL     1       0.957   9.605  18.936  0.00  0.00    +0.000 C 
ATOM     10  C   UNL     1       1.910   9.540  17.772  0.00  0.00    +0.000 C 
ATOM     11  C   UNL     1       2.164   8.671  18.976  0.00  0.00    +0.000 C 
BRANCH   9  12
ATOM     12  C   UNL     1       0.927  10.764  19.905  0.00  0.00    +0.000 C 
BRANCH  12  14
ATOM     13  O   UNL     1      -0.207   9.520  21.616  0.00  0.00    +0.000 OA
ATOM     14  C   UNL     1       0.293  10.581  21.269  0.00  0.00    +0.000 C 
BRANCH  14  15
ATOM     15  O   UNL     1       0.309  11.641  22.099  0.00  0.00    +0.000 OA
ATOM     16  H   UNL     1      -0.388  12.301  21.938  0.00  0.00    +0.000 HD
ENDBRANCH  14  15
ENDBRANCH  12  14
ENDBRANCH   9  12
ENDBRANCH   1  11
BRANCH   4  17
ATOM     17  O   UNL     1       1.767   2.937  18.991  0.00  0.00    +0.000 OA
BRANCH  17  18
ATOM     18  C   UNL     1       2.974   2.225  19.303  0.00  0.00    +0.000 C 
BRANCH  18  19
ATOM     19  C   UNL     1       3.744   1.941  18.016  0.00  0.00    +0.000 C 
BRANCH  19  20
ATOM     20  C   UNL     1       4.684   3.072  17.686  0.00  0.00    +0.000 A 
ATOM     21  C   UNL     1       4.767   3.553  16.383  0.00  0.00    +0.000 A 
ATOM     22  C   UNL     1       5.603   4.631  16.121  0.00  0.00    +0.000 A 
ATOM     23  C   UNL     1       6.321   5.213  17.167  0.00  0.00    +0.000 A 
ATOM     24  C   UNL     1       6.192   4.666  18.447  0.00  0.00    +0.000 A 
ATOM     25  N   UNL     1       5.387   3.617  18.711  0.00  0.00    +0.000 NA
ATOM     26  N   UNL     1       6.853   5.228  19.530  0.00  0.00    +0.000 N 
ATOM     27  C   UNL     1       8.049   5.993  19.245  0.00  0.00    +0.000 C 
ATOM     28  C   UNL     1       7.717   7.041  18.189  0.00  0.00    +0.000 C 
ATOM     29  C   UNL     1       7.273   6.348  16.902  0.00  0.00    +0.000 C 
ATOM     30  H   UNL     1       6.845   4.595  20.322  0.00  0.00    +0.000 HD
ENDBRANCH  19  20
ENDBRANCH  18  19
ENDBRANCH  17  18
ENDBRANCH   4  17
TORSDOF 8
ENDMDL
