MODEL 1
REMARK VINA RESULT:      -6.9      0.000      0.000
REMARK  Name = 
REMARK  8 active torsions:
REMARK  status: ('A' for Active; 'I' for Inactive)
REMARK    1  A    between atoms: C_1  and  C_2
REMARK    2  A    between atoms: C_2  and  O_3
REMARK    3  A    between atoms: O_3  and  P_4
REMARK    4  A    between atoms: P_4  and  O_6
REMARK    5  A    between atoms: P_4  and  C_9
REMARK    6  A    between atoms: O_6  and  C_7
REMARK    7  A    between atoms: C_7  and  C_8
REMARK    8  A    between atoms: C_12  and  C_13
REMARK                            x       y       z     vdW  Elec       q    Type
REMARK                         _______ _______ _______ _____ _____    ______ ____
ROOT
ATOM      1  C   UNL     1       2.502   6.850  19.108  0.00  0.00    +0.000 A 
ATOM      2  C   UNL     1       2.579   7.640  17.957  0.00  0.00    +0.000 A 
ATOM      3  C   UNL     1       2.031   8.925  17.950  0.00  0.00    +0.000 A 
ATOM      4  C   UNL     1       1.406   9.440  19.094  0.00  0.00    +0.000 A 
ATOM      5  C   UNL     1       1.311   8.655  20.242  0.00  0.00    +0.000 A 
ATOM      6  C   UNL     1       1.854   7.367  20.248  0.00  0.00    +0.000 A 
ENDROOT
BRANCH   4   7
ATOM      7  C   UNL     1       0.889  10.810  19.078  0.00  0.00    +0.000 C 
ATOM      8  C   UNL     1      -0.336  11.159  18.659  0.00  0.00    +0.000 C 
ATOM      9  S   UNL     1      -1.570  10.082  18.096  0.00  0.00    +0.000 S 
ATOM     10  C   UNL     1      -2.468  11.371  17.338  0.00  0.00    +0.000 C 
ATOM     11  O   UNL     1      -3.391  11.218  16.566  0.00  0.00    +0.000 OA
ATOM     12  N   UNL     1      -1.943  12.571  17.722  0.00  0.00    +0.000 N 
ATOM     13  C   UNL     1      -0.787  12.570  18.465  0.00  0.00    +0.000 C 
ATOM     14  S   UNL     1      -0.090  14.003  18.953  0.00  0.00    +0.000 S 
ATOM     15  H   UNL     1      -2.346  13.426  17.376  0.00  0.00    +0.000 HD
ENDBRANCH   4   7
BRANCH   1  16
ATOM     16  P   UNL     1       3.286   5.207  19.292  0.00  0.00    +0.000 P 
ATOM     17  O   UNL     1       2.574   4.754  18.003  0.00  0.00    +0.000 OA
BRANCH  16  18
ATOM     18  O   UNL     1       4.028   3.653  19.466  0.00  0.00    +0.000 OA
BRANCH  18  20
ATOM     19  C   UNL     1       3.542   1.475  18.553  0.00  0.00    +0.000 C 
ATOM     20  C   UNL     1       3.995   2.888  18.261  0.00  0.00    +0.000 C 
ENDBRANCH  18  20
ENDBRANCH  16  18
BRANCH  16  21
ATOM     21  O   UNL     1       2.293   4.823  20.567  0.00  0.00    +0.000 OA
BRANCH  21  22
ATOM     22  C   UNL     1       1.258   3.878  20.358  0.00  0.00    +0.000 C 
ATOM     23  C   UNL     1       1.342   2.802  21.424  0.00  0.00    +0.000 C 
ENDBRANCH  21  22
ENDBRANCH  16  21
ENDBRANCH   1  16
TORSDOF 6
ENDMDL
MODEL 2
REMARK VINA RESULT:      -6.8      0.450      1.125
REMARK  Name = 
REMARK  8 active torsions:
REMARK  status: ('A' for Active; 'I' for Inactive)
REMARK    1  A    between atoms: C_1  and  C_2
REMARK    2  A    between atoms: C_2  and  O_3
REMARK    3  A    between atoms: O_3  and  P_4
REMARK    4  A    between atoms: P_4  and  O_6
REMARK    5  A    between atoms: P_4  and  C_9
REMARK    6  A    between atoms: O_6  and  C_7
REMARK    7  A    between atoms: C_7  and  C_8
REMARK    8  A    between atoms: C_12  and  C_13
REMARK                            x       y       z     vdW  Elec       q    Type
REMARK                         _______ _______ _______ _____ _____    ______ ____
ROOT
ATOM      1  C   UNL     1       2.489   6.965  19.493  0.00  0.00    +0.000 A 
ATOM      2  C   UNL     1       1.806   7.462  20.607  0.00  0.00    +0.000 A 
ATOM      3  C   UNL     1       1.197   8.718  20.554  0.00  0.00    +0.000 A 
ATOM      4  C   UNL     1       1.256   9.492  19.387  0.00  0.00    +0.000 A 
ATOM      5  C   UNL     1       1.948   9.012  18.276  0.00  0.00    +0.000 A 
ATOM      6  C   UNL     1       2.562   7.758  18.330  0.00  0.00    +0.000 A 
ENDROOT
BRANCH   4   7
ATOM      7  C   UNL     1       0.564  10.781  19.339  0.00  0.00    +0.000 C 
ATOM      8  C   UNL     1      -0.542  11.027  18.622  0.00  0.00    +0.000 C 
ATOM      9  S   UNL     1      -1.405   9.884  17.648  0.00  0.00    +0.000 S 
ATOM     10  C   UNL     1      -2.251  11.137  16.776  0.00  0.00    +0.000 C 
ATOM     11  O   UNL     1      -2.900  10.966  15.766  0.00  0.00    +0.000 OA
ATOM     12  N   UNL     1      -2.032  12.336  17.389  0.00  0.00    +0.000 N 
ATOM     13  C   UNL     1      -1.130  12.386  18.424  0.00  0.00    +0.000 C 
ATOM     14  S   UNL     1      -0.811  13.824  19.203  0.00  0.00    +0.000 S 
ATOM     15  H   UNL     1      -2.451  13.172  17.015  0.00  0.00    +0.000 HD
ENDBRANCH   4   7
BRANCH   1  16
ATOM     16  P   UNL     1       3.218   5.290  19.386  0.00  0.00    +0.000 P 
ATOM     17  O   UNL     1       2.286   4.992  18.195  0.00  0.00    +0.000 OA
BRANCH  16  18
ATOM     18  O   UNL     1       3.907   3.707  19.285  0.00  0.00    +0.000 OA
BRANCH  18  20
ATOM     19  C   UNL     1       3.439   1.649  18.116  0.00  0.00    +0.000 C 
ATOM     20  C   UNL     1       3.759   3.122  17.990  0.00  0.00    +0.000 C 
ENDBRANCH  18  20
ENDBRANCH  16  18
BRANCH  16  21
ATOM     21  O   UNL     1       2.428   4.807  20.765  0.00  0.00    +0.000 OA
BRANCH  21  22
ATOM     22  C   UNL     1       1.301   3.955  20.637  0.00  0.00    +0.000 C 
ATOM     23  C   UNL     1       1.465   2.770  21.569  0.00  0.00    +0.000 C 
ENDBRANCH  21  22
ENDBRANCH  16  21
ENDBRANCH   1  16
TORSDOF 6
ENDMDL
MODEL 3
REMARK VINA RESULT:      -6.8      1.338      2.117
REMARK  Name = 
REMARK  8 active torsions:
REMARK  status: ('A' for Active; 'I' for Inactive)
REMARK    1  A    between atoms: C_1  and  C_2
REMARK    2  A    between atoms: C_2  and  O_3
REMARK    3  A    between atoms: O_3  and  P_4
REMARK    4  A    between atoms: P_4  and  O_6
REMARK    5  A    between atoms: P_4  and  C_9
REMARK    6  A    between atoms: O_6  and  C_7
REMARK    7  A    between atoms: C_7  and  C_8
REMARK    8  A    between atoms: C_12  and  C_13
REMARK                            x       y       z     vdW  Elec       q    Type
REMARK                         _______ _______ _______ _____ _____    ______ ____
ROOT
ATOM      1  C   UNL     1       2.642   6.646  19.057  0.00  0.00    +0.000 A 
ATOM      2  C   UNL     1       2.739   7.458  17.924  0.00  0.00    +0.000 A 
ATOM      3  C   UNL     1       2.191   8.742  17.931  0.00  0.00    +0.000 A 
ATOM      4  C   UNL     1       1.543   9.235  19.072  0.00  0.00    +0.000 A 
ATOM      5  C   UNL     1       1.427   8.427  20.203  0.00  0.00    +0.000 A 
ATOM      6  C   UNL     1       1.971   7.141  20.194  0.00  0.00    +0.000 A 
ENDROOT
BRANCH   4   7
ATOM      7  C   UNL     1       1.024  10.604  19.073  0.00  0.00    +0.000 C 
ATOM      8  C   UNL     1      -0.153  10.976  18.549  0.00  0.00    +0.000 C 
ATOM      9  S   UNL     1      -1.318   9.930  17.809  0.00  0.00    +0.000 S 
ATOM     10  C   UNL     1      -2.139  11.257  17.029  0.00  0.00    +0.000 C 
ATOM     11  O   UNL     1      -2.978  11.144  16.160  0.00  0.00    +0.000 OA
ATOM     12  N   UNL     1      -1.661  12.435  17.525  0.00  0.00    +0.000 N 
ATOM     13  C   UNL     1      -0.587  12.395  18.382  0.00  0.00    +0.000 C 
ATOM     14  S   UNL     1       0.050  13.800  19.010  0.00  0.00    +0.000 S 
ATOM     15  H   UNL     1      -2.031  13.307  17.184  0.00  0.00    +0.000 HD
ENDBRANCH   4   7
BRANCH   1  16
ATOM     16  P   UNL     1       3.425   5.000  19.224  0.00  0.00    +0.000 P 
ATOM     17  O   UNL     1       2.746   4.848  20.599  0.00  0.00    +0.000 OA
BRANCH  16  18
ATOM     18  O   UNL     1       4.165   3.445  19.382  0.00  0.00    +0.000 OA
BRANCH  18  20
ATOM     19  C   UNL     1       2.737   3.108  17.468  0.00  0.00    +0.000 C 
ATOM     20  C   UNL     1       3.541   2.451  18.567  0.00  0.00    +0.000 C 
ENDBRANCH  18  20
ENDBRANCH  16  18
BRANCH  16  21
ATOM     21  O   UNL     1       4.916   5.684  19.482  0.00  0.00    +0.000 OA
BRANCH  21  22
ATOM     22  C   UNL     1       5.935   5.469  18.519  0.00  0.00    +0.000 C 
ATOM     23  C   UNL     1       7.289   5.664  19.174  0.00  0.00    +0.000 C 
ENDBRANCH  21  22
ENDBRANCH  16  21
ENDBRANCH   1  16
TORSDOF 6
ENDMDL
MODEL 4
REMARK VINA RESULT:      -6.8      1.289      2.302
REMARK  Name = 
REMARK  8 active torsions:
REMARK  status: ('A' for Active; 'I' for Inactive)
REMARK    1  A    between atoms: C_1  and  C_2
REMARK    2  A    between atoms: C_2  and  O_3
REMARK    3  A    between atoms: O_3  and  P_4
REMARK    4  A    between atoms: P_4  and  O_6
REMARK    5  A    between atoms: P_4  and  C_9
REMARK    6  A    between atoms: O_6  and  C_7
REMARK    7  A    between atoms: C_7  and  C_8
REMARK    8  A    between atoms: C_12  and  C_13
REMARK                            x       y       z     vdW  Elec       q    Type
REMARK                         _______ _______ _______ _____ _____    ______ ____
ROOT
ATOM      1  C   UNL     1       2.444   6.775  19.444  0.00  0.00    +0.000 A 
ATOM      2  C   UNL     1       1.780   7.366  20.523  0.00  0.00    +0.000 A 
ATOM      3  C   UNL     1       1.276   8.663  20.412  0.00  0.00    +0.000 A 
ATOM      4  C   UNL     1       1.423   9.386  19.220  0.00  0.00    +0.000 A 
ATOM      5  C   UNL     1       2.097   8.811  18.143  0.00  0.00    +0.000 A 
ATOM      6  C   UNL     1       2.606   7.515  18.256  0.00  0.00    +0.000 A 
ENDROOT
BRANCH   4   7
ATOM      7  C   UNL     1       0.838  10.724  19.109  0.00  0.00    +0.000 C 
ATOM      8  C   UNL     1      -0.318  11.004  18.490  0.00  0.00    +0.000 C 
ATOM      9  S   UNL     1      -1.377   9.859  17.737  0.00  0.00    +0.000 S 
ATOM     10  C   UNL     1      -2.209  11.097  16.832  0.00  0.00    +0.000 C 
ATOM     11  O   UNL     1      -2.980  10.892  15.918  0.00  0.00    +0.000 OA
ATOM     12  N   UNL     1      -1.824  12.323  17.289  0.00  0.00    +0.000 N 
ATOM     13  C   UNL     1      -0.809  12.386  18.214  0.00  0.00    +0.000 C 
ATOM     14  S   UNL     1      -0.287  13.855  18.801  0.00  0.00    +0.000 S 
ATOM     15  H   UNL     1      -2.213  13.155  16.876  0.00  0.00    +0.000 HD
ENDBRANCH   4   7
BRANCH   1  16
ATOM     16  P   UNL     1       3.038   5.044  19.413  0.00  0.00    +0.000 P 
ATOM     17  O   UNL     1       2.427   4.840  20.814  0.00  0.00    +0.000 OA
BRANCH  16  18
ATOM     18  O   UNL     1       3.598   3.408  19.384  0.00  0.00    +0.000 OA
BRANCH  18  20
ATOM     19  C   UNL     1       2.192   3.505  17.427  0.00  0.00    +0.000 C 
ATOM     20  C   UNL     1       2.939   2.615  18.396  0.00  0.00    +0.000 C 
ENDBRANCH  18  20
ENDBRANCH  16  18
BRANCH  16  21
ATOM     21  O   UNL     1       4.612   5.530  19.626  0.00  0.00    +0.000 OA
BRANCH  21  22
ATOM     22  C   UNL     1       5.572   5.160  18.650  0.00  0.00    +0.000 C 
ATOM     23  C   UNL     1       6.952   5.566  19.129  0.00  0.00    +0.000 C 
ENDBRANCH  21  22
ENDBRANCH  16  21
ENDBRANCH   1  16
TORSDOF 6
ENDMDL
MODEL 5
REMARK VINA RESULT:      -6.7      1.206      2.254
REMARK  Name = 
REMARK  8 active torsions:
REMARK  status: ('A' for Active; 'I' for Inactive)
REMARK    1  A    between atoms: C_1  and  C_2
REMARK    2  A    between atoms: C_2  and  O_3
REMARK    3  A    between atoms: O_3  and  P_4
REMARK    4  A    between atoms: P_4  and  O_6
REMARK    5  A    between atoms: P_4  and  C_9
REMARK    6  A    between atoms: O_6  and  C_7
REMARK    7  A    between atoms: C_7  and  C_8
REMARK    8  A    between atoms: C_12  and  C_13
REMARK                            x       y       z     vdW  Elec       q    Type
REMARK                         _______ _______ _______ _____ _____    ______ ____
ROOT
ATOM      1  C   UNL     1       2.635   6.569  18.890  0.00  0.00    +0.000 A 
ATOM      2  C   UNL     1       2.711   7.412  17.778  0.00  0.00    +0.000 A 
ATOM      3  C   UNL     1       2.172   8.699  17.835  0.00  0.00    +0.000 A 
ATOM      4  C   UNL     1       1.556   9.164  19.005  0.00  0.00    +0.000 A 
ATOM      5  C   UNL     1       1.461   8.325  20.115  0.00  0.00    +0.000 A 
ATOM      6  C   UNL     1       1.996   7.036  20.057  0.00  0.00    +0.000 A 
ENDROOT
BRANCH   4   7
ATOM      7  C   UNL     1       1.047  10.536  19.058  0.00  0.00    +0.000 C 
ATOM      8  C   UNL     1      -0.132  10.933  18.557  0.00  0.00    +0.000 C 
ATOM      9  S   UNL     1      -1.311   9.921  17.793  0.00  0.00    +0.000 S 
ATOM     10  C   UNL     1      -2.130  11.280  17.067  0.00  0.00    +0.000 C 
ATOM     11  O   UNL     1      -2.977  11.202  16.202  0.00  0.00    +0.000 OA
ATOM     12  N   UNL     1      -1.639  12.436  17.598  0.00  0.00    +0.000 N 
ATOM     13  C   UNL     1      -0.557  12.360  18.442  0.00  0.00    +0.000 C 
ATOM     14  S   UNL     1       0.095  13.739  19.112  0.00  0.00    +0.000 S 
ATOM     15  H   UNL     1      -2.005  13.323  17.291  0.00  0.00    +0.000 HD
ENDBRANCH   4   7
BRANCH   1  16
ATOM     16  P   UNL     1       3.410   4.914  18.992  0.00  0.00    +0.000 P 
ATOM     17  O   UNL     1       4.657   5.568  19.619  0.00  0.00    +0.000 OA
BRANCH  16  18
ATOM     18  O   UNL     1       4.143   3.350  19.088  0.00  0.00    +0.000 OA
BRANCH  18  20
ATOM     19  C   UNL     1       1.906   2.807  19.809  0.00  0.00    +0.000 C 
ATOM     20  C   UNL     1       3.183   2.296  19.180  0.00  0.00    +0.000 C 
ENDBRANCH  18  20
ENDBRANCH  16  18
BRANCH  16  21
ATOM     21  O   UNL     1       3.647   4.872  17.348  0.00  0.00    +0.000 OA
BRANCH  21  22
ATOM     22  C   UNL     1       4.944   4.573  16.859  0.00  0.00    +0.000 C 
ATOM     23  C   UNL     1       5.311   5.571  15.778  0.00  0.00    +0.000 C 
ENDBRANCH  21  22
ENDBRANCH  16  21
ENDBRANCH   1  16
TORSDOF 6
ENDMDL
MODEL 6
REMARK VINA RESULT:      -6.7      0.951      1.495
REMARK  Name = 
REMARK  8 active torsions:
REMARK  status: ('A' for Active; 'I' for Inactive)
REMARK    1  A    between atoms: C_1  and  C_2
REMARK    2  A    between atoms: C_2  and  O_3
REMARK    3  A    between atoms: O_3  and  P_4
REMARK    4  A    between atoms: P_4  and  O_6
REMARK    5  A    between atoms: P_4  and  C_9
REMARK    6  A    between atoms: O_6  and  C_7
REMARK    7  A    between atoms: C_7  and  C_8
REMARK    8  A    between atoms: C_12  and  C_13
REMARK                            x       y       z     vdW  Elec       q    Type
REMARK                         _______ _______ _______ _____ _____    ______ ____
ROOT
ATOM      1  C   UNL     1       2.529   6.974  18.951  0.00  0.00    +0.000 A 
ATOM      2  C   UNL     1       1.953   7.360  20.164  0.00  0.00    +0.000 A 
ATOM      3  C   UNL     1       1.343   8.610  20.285  0.00  0.00    +0.000 A 
ATOM      4  C   UNL     1       1.295   9.490  19.195  0.00  0.00    +0.000 A 
ATOM      5  C   UNL     1       1.881   9.121  17.985  0.00  0.00    +0.000 A 
ATOM      6  C   UNL     1       2.496   7.872  17.865  0.00  0.00    +0.000 A 
ENDROOT
BRANCH   4   7
ATOM      7  C   UNL     1       0.603  10.773  19.331  0.00  0.00    +0.000 C 
ATOM      8  C   UNL     1      -0.588  11.060  18.786  0.00  0.00    +0.000 C 
ATOM      9  S   UNL     1      -1.573   9.981  17.855  0.00  0.00    +0.000 S 
ATOM     10  C   UNL     1      -2.525  11.285  17.195  0.00  0.00    +0.000 C 
ATOM     11  O   UNL     1      -3.302  11.181  16.269  0.00  0.00    +0.000 OA
ATOM     12  N   UNL     1      -2.227  12.439  17.858  0.00  0.00    +0.000 N 
ATOM     13  C   UNL     1      -1.196  12.423  18.766  0.00  0.00    +0.000 C 
ATOM     14  S   UNL     1      -0.777  13.805  19.598  0.00  0.00    +0.000 S 
ATOM     15  H   UNL     1      -2.693  13.296  17.604  0.00  0.00    +0.000 HD
ENDBRANCH   4   7
BRANCH   1  16
ATOM     16  P   UNL     1       3.244   5.322  18.621  0.00  0.00    +0.000 P 
ATOM     17  O   UNL     1       4.008   5.922  17.424  0.00  0.00    +0.000 OA
BRANCH  16  18
ATOM     18  O   UNL     1       3.919   3.760  18.309  0.00  0.00    +0.000 OA
BRANCH  18  20
ATOM     19  C   UNL     1       4.376   2.189  20.081  0.00  0.00    +0.000 C 
ATOM     20  C   UNL     1       4.885   3.371  19.286  0.00  0.00    +0.000 C 
ENDBRANCH  18  20
ENDBRANCH  16  18
BRANCH  16  21
ATOM     21  O   UNL     1       1.791   4.757  18.047  0.00  0.00    +0.000 OA
BRANCH  21  22
ATOM     22  C   UNL     1       1.256   3.571  18.612  0.00  0.00    +0.000 C 
ATOM     23  C   UNL     1       0.917   3.823  20.069  0.00  0.00    +0.000 C 
ENDBRANCH  21  22
ENDBRANCH  16  21
ENDBRANCH   1  16
TORSDOF 6
ENDMDL
MODEL 7
REMARK VINA RESULT:      -6.6      1.722      2.785
REMARK  Name = 
REMARK  8 active torsions:
REMARK  status: ('A' for Active; 'I' for Inactive)
REMARK    1  A    between atoms: C_1  and  C_2
REMARK    2  A    between atoms: C_2  and  O_3
REMARK    3  A    between atoms: O_3  and  P_4
REMARK    4  A    between atoms: P_4  and  O_6
REMARK    5  A    between atoms: P_4  and  C_9
REMARK    6  A    between atoms: O_6  and  C_7
REMARK    7  A    between atoms: C_7  and  C_8
REMARK    8  A    between atoms: C_12  and  C_13
REMARK                            x       y       z     vdW  Elec       q    Type
REMARK                         _______ _______ _______ _____ _____    ______ ____
ROOT
ATOM      1  C   UNL     1       2.769   7.200  18.650  0.00  0.00    +0.000 A 
ATOM      2  C   UNL     1       2.093   7.357  19.863  0.00  0.00    +0.000 A 
ATOM      3  C   UNL     1       1.333   8.505  20.100  0.00  0.00    +0.000 A 
ATOM      4  C   UNL     1       1.234   9.509  19.126  0.00  0.00    +0.000 A 
ATOM      5  C   UNL     1       1.917   9.369  17.919  0.00  0.00    +0.000 A 
ATOM      6  C   UNL     1       2.681   8.223  17.684  0.00  0.00    +0.000 A 
ENDROOT
BRANCH   4   7
ATOM      7  C   UNL     1       0.388  10.677  19.377  0.00  0.00    +0.000 C 
ATOM      8  C   UNL     1      -0.775  10.926  18.756  0.00  0.00    +0.000 C 
ATOM      9  S   UNL     1      -1.540   9.915  17.576  0.00  0.00    +0.000 S 
ATOM     10  C   UNL     1      -2.574  11.205  17.019  0.00  0.00    +0.000 C 
ATOM     11  O   UNL     1      -3.247  11.172  16.010  0.00  0.00    +0.000 OA
ATOM     12  N   UNL     1      -2.473  12.263  17.874  0.00  0.00    +0.000 N 
ATOM     13  C   UNL     1      -1.532  12.207  18.875  0.00  0.00    +0.000 C 
ATOM     14  S   UNL     1      -1.353  13.473  19.942  0.00  0.00    +0.000 S 
ATOM     15  H   UNL     1      -3.009  13.098  17.702  0.00  0.00    +0.000 HD
ENDBRANCH   4   7
BRANCH   1  16
ATOM     16  P   UNL     1       3.690   5.696  18.163  0.00  0.00    +0.000 P 
ATOM     17  O   UNL     1       4.053   5.473  19.644  0.00  0.00    +0.000 OA
BRANCH  16  18
ATOM     18  O   UNL     1       4.560   4.273  17.703  0.00  0.00    +0.000 OA
BRANCH  18  20
ATOM     19  C   UNL     1       2.567   2.932  17.487  0.00  0.00    +0.000 C 
ATOM     20  C   UNL     1       3.924   3.071  18.140  0.00  0.00    +0.000 C 
ENDBRANCH  18  20
ENDBRANCH  16  18
BRANCH  16  21
ATOM     21  O   UNL     1       4.906   6.602  17.486  0.00  0.00    +0.000 OA
BRANCH  21  22
ATOM     22  C   UNL     1       6.184   6.008  17.328  0.00  0.00    +0.000 C 
ATOM     23  C   UNL     1       7.252   7.073  17.492  0.00  0.00    +0.000 C 
ENDBRANCH  21  22
ENDBRANCH  16  21
ENDBRANCH   1  16
TORSDOF 6
ENDMDL
MODEL 8
REMARK VINA RESULT:      -6.6      1.432      2.633
REMARK  Name = 
REMARK  8 active torsions:
REMARK  status: ('A' for Active; 'I' for Inactive)
REMARK    1  A    between atoms: C_1  and  C_2
REMARK    2  A    between atoms: C_2  and  O_3
REMARK    3  A    between atoms: O_3  and  P_4
REMARK    4  A    between atoms: P_4  and  O_6
REMARK    5  A    between atoms: P_4  and  C_9
REMARK    6  A    between atoms: O_6  and  C_7
REMARK    7  A    between atoms: C_7  and  C_8
REMARK    8  A    between atoms: C_12  and  C_13
REMARK                            x       y       z     vdW  Elec       q    Type
REMARK                         _______ _______ _______ _____ _____    ______ ____
ROOT
ATOM      1  C   UNL     1       2.699   6.730  18.748  0.00  0.00    +0.000 A 
ATOM      2  C   UNL     1       2.052   7.081  19.936  0.00  0.00    +0.000 A 
ATOM      3  C   UNL     1       1.456   8.337  20.066  0.00  0.00    +0.000 A 
ATOM      4  C   UNL     1       1.493   9.257  19.008  0.00  0.00    +0.000 A 
ATOM      5  C   UNL     1       2.149   8.922  17.825  0.00  0.00    +0.000 A 
ATOM      6  C   UNL     1       2.750   7.668  17.697  0.00  0.00    +0.000 A 
ENDROOT
BRANCH   4   7
ATOM      7  C   UNL     1       0.813  10.547  19.149  0.00  0.00    +0.000 C 
ATOM      8  C   UNL     1      -0.370  10.851  18.597  0.00  0.00    +0.000 C 
ATOM      9  S   UNL     1      -1.359   9.791  17.650  0.00  0.00    +0.000 S 
ATOM     10  C   UNL     1      -2.292  11.110  16.992  0.00  0.00    +0.000 C 
ATOM     11  O   UNL     1      -3.062  11.022  16.060  0.00  0.00    +0.000 OA
ATOM     12  N   UNL     1      -1.986  12.256  17.667  0.00  0.00    +0.000 N 
ATOM     13  C   UNL     1      -0.962  12.222  18.583  0.00  0.00    +0.000 C 
ATOM     14  S   UNL     1      -0.534  13.592  19.428  0.00  0.00    +0.000 S 
ATOM     15  H   UNL     1      -2.439  13.120  17.416  0.00  0.00    +0.000 HD
ENDBRANCH   4   7
BRANCH   1  16
ATOM     16  P   UNL     1       3.406   5.078  18.401  0.00  0.00    +0.000 P 
ATOM     17  O   UNL     1       4.225   5.187  19.702  0.00  0.00    +0.000 OA
BRANCH  16  18
ATOM     18  O   UNL     1       4.075   3.516  18.074  0.00  0.00    +0.000 OA
BRANCH  18  20
ATOM     19  C   UNL     1       1.752   2.879  18.206  0.00  0.00    +0.000 C 
ATOM     20  C   UNL     1       3.187   2.452  18.421  0.00  0.00    +0.000 C 
ENDBRANCH  18  20
ENDBRANCH  16  18
BRANCH  16  21
ATOM     21  O   UNL     1       4.345   5.685  17.173  0.00  0.00    +0.000 OA
BRANCH  21  22
ATOM     22  C   UNL     1       5.279   4.822  16.545  0.00  0.00    +0.000 C 
ATOM     23  C   UNL     1       5.584   5.345  15.155  0.00  0.00    +0.000 C 
ENDBRANCH  21  22
ENDBRANCH  16  21
ENDBRANCH   1  16
TORSDOF 6
ENDMDL
MODEL 9
REMARK VINA RESULT:      -6.5      4.559      8.076
REMARK  Name = 
REMARK  8 active torsions:
REMARK  status: ('A' for Active; 'I' for Inactive)
REMARK    1  A    between atoms: C_1  and  C_2
REMARK    2  A    between atoms: C_2  and  O_3
REMARK    3  A    between atoms: O_3  and  P_4
REMARK    4  A    between atoms: P_4  and  O_6
REMARK    5  A    between atoms: P_4  and  C_9
REMARK    6  A    between atoms: O_6  and  C_7
REMARK    7  A    between atoms: C_7  and  C_8
REMARK    8  A    between atoms: C_12  and  C_13
REMARK                            x       y       z     vdW  Elec       q    Type
REMARK                         _______ _______ _______ _____ _____    ______ ____
ROOT
ATOM      1  C   UNL     1       1.225   9.051  19.612  0.00  0.00    +0.000 A 
ATOM      2  C   UNL     1       1.749   7.941  20.279  0.00  0.00    +0.000 A 
ATOM      3  C   UNL     1       2.625   7.075  19.621  0.00  0.00    +0.000 A 
ATOM      4  C   UNL     1       2.994   7.310  18.289  0.00  0.00    +0.000 A 
ATOM      5  C   UNL     1       2.464   8.406  17.609  0.00  0.00    +0.000 A 
ATOM      6  C   UNL     1       1.584   9.269  18.266  0.00  0.00    +0.000 A 
ENDROOT
BRANCH   4   7
ATOM      7  C   UNL     1       3.956   6.418  17.638  0.00  0.00    +0.000 C 
ATOM      8  C   UNL     1       3.796   5.094  17.496  0.00  0.00    +0.000 C 
ATOM      9  S   UNL     1       2.420   4.171  18.002  0.00  0.00    +0.000 S 
ATOM     10  C   UNL     1       3.294   2.663  17.912  0.00  0.00    +0.000 C 
ATOM     11  O   UNL     1       2.904   1.605  18.358  0.00  0.00    +0.000 OA
ATOM     12  N   UNL     1       4.494   2.875  17.298  0.00  0.00    +0.000 N 
ATOM     13  C   UNL     1       4.860   4.167  17.008  0.00  0.00    +0.000 C 
ATOM     14  S   UNL     1       6.318   4.491  16.270  0.00  0.00    +0.000 S 
ATOM     15  H   UNL     1       5.128   2.105  17.161  0.00  0.00    +0.000 HD
ENDBRANCH   4   7
BRANCH   1  16
ATOM     16  P   UNL     1       0.174  10.330  20.393  0.00  0.00    +0.000 P 
ATOM     17  O   UNL     1      -0.806   9.221  20.823  0.00  0.00    +0.000 OA
BRANCH  16  18
ATOM     18  O   UNL     1      -0.820  11.539  21.131  0.00  0.00    +0.000 OA
BRANCH  18  20
ATOM     19  C   UNL     1      -2.174  11.877  23.098  0.00  0.00    +0.000 C 
ATOM     20  C   UNL     1      -0.827  11.452  22.556  0.00  0.00    +0.000 C 
ENDBRANCH  18  20
ENDBRANCH  16  18
BRANCH  16  21
ATOM     21  O   UNL     1      -0.329  10.888  18.911  0.00  0.00    +0.000 OA
BRANCH  21  22
ATOM     22  C   UNL     1      -1.718  11.078  18.696  0.00  0.00    +0.000 C 
ATOM     23  C   UNL     1      -2.197  10.098  17.642  0.00  0.00    +0.000 C 
ENDBRANCH  21  22
ENDBRANCH  16  21
ENDBRANCH   1  16
TORSDOF 6
ENDMDL
