MODEL 1
REMARK VINA RESULT:      -6.8      0.000      0.000
REMARK  Name = 
REMARK  14 active torsions:
REMARK  status: ('A' for Active; 'I' for Inactive)
REMARK    1  A    between atoms: C_1  and  N_2
REMARK    2  A    between atoms: C_3  and  C_5
REMARK    3  A    between atoms: C_5  and  N_6
REMARK    4  A    between atoms: C_7  and  C_9
REMARK    5  A    between atoms: C_9  and  C_10
REMARK    6  A    between atoms: C_10  and  C_11
REMARK    7  A    between atoms: C_11  and  O_12
REMARK    8  A    between atoms: O_12  and  C_13
REMARK    9  A    between atoms: C_18  and  C_19
REMARK   10  A    between atoms: C_19  and  N_20
REMARK   11  A    between atoms: N_20  and  C_21
REMARK   12  A    between atoms: C_21  and  C_22
REMARK   13  A    between atoms: C_22  and  O_23
REMARK   14  A    between atoms: C_22  and  C_24
REMARK                            x       y       z     vdW  Elec       q    Type
REMARK                         _______ _______ _______ _____ _____    ______ ____
ROOT
ATOM      1  C   UNL     1       3.243   4.070  19.462  0.00  0.00    +0.000 A 
ATOM      2  C   UNL     1       3.503   3.195  20.523  0.00  0.00    +0.000 A 
ATOM      3  C   UNL     1       2.489   2.715  21.356  0.00  0.00    +0.000 A 
ATOM      4  C   UNL     1       1.188   3.104  21.142  0.00  0.00    +0.000 A 
ATOM      5  C   UNL     1       0.896   3.967  20.095  0.00  0.00    +0.000 A 
ATOM      6  C   UNL     1       1.913   4.506  19.257  0.00  0.00    +0.000 A 
ENDROOT
BRANCH   1   7
ATOM      7  O   UNL     1       4.256   4.514  18.623  0.00  0.00    +0.000 OA
BRANCH   7   8
ATOM      8  C   UNL     1       5.590   4.163  19.046  0.00  0.00    +0.000 C 
BRANCH   8   9
ATOM      9  C   UNL     1       6.463   5.389  19.320  0.00  0.00    +0.000 C 
BRANCH   9  10
ATOM     10  C   UNL     1       7.707   5.433  18.443  0.00  0.00    +0.000 C 
BRANCH  10  12
ATOM     11  N   UNL     1       7.503   4.895  16.086  0.00  0.00    +0.000 N 
ATOM     12  C   UNL     1       7.410   5.900  17.026  0.00  0.00    +0.000 C 
ATOM     13  O   UNL     1       7.129   7.056  16.727  0.00  0.00    +0.000 OA
ATOM     14  H   UNL     1       7.974   4.035  16.334  0.00  0.00    +0.000 HD
BRANCH  11  15
ATOM     15  C   UNL     1       7.258   5.141  14.670  0.00  0.00    +0.000 C 
BRANCH  15  18
ATOM     16  C   UNL     1       5.507   2.926  12.116  0.00  0.00    +0.000 C 
ATOM     17  N   UNL     1       6.425   3.780  12.824  0.00  0.00    +0.000 N 
ATOM     18  C   UNL     1       6.182   4.212  14.112  0.00  0.00    +0.000 C 
ATOM     19  O   UNL     1       5.164   3.923  14.746  0.00  0.00    +0.000 OA
ATOM     20  H   UNL     1       7.227   4.172  12.335  0.00  0.00    +0.000 HD
ENDBRANCH  15  18
ENDBRANCH  11  15
ENDBRANCH  10  12
ENDBRANCH   9  10
ENDBRANCH   8   9
ENDBRANCH   7   8
ENDBRANCH   1   7
BRANCH   6  21
ATOM     21  C   UNL     1       1.484   5.485  18.179  0.00  0.00    +0.000 C 
BRANCH  21  22
ATOM     22  N   UNL     1       2.365   6.665  18.059  0.00  0.00    +0.000 NA
ATOM     23  H   UNL     1       3.340   6.366  18.039  0.00  0.00    +0.000 HD
BRANCH  22  24
ATOM     24  C   UNL     1       2.167   7.633  19.157  0.00  0.00    +0.000 C 
BRANCH  24  25
ATOM     25  C   UNL     1       2.099   9.091  18.638  0.00  0.00    +0.000 C 
BRANCH  25  26
ATOM     26  C   UNL     1       0.840   9.795  19.061  0.00  0.00    +0.000 A 
ATOM     27  C   UNL     1      -0.266  10.143  18.302  0.00  0.00    +0.000 A 
ATOM     28  C   UNL     1      -1.240  10.820  19.078  0.00  0.00    +0.000 A 
ATOM     29 BR   UNL     1      -2.875  11.399  18.339  0.00  0.00    +0.000 Br
ATOM     30  C   UNL     1      -0.864  11.005  20.383  0.00  0.00    +0.000 A 
ATOM     31  S   UNL     1       0.671  10.318  20.690  0.00  0.00    +0.000 S 
ENDBRANCH  25  26
BRANCH  25  32
ATOM     32  O   UNL     1       2.118   9.150  17.210  0.00  0.00    +0.000 OA
ATOM     33  H   UNL     1       3.007   9.442  16.947  0.00  0.00    +0.000 HD
ENDBRANCH  25  32
ENDBRANCH  24  25
ENDBRANCH  22  24
ENDBRANCH  21  22
ENDBRANCH   6  21
TORSDOF 13
ENDMDL
MODEL 2
REMARK VINA RESULT:      -6.8      2.202      2.514
REMARK  Name = 
REMARK  14 active torsions:
REMARK  status: ('A' for Active; 'I' for Inactive)
REMARK    1  A    between atoms: C_1  and  N_2
REMARK    2  A    between atoms: C_3  and  C_5
REMARK    3  A    between atoms: C_5  and  N_6
REMARK    4  A    between atoms: C_7  and  C_9
REMARK    5  A    between atoms: C_9  and  C_10
REMARK    6  A    between atoms: C_10  and  C_11
REMARK    7  A    between atoms: C_11  and  O_12
REMARK    8  A    between atoms: O_12  and  C_13
REMARK    9  A    between atoms: C_18  and  C_19
REMARK   10  A    between atoms: C_19  and  N_20
REMARK   11  A    between atoms: N_20  and  C_21
REMARK   12  A    between atoms: C_21  and  C_22
REMARK   13  A    between atoms: C_22  and  O_23
REMARK   14  A    between atoms: C_22  and  C_24
REMARK                            x       y       z     vdW  Elec       q    Type
REMARK                         _______ _______ _______ _____ _____    ______ ____
ROOT
ATOM      1  C   UNL     1       2.917   4.832  18.885  0.00  0.00    +0.000 A 
ATOM      2  C   UNL     1       2.784   3.834  17.914  0.00  0.00    +0.000 A 
ATOM      3  C   UNL     1       1.755   2.890  17.956  0.00  0.00    +0.000 A 
ATOM      4  C   UNL     1       0.834   2.927  18.976  0.00  0.00    +0.000 A 
ATOM      5  C   UNL     1       0.936   3.909  19.952  0.00  0.00    +0.000 A 
ATOM      6  C   UNL     1       1.998   4.857  19.959  0.00  0.00    +0.000 A 
ENDROOT
BRANCH   1   7
ATOM      7  O   UNL     1       3.926   5.784  18.814  0.00  0.00    +0.000 OA
BRANCH   7   8
ATOM      8  C   UNL     1       3.843   6.670  17.679  0.00  0.00    +0.000 C 
BRANCH   8   9
ATOM      9  C   UNL     1       5.205   6.929  17.031  0.00  0.00    +0.000 C 
BRANCH   9  10
ATOM     10  C   UNL     1       6.306   6.048  17.606  0.00  0.00    +0.000 C 
BRANCH  10  12
ATOM     11  N   UNL     1       6.557   5.467  15.264  0.00  0.00    +0.000 N 
ATOM     12  C   UNL     1       7.019   5.229  16.541  0.00  0.00    +0.000 C 
ATOM     13  O   UNL     1       7.911   4.421  16.778  0.00  0.00    +0.000 OA
ATOM     14  H   UNL     1       5.672   5.940  15.144  0.00  0.00    +0.000 HD
BRANCH  11  15
ATOM     15  C   UNL     1       7.111   4.779  14.104  0.00  0.00    +0.000 C 
BRANCH  15  18
ATOM     16  C   UNL     1       5.743   2.235  11.624  0.00  0.00    +0.000 C 
ATOM     17  N   UNL     1       6.579   3.099  12.416  0.00  0.00    +0.000 N 
ATOM     18  C   UNL     1       6.066   3.912  13.407  0.00  0.00    +0.000 C 
ATOM     19  O   UNL     1       4.864   3.978  13.678  0.00  0.00    +0.000 OA
ATOM     20  H   UNL     1       7.563   3.205  12.178  0.00  0.00    +0.000 HD
ENDBRANCH  15  18
ENDBRANCH  11  15
ENDBRANCH  10  12
ENDBRANCH   9  10
ENDBRANCH   8   9
ENDBRANCH   7   8
ENDBRANCH   1   7
BRANCH   6  21
ATOM     21  C   UNL     1       2.040   5.850  21.107  0.00  0.00    +0.000 C 
BRANCH  21  22
ATOM     22  N   UNL     1       1.832   7.253  20.692  0.00  0.00    +0.000 NA
ATOM     23  H   UNL     1       2.574   7.839  21.075  0.00  0.00    +0.000 HD
BRANCH  22  24
ATOM     24  C   UNL     1       0.519   7.780  21.113  0.00  0.00    +0.000 C 
BRANCH  24  25
ATOM     25  C   UNL     1       0.643   9.161  21.804  0.00  0.00    +0.000 C 
BRANCH  25  26
ATOM     26  C   UNL     1       0.535  10.303  20.833  0.00  0.00    +0.000 A 
ATOM     27  C   UNL     1       1.261  11.482  20.783  0.00  0.00    +0.000 A 
ATOM     28  C   UNL     1       0.835  12.314  19.718  0.00  0.00    +0.000 A 
ATOM     29 BR   UNL     1       1.648  13.979  19.367  0.00  0.00    +0.000 Br
ATOM     30  C   UNL     1      -0.208  11.788  19.001  0.00  0.00    +0.000 A 
ATOM     31  S   UNL     1      -0.657  10.249  19.595  0.00  0.00    +0.000 S 
ENDBRANCH  25  26
BRANCH  25  32
ATOM     32  O   UNL     1       1.907   9.319  22.454  0.00  0.00    +0.000 OA
ATOM     33  H   UNL     1       2.307   8.437  22.523  0.00  0.00    +0.000 HD
ENDBRANCH  25  32
ENDBRANCH  24  25
ENDBRANCH  22  24
ENDBRANCH  21  22
ENDBRANCH   6  21
TORSDOF 13
ENDMDL
MODEL 3
REMARK VINA RESULT:      -6.8      2.146      3.459
REMARK  Name = 
REMARK  14 active torsions:
REMARK  status: ('A' for Active; 'I' for Inactive)
REMARK    1  A    between atoms: C_1  and  N_2
REMARK    2  A    between atoms: C_3  and  C_5
REMARK    3  A    between atoms: C_5  and  N_6
REMARK    4  A    between atoms: C_7  and  C_9
REMARK    5  A    between atoms: C_9  and  C_10
REMARK    6  A    between atoms: C_10  and  C_11
REMARK    7  A    between atoms: C_11  and  O_12
REMARK    8  A    between atoms: O_12  and  C_13
REMARK    9  A    between atoms: C_18  and  C_19
REMARK   10  A    between atoms: C_19  and  N_20
REMARK   11  A    between atoms: N_20  and  C_21
REMARK   12  A    between atoms: C_21  and  C_22
REMARK   13  A    between atoms: C_22  and  O_23
REMARK   14  A    between atoms: C_22  and  C_24
REMARK                            x       y       z     vdW  Elec       q    Type
REMARK                         _______ _______ _______ _____ _____    ______ ____
ROOT
ATOM      1  C   UNL     1       3.563   3.562  19.690  0.00  0.00    +0.000 A 
ATOM      2  C   UNL     1       3.435   2.506  20.600  0.00  0.00    +0.000 A 
ATOM      3  C   UNL     1       2.339   2.395  21.459  0.00  0.00    +0.000 A 
ATOM      4  C   UNL     1       1.344   3.342  21.424  0.00  0.00    +0.000 A 
ATOM      5  C   UNL     1       1.439   4.399  20.528  0.00  0.00    +0.000 A 
ATOM      6  C   UNL     1       2.564   4.562  19.672  0.00  0.00    +0.000 A 
ENDROOT
BRANCH   1   7
ATOM      7  O   UNL     1       4.642   3.643  18.820  0.00  0.00    +0.000 OA
BRANCH   7   8
ATOM      8  C   UNL     1       4.387   3.143  17.491  0.00  0.00    +0.000 C 
BRANCH   8   9
ATOM      9  C   UNL     1       4.686   4.178  16.405  0.00  0.00    +0.000 C 
BRANCH   9  10
ATOM     10  C   UNL     1       6.114   4.086  15.882  0.00  0.00    +0.000 C 
BRANCH  10  12
ATOM     11  N   UNL     1       6.725   5.763  17.524  0.00  0.00    +0.000 N 
ATOM     12  C   UNL     1       7.138   4.621  16.871  0.00  0.00    +0.000 C 
ATOM     13  O   UNL     1       8.234   4.109  17.071  0.00  0.00    +0.000 OA
ATOM     14  H   UNL     1       5.941   6.282  17.154  0.00  0.00    +0.000 HD
BRANCH  11  15
ATOM     15  C   UNL     1       7.566   6.432  18.510  0.00  0.00    +0.000 C 
BRANCH  15  18
ATOM     16  C   UNL     1       9.123   9.896  18.770  0.00  0.00    +0.000 C 
ATOM     17  N   UNL     1       8.708   8.535  18.987  0.00  0.00    +0.000 N 
ATOM     18  C   UNL     1       7.930   7.850  18.076  0.00  0.00    +0.000 C 
ATOM     19  O   UNL     1       7.518   8.347  17.025  0.00  0.00    +0.000 OA
ATOM     20  H   UNL     1       8.894   8.088  19.883  0.00  0.00    +0.000 HD
ENDBRANCH  15  18
ENDBRANCH  11  15
ENDBRANCH  10  12
ENDBRANCH   9  10
ENDBRANCH   8   9
ENDBRANCH   7   8
ENDBRANCH   1   7
BRANCH   6  21
ATOM     21  C   UNL     1       2.587   5.786  18.774  0.00  0.00    +0.000 C 
BRANCH  21  22
ATOM     22  N   UNL     1       3.013   7.023  19.461  0.00  0.00    +0.000 NA
ATOM     23  H   UNL     1       3.028   6.868  20.470  0.00  0.00    +0.000 HD
BRANCH  22  24
ATOM     24  C   UNL     1       2.140   8.173  19.151  0.00  0.00    +0.000 C 
BRANCH  24  25
ATOM     25  C   UNL     1       1.131   8.459  20.292  0.00  0.00    +0.000 C 
BRANCH  25  26
ATOM     26  C   UNL     1       0.652   9.883  20.292  0.00  0.00    +0.000 A 
ATOM     27  C   UNL     1       0.427  10.733  19.222  0.00  0.00    +0.000 A 
ATOM     28  C   UNL     1      -0.005  12.013  19.651  0.00  0.00    +0.000 A 
ATOM     29 BR   UNL     1      -0.423  13.386  18.427  0.00  0.00    +0.000 Br
ATOM     30  C   UNL     1      -0.074  12.134  21.014  0.00  0.00    +0.000 A 
ATOM     31  S   UNL     1       0.350  10.672  21.791  0.00  0.00    +0.000 S 
ENDBRANCH  25  26
BRANCH  25  32
ATOM     32  O   UNL     1       1.709   8.242  21.581  0.00  0.00    +0.000 OA
ATOM     33  H   UNL     1       2.329   7.499  21.496  0.00  0.00    +0.000 HD
ENDBRANCH  25  32
ENDBRANCH  24  25
ENDBRANCH  22  24
ENDBRANCH  21  22
ENDBRANCH   6  21
TORSDOF 13
ENDMDL
MODEL 4
REMARK VINA RESULT:      -6.8      1.209      1.269
REMARK  Name = 
REMARK  14 active torsions:
REMARK  status: ('A' for Active; 'I' for Inactive)
REMARK    1  A    between atoms: C_1  and  N_2
REMARK    2  A    between atoms: C_3  and  C_5
REMARK    3  A    between atoms: C_5  and  N_6
REMARK    4  A    between atoms: C_7  and  C_9
REMARK    5  A    between atoms: C_9  and  C_10
REMARK    6  A    between atoms: C_10  and  C_11
REMARK    7  A    between atoms: C_11  and  O_12
REMARK    8  A    between atoms: O_12  and  C_13
REMARK    9  A    between atoms: C_18  and  C_19
REMARK   10  A    between atoms: C_19  and  N_20
REMARK   11  A    between atoms: N_20  and  C_21
REMARK   12  A    between atoms: C_21  and  C_22
REMARK   13  A    between atoms: C_22  and  O_23
REMARK   14  A    between atoms: C_22  and  C_24
REMARK                            x       y       z     vdW  Elec       q    Type
REMARK                         _______ _______ _______ _____ _____    ______ ____
ROOT
ATOM      1  C   UNL     1       3.300   3.639  19.385  0.00  0.00    +0.000 A 
ATOM      2  C   UNL     1       3.430   2.736  20.445  0.00  0.00    +0.000 A 
ATOM      3  C   UNL     1       2.382   2.476  21.332  0.00  0.00    +0.000 A 
ATOM      4  C   UNL     1       1.177   3.117  21.173  0.00  0.00    +0.000 A 
ATOM      5  C   UNL     1       1.015   4.016  20.127  0.00  0.00    +0.000 A 
ATOM      6  C   UNL     1       2.077   4.333  19.235  0.00  0.00    +0.000 A 
ENDROOT
BRANCH   1   7
ATOM      7  O   UNL     1       4.340   3.864  18.492  0.00  0.00    +0.000 OA
BRANCH   7   8
ATOM      8  C   UNL     1       5.635   4.039  19.104  0.00  0.00    +0.000 C 
BRANCH   8   9
ATOM      9  C   UNL     1       6.059   5.507  19.177  0.00  0.00    +0.000 C 
BRANCH   9  10
ATOM     10  C   UNL     1       7.433   5.754  18.568  0.00  0.00    +0.000 C 
BRANCH  10  12
ATOM     11  N   UNL     1       7.408   5.004  16.261  0.00  0.00    +0.000 N 
ATOM     12  C   UNL     1       7.366   6.105  17.089  0.00  0.00    +0.000 C 
ATOM     13  O   UNL     1       7.295   7.251  16.657  0.00  0.00    +0.000 OA
ATOM     14  H   UNL     1       7.714   4.118  16.639  0.00  0.00    +0.000 HD
BRANCH  11  15
ATOM     15  C   UNL     1       7.358   5.131  14.809  0.00  0.00    +0.000 C 
BRANCH  15  18
ATOM     16  C   UNL     1       5.534   3.067  12.180  0.00  0.00    +0.000 C 
ATOM     17  N   UNL     1       6.490   3.843  12.926  0.00  0.00    +0.000 N 
ATOM     18  C   UNL     1       6.232   4.294  14.206  0.00  0.00    +0.000 C 
ATOM     19  O   UNL     1       5.170   4.087  14.798  0.00  0.00    +0.000 OA
ATOM     20  H   UNL     1       7.341   4.168  12.471  0.00  0.00    +0.000 HD
ENDBRANCH  15  18
ENDBRANCH  11  15
ENDBRANCH  10  12
ENDBRANCH   9  10
ENDBRANCH   8   9
ENDBRANCH   7   8
ENDBRANCH   1   7
BRANCH   6  21
ATOM     21  C   UNL     1       1.802   5.373  18.163  0.00  0.00    +0.000 C 
BRANCH  21  22
ATOM     22  N   UNL     1       2.612   6.601  18.300  0.00  0.00    +0.000 NA
ATOM     23  H   UNL     1       3.599   6.355  18.388  0.00  0.00    +0.000 HD
BRANCH  22  24
ATOM     24  C   UNL     1       2.203   7.423  19.456  0.00  0.00    +0.000 C 
BRANCH  24  25
ATOM     25  C   UNL     1       1.808   8.861  19.034  0.00  0.00    +0.000 C 
BRANCH  25  26
ATOM     26  C   UNL     1       1.033   9.582  20.101  0.00  0.00    +0.000 A 
ATOM     27  C   UNL     1       0.813  10.940  20.258  0.00  0.00    +0.000 A 
ATOM     28  C   UNL     1       0.042  11.216  21.415  0.00  0.00    +0.000 A 
ATOM     29 BR   UNL     1      -0.452  12.973  21.888  0.00  0.00    +0.000 Br
ATOM     30  C   UNL     1      -0.283  10.094  22.131  0.00  0.00    +0.000 A 
ATOM     31  S   UNL     1       0.315   8.681  21.378  0.00  0.00    +0.000 S 
ENDBRANCH  25  26
BRANCH  25  32
ATOM     32  O   UNL     1       0.971   8.865  17.875  0.00  0.00    +0.000 OA
ATOM     33  H   UNL     1       0.512   8.009  17.850  0.00  0.00    +0.000 HD
ENDBRANCH  25  32
ENDBRANCH  24  25
ENDBRANCH  22  24
ENDBRANCH  21  22
ENDBRANCH   6  21
TORSDOF 13
ENDMDL
MODEL 5
REMARK VINA RESULT:      -6.8      3.559      7.812
REMARK  Name = 
REMARK  14 active torsions:
REMARK  status: ('A' for Active; 'I' for Inactive)
REMARK    1  A    between atoms: C_1  and  N_2
REMARK    2  A    between atoms: C_3  and  C_5
REMARK    3  A    between atoms: C_5  and  N_6
REMARK    4  A    between atoms: C_7  and  C_9
REMARK    5  A    between atoms: C_9  and  C_10
REMARK    6  A    between atoms: C_10  and  C_11
REMARK    7  A    between atoms: C_11  and  O_12
REMARK    8  A    between atoms: O_12  and  C_13
REMARK    9  A    between atoms: C_18  and  C_19
REMARK   10  A    between atoms: C_19  and  N_20
REMARK   11  A    between atoms: N_20  and  C_21
REMARK   12  A    between atoms: C_21  and  C_22
REMARK   13  A    between atoms: C_22  and  O_23
REMARK   14  A    between atoms: C_22  and  C_24
REMARK                            x       y       z     vdW  Elec       q    Type
REMARK                         _______ _______ _______ _____ _____    ______ ____
ROOT
ATOM      1  C   UNL     1       2.767   4.714  19.575  0.00  0.00    +0.000 A 
ATOM      2  C   UNL     1       2.201   4.525  20.841  0.00  0.00    +0.000 A 
ATOM      3  C   UNL     1       1.519   3.355  21.183  0.00  0.00    +0.000 A 
ATOM      4  C   UNL     1       1.390   2.344  20.259  0.00  0.00    +0.000 A 
ATOM      5  C   UNL     1       1.945   2.500  18.996  0.00  0.00    +0.000 A 
ATOM      6  C   UNL     1       2.607   3.698  18.606  0.00  0.00    +0.000 A 
ENDROOT
BRANCH   1   7
ATOM      7  O   UNL     1       3.469   5.870  19.260  0.00  0.00    +0.000 OA
BRANCH   7   8
ATOM      8  C   UNL     1       2.694   7.085  19.323  0.00  0.00    +0.000 C 
BRANCH   8   9
ATOM      9  C   UNL     1       2.110   7.483  17.966  0.00  0.00    +0.000 C 
BRANCH   9  10
ATOM     10  C   UNL     1       2.254   8.971  17.677  0.00  0.00    +0.000 C 
BRANCH  10  12
ATOM     11  N   UNL     1       1.516  10.637  19.278  0.00  0.00    +0.000 N 
ATOM     12  C   UNL     1       1.117   9.796  18.261  0.00  0.00    +0.000 C 
ATOM     13  O   UNL     1      -0.049   9.722  17.887  0.00  0.00    +0.000 OA
ATOM     14  H   UNL     1       2.414  10.486  19.715  0.00  0.00    +0.000 HD
BRANCH  11  15
ATOM     15  C   UNL     1       0.573  11.510  19.969  0.00  0.00    +0.000 C 
BRANCH  15  18
ATOM     16  C   UNL     1      -1.504  11.197  23.143  0.00  0.00    +0.000 C 
ATOM     17  N   UNL     1      -0.922  11.613  21.895  0.00  0.00    +0.000 N 
ATOM     18  C   UNL     1       0.060  10.878  21.261  0.00  0.00    +0.000 C 
ATOM     19  O   UNL     1       0.525   9.830  21.716  0.00  0.00    +0.000 OA
ATOM     20  H   UNL     1      -1.153  12.528  21.511  0.00  0.00    +0.000 HD
ENDBRANCH  15  18
ENDBRANCH  11  15
ENDBRANCH  10  12
ENDBRANCH   9  10
ENDBRANCH   8   9
ENDBRANCH   7   8
ENDBRANCH   1   7
BRANCH   6  21
ATOM     21  C   UNL     1       3.125   3.777  17.181  0.00  0.00    +0.000 C 
BRANCH  21  22
ATOM     22  N   UNL     1       4.594   3.910  17.086  0.00  0.00    +0.000 NA
ATOM     23  H   UNL     1       4.929   4.548  17.809  0.00  0.00    +0.000 HD
BRANCH  22  24
ATOM     24  C   UNL     1       5.035   4.390  15.761  0.00  0.00    +0.000 C 
BRANCH  24  25
ATOM     25  C   UNL     1       6.571   4.581  15.696  0.00  0.00    +0.000 C 
BRANCH  25  26
ATOM     26  C   UNL     1       7.078   5.528  16.746  0.00  0.00    +0.000 A 
ATOM     27  C   UNL     1       7.326   6.889  16.654  0.00  0.00    +0.000 A 
ATOM     28  C   UNL     1       7.822   7.414  17.872  0.00  0.00    +0.000 A 
ATOM     29 BR   UNL     1       8.228   9.245  18.076  0.00  0.00    +0.000 Br
ATOM     30  C   UNL     1       7.976   6.467  18.850  0.00  0.00    +0.000 A 
ATOM     31  S   UNL     1       7.477   4.925  18.306  0.00  0.00    +0.000 S 
ENDBRANCH  25  26
BRANCH  25  32
ATOM     32  O   UNL     1       6.987   5.129  14.442  0.00  0.00    +0.000 OA
ATOM     33  H   UNL     1       6.194   5.484  14.007  0.00  0.00    +0.000 HD
ENDBRANCH  25  32
ENDBRANCH  24  25
ENDBRANCH  22  24
ENDBRANCH  21  22
ENDBRANCH   6  21
TORSDOF 13
ENDMDL
MODEL 6
REMARK VINA RESULT:      -6.7      1.925      2.082
REMARK  Name = 
REMARK  14 active torsions:
REMARK  status: ('A' for Active; 'I' for Inactive)
REMARK    1  A    between atoms: C_1  and  N_2
REMARK    2  A    between atoms: C_3  and  C_5
REMARK    3  A    between atoms: C_5  and  N_6
REMARK    4  A    between atoms: C_7  and  C_9
REMARK    5  A    between atoms: C_9  and  C_10
REMARK    6  A    between atoms: C_10  and  C_11
REMARK    7  A    between atoms: C_11  and  O_12
REMARK    8  A    between atoms: O_12  and  C_13
REMARK    9  A    between atoms: C_18  and  C_19
REMARK   10  A    between atoms: C_19  and  N_20
REMARK   11  A    between atoms: N_20  and  C_21
REMARK   12  A    between atoms: C_21  and  C_22
REMARK   13  A    between atoms: C_22  and  O_23
REMARK   14  A    between atoms: C_22  and  C_24
REMARK                            x       y       z     vdW  Elec       q    Type
REMARK                         _______ _______ _______ _____ _____    ______ ____
ROOT
ATOM      1  C   UNL     1       3.194   4.134  19.305  0.00  0.00    +0.000 A 
ATOM      2  C   UNL     1       3.000   2.759  19.477  0.00  0.00    +0.000 A 
ATOM      3  C   UNL     1       1.884   2.245  20.140  0.00  0.00    +0.000 A 
ATOM      4  C   UNL     1       0.934   3.100  20.646  0.00  0.00    +0.000 A 
ATOM      5  C   UNL     1       1.095   4.470  20.486  0.00  0.00    +0.000 A 
ATOM      6  C   UNL     1       2.243   5.025  19.854  0.00  0.00    +0.000 A 
ENDROOT
BRANCH   1   7
ATOM      7  O   UNL     1       4.293   4.631  18.616  0.00  0.00    +0.000 OA
BRANCH   7   8
ATOM      8  C   UNL     1       5.573   4.237  19.153  0.00  0.00    +0.000 C 
BRANCH   8   9
ATOM      9  C   UNL     1       6.476   5.434  19.459  0.00  0.00    +0.000 C 
BRANCH   9  10
ATOM     10  C   UNL     1       7.593   5.604  18.438  0.00  0.00    +0.000 C 
BRANCH  10  12
ATOM     11  N   UNL     1       6.342   5.166  16.406  0.00  0.00    +0.000 N 
ATOM     12  C   UNL     1       7.087   6.101  17.092  0.00  0.00    +0.000 C 
ATOM     13  O   UNL     1       7.322   7.217  16.639  0.00  0.00    +0.000 OA
ATOM     14  H   UNL     1       6.385   4.198  16.694  0.00  0.00    +0.000 HD
BRANCH  11  15
ATOM     15  C   UNL     1       5.770   5.450  15.095  0.00  0.00    +0.000 C 
BRANCH  15  18
ATOM     16  C   UNL     1       6.738   3.243  12.148  0.00  0.00    +0.000 C 
ATOM     17  N   UNL     1       6.056   3.901  13.231  0.00  0.00    +0.000 N 
ATOM     18  C   UNL     1       6.645   4.910  13.966  0.00  0.00    +0.000 C 
ATOM     19  O   UNL     1       7.794   5.312  13.770  0.00  0.00    +0.000 OA
ATOM     20  H   UNL     1       5.154   3.549  13.546  0.00  0.00    +0.000 HD
ENDBRANCH  15  18
ENDBRANCH  11  15
ENDBRANCH  10  12
ENDBRANCH   9  10
ENDBRANCH   8   9
ENDBRANCH   7   8
ENDBRANCH   1   7
BRANCH   6  21
ATOM     21  C   UNL     1       2.340   6.538  19.785  0.00  0.00    +0.000 C 
BRANCH  21  22
ATOM     22  N   UNL     1       1.812   7.225  20.983  0.00  0.00    +0.000 NA
ATOM     23  H   UNL     1       0.944   6.779  21.280  0.00  0.00    +0.000 HD
BRANCH  22  24
ATOM     24  C   UNL     1       1.574   8.664  20.752  0.00  0.00    +0.000 C 
BRANCH  24  25
ATOM     25  C   UNL     1       0.550   9.250  21.755  0.00  0.00    +0.000 C 
BRANCH  25  26
ATOM     26  C   UNL     1       0.009  10.582  21.315  0.00  0.00    +0.000 A 
ATOM     27  C   UNL     1       0.266  11.292  20.154  0.00  0.00    +0.000 A 
ATOM     28  C   UNL     1      -0.431  12.525  20.129  0.00  0.00    +0.000 A 
ATOM     29 BR   UNL     1      -0.311  13.708  18.665  0.00  0.00    +0.000 Br
ATOM     30  C   UNL     1      -1.170  12.754  21.260  0.00  0.00    +0.000 A 
ATOM     31  S   UNL     1      -1.056  11.445  22.353  0.00  0.00    +0.000 S 
ENDBRANCH  25  26
BRANCH  25  32
ATOM     32  O   UNL     1       1.131   9.472  23.042  0.00  0.00    +0.000 OA
ATOM     33  H   UNL     1       1.933   8.925  23.093  0.00  0.00    +0.000 HD
ENDBRANCH  25  32
ENDBRANCH  24  25
ENDBRANCH  22  24
ENDBRANCH  21  22
ENDBRANCH   6  21
TORSDOF 13
ENDMDL
MODEL 7
REMARK VINA RESULT:      -6.7      2.008      2.502
REMARK  Name = 
REMARK  14 active torsions:
REMARK  status: ('A' for Active; 'I' for Inactive)
REMARK    1  A    between atoms: C_1  and  N_2
REMARK    2  A    between atoms: C_3  and  C_5
REMARK    3  A    between atoms: C_5  and  N_6
REMARK    4  A    between atoms: C_7  and  C_9
REMARK    5  A    between atoms: C_9  and  C_10
REMARK    6  A    between atoms: C_10  and  C_11
REMARK    7  A    between atoms: C_11  and  O_12
REMARK    8  A    between atoms: O_12  and  C_13
REMARK    9  A    between atoms: C_18  and  C_19
REMARK   10  A    between atoms: C_19  and  N_20
REMARK   11  A    between atoms: N_20  and  C_21
REMARK   12  A    between atoms: C_21  and  C_22
REMARK   13  A    between atoms: C_22  and  O_23
REMARK   14  A    between atoms: C_22  and  C_24
REMARK                            x       y       z     vdW  Elec       q    Type
REMARK                         _______ _______ _______ _____ _____    ______ ____
ROOT
ATOM      1  C   UNL     1       3.903   5.046  19.018  0.00  0.00    +0.000 A 
ATOM      2  C   UNL     1       4.026   3.812  19.666  0.00  0.00    +0.000 A 
ATOM      3  C   UNL     1       2.983   3.257  20.411  0.00  0.00    +0.000 A 
ATOM      4  C   UNL     1       1.789   3.929  20.522  0.00  0.00    +0.000 A 
ATOM      5  C   UNL     1       1.633   5.154  19.887  0.00  0.00    +0.000 A 
ATOM      6  C   UNL     1       2.692   5.764  19.157  0.00  0.00    +0.000 A 
ENDROOT
BRANCH   1   7
ATOM      7  O   UNL     1       4.937   5.571  18.254  0.00  0.00    +0.000 OA
BRANCH   7   8
ATOM      8  C   UNL     1       6.131   4.762  18.214  0.00  0.00    +0.000 C 
BRANCH   8   9
ATOM      9  C   UNL     1       6.442   4.239  16.810  0.00  0.00    +0.000 C 
BRANCH   9  10
ATOM     10  C   UNL     1       6.248   5.298  15.733  0.00  0.00    +0.000 C 
BRANCH  10  12
ATOM     11  N   UNL     1       6.286   3.794  13.830  0.00  0.00    +0.000 N 
ATOM     12  C   UNL     1       6.871   4.903  14.402  0.00  0.00    +0.000 C 
ATOM     13  O   UNL     1       7.812   5.493  13.882  0.00  0.00    +0.000 OA
ATOM     14  H   UNL     1       5.698   3.202  14.400  0.00  0.00    +0.000 HD
BRANCH  11  15
ATOM     15  C   UNL     1       6.743   3.255  12.554  0.00  0.00    +0.000 C 
BRANCH  15  18
ATOM     16  C   UNL     1       3.349   3.188  10.831  0.00  0.00    +0.000 C 
ATOM     17  N   UNL     1       4.541   3.559  11.547  0.00  0.00    +0.000 N 
ATOM     18  C   UNL     1       5.589   2.680  11.737  0.00  0.00    +0.000 C 
ATOM     19  O   UNL     1       5.581   1.516  11.330  0.00  0.00    +0.000 OA
ATOM     20  H   UNL     1       4.582   4.457  12.026  0.00  0.00    +0.000 HD
ENDBRANCH  15  18
ENDBRANCH  11  15
ENDBRANCH  10  12
ENDBRANCH   9  10
ENDBRANCH   8   9
ENDBRANCH   7   8
ENDBRANCH   1   7
BRANCH   6  21
ATOM     21  C   UNL     1       2.426   7.130  18.551  0.00  0.00    +0.000 C 
BRANCH  21  22
ATOM     22  N   UNL     1       1.964   8.137  19.528  0.00  0.00    +0.000 NA
ATOM     23  H   UNL     1       1.243   7.732  20.126  0.00  0.00    +0.000 HD
BRANCH  22  24
ATOM     24  C   UNL     1       1.441   9.357  18.881  0.00  0.00    +0.000 C 
BRANCH  24  25
ATOM     25  C   UNL     1       0.214   9.931  19.632  0.00  0.00    +0.000 C 
BRANCH  25  26
ATOM     26  C   UNL     1      -0.889  10.347  18.700  0.00  0.00    +0.000 A 
ATOM     27  C   UNL     1      -1.243   9.818  17.469  0.00  0.00    +0.000 A 
ATOM     28  C   UNL     1      -2.336  10.514  16.895  0.00  0.00    +0.000 A 
ATOM     29 BR   UNL     1      -3.073  10.015  15.232  0.00  0.00    +0.000 Br
ATOM     30  C   UNL     1      -2.774  11.564  17.659  0.00  0.00    +0.000 A 
ATOM     31  S   UNL     1      -1.882  11.689  19.112  0.00  0.00    +0.000 S 
ENDBRANCH  25  26
BRANCH  25  32
ATOM     32  O   UNL     1       0.548  11.098  20.386  0.00  0.00    +0.000 OA
ATOM     33  H   UNL     1       0.166  11.860  19.920  0.00  0.00    +0.000 HD
ENDBRANCH  25  32
ENDBRANCH  24  25
ENDBRANCH  22  24
ENDBRANCH  21  22
ENDBRANCH   6  21
TORSDOF 13
ENDMDL
MODEL 8
REMARK VINA RESULT:      -6.7      1.371      1.719
REMARK  Name = 
REMARK  14 active torsions:
REMARK  status: ('A' for Active; 'I' for Inactive)
REMARK    1  A    between atoms: C_1  and  N_2
REMARK    2  A    between atoms: C_3  and  C_5
REMARK    3  A    between atoms: C_5  and  N_6
REMARK    4  A    between atoms: C_7  and  C_9
REMARK    5  A    between atoms: C_9  and  C_10
REMARK    6  A    between atoms: C_10  and  C_11
REMARK    7  A    between atoms: C_11  and  O_12
REMARK    8  A    between atoms: O_12  and  C_13
REMARK    9  A    between atoms: C_18  and  C_19
REMARK   10  A    between atoms: C_19  and  N_20
REMARK   11  A    between atoms: N_20  and  C_21
REMARK   12  A    between atoms: C_21  and  C_22
REMARK   13  A    between atoms: C_22  and  O_23
REMARK   14  A    between atoms: C_22  and  C_24
REMARK                            x       y       z     vdW  Elec       q    Type
REMARK                         _______ _______ _______ _____ _____    ______ ____
ROOT
ATOM      1  C   UNL     1       3.887   4.626  19.303  0.00  0.00    +0.000 A 
ATOM      2  C   UNL     1       3.978   3.288  19.701  0.00  0.00    +0.000 A 
ATOM      3  C   UNL     1       3.073   2.718  20.600  0.00  0.00    +0.000 A 
ATOM      4  C   UNL     1       2.054   3.480  21.120  0.00  0.00    +0.000 A 
ATOM      5  C   UNL     1       1.933   4.810  20.740  0.00  0.00    +0.000 A 
ATOM      6  C   UNL     1       2.865   5.429  19.860  0.00  0.00    +0.000 A 
ENDROOT
BRANCH   1   7
ATOM      7  O   UNL     1       4.774   5.172  18.384  0.00  0.00    +0.000 OA
BRANCH   7   8
ATOM      8  C   UNL     1       6.165   5.083  18.760  0.00  0.00    +0.000 C 
BRANCH   8   9
ATOM      9  C   UNL     1       7.108   5.484  17.624  0.00  0.00    +0.000 C 
BRANCH   9  10
ATOM     10  C   UNL     1       7.105   4.484  16.476  0.00  0.00    +0.000 C 
BRANCH  10  12
ATOM     11  N   UNL     1       6.024   3.956  14.369  0.00  0.00    +0.000 N 
ATOM     12  C   UNL     1       6.264   4.948  15.296  0.00  0.00    +0.000 C 
ATOM     13  O   UNL     1       5.844   6.092  15.159  0.00  0.00    +0.000 OA
ATOM     14  H   UNL     1       6.587   3.116  14.393  0.00  0.00    +0.000 HD
BRANCH  11  15
ATOM     15  C   UNL     1       5.240   4.201  13.164  0.00  0.00    +0.000 C 
BRANCH  15  18
ATOM     16  C   UNL     1       7.151   1.622  11.118  0.00  0.00    +0.000 C 
ATOM     17  N   UNL     1       6.746   2.628  12.065  0.00  0.00    +0.000 N 
ATOM     18  C   UNL     1       5.454   3.112  12.117  0.00  0.00    +0.000 C 
ATOM     19  O   UNL     1       4.559   2.740  11.355  0.00  0.00    +0.000 OA
ATOM     20  H   UNL     1       7.447   3.083  12.647  0.00  0.00    +0.000 HD
ENDBRANCH  15  18
ENDBRANCH  11  15
ENDBRANCH  10  12
ENDBRANCH   9  10
ENDBRANCH   8   9
ENDBRANCH   7   8
ENDBRANCH   1   7
BRANCH   6  21
ATOM     21  C   UNL     1       2.667   6.904  19.559  0.00  0.00    +0.000 C 
BRANCH  21  22
ATOM     22  N   UNL     1       2.580   7.212  18.117  0.00  0.00    +0.000 NA
ATOM     23  H   UNL     1       3.485   7.543  17.780  0.00  0.00    +0.000 HD
BRANCH  22  24
ATOM     24  C   UNL     1       1.543   8.219  17.814  0.00  0.00    +0.000 C 
BRANCH  24  25
ATOM     25  C   UNL     1       1.910   9.616  18.376  0.00  0.00    +0.000 C 
BRANCH  25  26
ATOM     26  C   UNL     1       0.824  10.192  19.240  0.00  0.00    +0.000 A 
ATOM     27  C   UNL     1      -0.237  11.010  18.887  0.00  0.00    +0.000 A 
ATOM     28  C   UNL     1      -1.030  11.354  20.010  0.00  0.00    +0.000 A 
ATOM     29 BR   UNL     1      -2.567  12.433  19.851  0.00  0.00    +0.000 Br
ATOM     30  C   UNL     1      -0.558  10.834  21.187  0.00  0.00    +0.000 A 
ATOM     31  S   UNL     1       0.839   9.883  20.932  0.00  0.00    +0.000 S 
ENDBRANCH  25  26
BRANCH  25  32
ATOM     32  O   UNL     1       2.126  10.570  17.333  0.00  0.00    +0.000 OA
ATOM     33  H   UNL     1       3.083  10.727  17.282  0.00  0.00    +0.000 HD
ENDBRANCH  25  32
ENDBRANCH  24  25
ENDBRANCH  22  24
ENDBRANCH  21  22
ENDBRANCH   6  21
TORSDOF 13
ENDMDL
MODEL 9
REMARK VINA RESULT:      -6.7      1.337      1.478
REMARK  Name = 
REMARK  14 active torsions:
REMARK  status: ('A' for Active; 'I' for Inactive)
REMARK    1  A    between atoms: C_1  and  N_2
REMARK    2  A    between atoms: C_3  and  C_5
REMARK    3  A    between atoms: C_5  and  N_6
REMARK    4  A    between atoms: C_7  and  C_9
REMARK    5  A    between atoms: C_9  and  C_10
REMARK    6  A    between atoms: C_10  and  C_11
REMARK    7  A    between atoms: C_11  and  O_12
REMARK    8  A    between atoms: O_12  and  C_13
REMARK    9  A    between atoms: C_18  and  C_19
REMARK   10  A    between atoms: C_19  and  N_20
REMARK   11  A    between atoms: N_20  and  C_21
REMARK   12  A    between atoms: C_21  and  C_22
REMARK   13  A    between atoms: C_22  and  O_23
REMARK   14  A    between atoms: C_22  and  C_24
REMARK                            x       y       z     vdW  Elec       q    Type
REMARK                         _______ _______ _______ _____ _____    ______ ____
ROOT
ATOM      1  C   UNL     1       3.414   4.496  19.488  0.00  0.00    +0.000 A 
ATOM      2  C   UNL     1       3.627   3.189  19.036  0.00  0.00    +0.000 A 
ATOM      3  C   UNL     1       2.595   2.250  18.964  0.00  0.00    +0.000 A 
ATOM      4  C   UNL     1       1.322   2.603  19.343  0.00  0.00    +0.000 A 
ATOM      5  C   UNL     1       1.077   3.893  19.792  0.00  0.00    +0.000 A 
ATOM      6  C   UNL     1       2.116   4.858  19.917  0.00  0.00    +0.000 A 
ENDROOT
BRANCH   1   7
ATOM      7  O   UNL     1       4.442   5.428  19.524  0.00  0.00    +0.000 OA
BRANCH   7   8
ATOM      8  C   UNL     1       5.760   4.883  19.307  0.00  0.00    +0.000 C 
BRANCH   8   9
ATOM      9  C   UNL     1       6.578   5.700  18.304  0.00  0.00    +0.000 C 
BRANCH   9  10
ATOM     10  C   UNL     1       5.716   6.640  17.471  0.00  0.00    +0.000 C 
BRANCH  10  12
ATOM     11  N   UNL     1       6.847   5.496  15.655  0.00  0.00    +0.000 N 
ATOM     12  C   UNL     1       5.840   6.381  15.977  0.00  0.00    +0.000 C 
ATOM     13  O   UNL     1       5.132   6.910  15.126  0.00  0.00    +0.000 OA
ATOM     14  H   UNL     1       7.553   5.284  16.346  0.00  0.00    +0.000 HD
BRANCH  11  15
ATOM     15  C   UNL     1       7.127   5.119  14.274  0.00  0.00    +0.000 C 
BRANCH  15  18
ATOM     16  C   UNL     1       5.749   2.478  11.905  0.00  0.00    +0.000 C 
ATOM     17  N   UNL     1       6.476   3.561  12.513  0.00  0.00    +0.000 N 
ATOM     18  C   UNL     1       6.290   3.921  13.833  0.00  0.00    +0.000 C 
ATOM     19  O   UNL     1       5.484   3.365  14.582  0.00  0.00    +0.000 OA
ATOM     20  H   UNL     1       7.067   4.157  11.937  0.00  0.00    +0.000 HD
ENDBRANCH  15  18
ENDBRANCH  11  15
ENDBRANCH  10  12
ENDBRANCH   9  10
ENDBRANCH   8   9
ENDBRANCH   7   8
ENDBRANCH   1   7
BRANCH   6  21
ATOM     21  C   UNL     1       1.741   6.221  20.471  0.00  0.00    +0.000 C 
BRANCH  21  22
ATOM     22  N   UNL     1       2.177   7.351  19.625  0.00  0.00    +0.000 NA
ATOM     23  H   UNL     1       3.166   7.541  19.787  0.00  0.00    +0.000 HD
BRANCH  22  24
ATOM     24  C   UNL     1       1.392   8.577  19.868  0.00  0.00    +0.000 C 
BRANCH  24  25
ATOM     25  C   UNL     1       1.588   9.624  18.743  0.00  0.00    +0.000 C 
BRANCH  25  26
ATOM     26  C   UNL     1       0.382  10.499  18.553  0.00  0.00    +0.000 A 
ATOM     27  C   UNL     1      -0.872  10.170  18.065  0.00  0.00    +0.000 A 
ATOM     28  C   UNL     1      -1.731  11.297  18.025  0.00  0.00    +0.000 A 
ATOM     29 BR   UNL     1      -3.517  11.169  17.436  0.00  0.00    +0.000 Br
ATOM     30  C   UNL     1      -1.127  12.455  18.442  0.00  0.00    +0.000 A 
ATOM     31  S   UNL     1       0.487  12.174  18.928  0.00  0.00    +0.000 S 
ENDBRANCH  25  26
BRANCH  25  32
ATOM     32  O   UNL     1       1.824   9.006  17.475  0.00  0.00    +0.000 OA
ATOM     33  H   UNL     1       1.712   8.048  17.598  0.00  0.00    +0.000 HD
ENDBRANCH  25  32
ENDBRANCH  24  25
ENDBRANCH  22  24
ENDBRANCH  21  22
ENDBRANCH   6  21
TORSDOF 13
ENDMDL
