MODEL 1
REMARK VINA RESULT:      -8.8      0.000      0.000
REMARK  Name = 
REMARK  10 active torsions:
REMARK  status: ('A' for Active; 'I' for Inactive)
REMARK    1  A    between atoms: C_1  and  C_2
REMARK    2  A    between atoms: C_4  and  C_5
REMARK    3  A    between atoms: C_12  and  C_13
REMARK    4  A    between atoms: C_13  and  C_14
REMARK    5  A    between atoms: C_14  and  O_15
REMARK    6  A    between atoms: O_15  and  C_16
REMARK    7  A    between atoms: C_19  and  C_20
REMARK    8  A    between atoms: C_20  and  C_21
REMARK    9  A    between atoms: C_21  and  C_22
REMARK   10  A    between atoms: C_22  and  C_23
REMARK                            x       y       z     vdW  Elec       q    Type
REMARK                         _______ _______ _______ _____ _____    ______ ____
ROOT
ATOM      1  C   UNL     1       2.273   6.751  19.279  0.00  0.00    +0.000 A 
ATOM      2  C   UNL     1       1.777   7.287  20.465  0.00  0.00    +0.000 A 
ATOM      3  C   UNL     1       1.226   8.555  20.510  0.00  0.00    +0.000 A 
ATOM      4  C   UNL     1       1.183   9.359  19.378  0.00  0.00    +0.000 A 
ATOM      5  C   UNL     1       1.667   8.832  18.169  0.00  0.00    +0.000 A 
ATOM      6  C   UNL     1       2.211   7.531  18.121  0.00  0.00    +0.000 A 
ENDROOT
BRANCH   1   7
ATOM      7  O   UNL     1       2.817   5.483  19.207  0.00  0.00    +0.000 OA
BRANCH   7   8
ATOM      8  C   UNL     1       4.213   5.466  19.562  0.00  0.00    +0.000 C 
BRANCH   8   9
ATOM      9  C   UNL     1       4.943   4.219  19.098  0.00  0.00    +0.000 C 
BRANCH   9  15
ATOM     10  C   UNL     1       7.881   5.905  18.903  0.00  0.00    +0.000 C 
ATOM     11  C   UNL     1       7.037   5.216  17.915  0.00  0.00    +0.000 A 
ATOM     12  O   UNL     1       7.479   5.233  16.626  0.00  0.00    +0.000 OA
ATOM     13  C   UNL     1       6.516   4.566  15.918  0.00  0.00    +0.000 A 
ATOM     14  N   UNL     1       5.526   4.115  16.665  0.00  0.00    +0.000 NA
ATOM     15  C   UNL     1       5.840   4.533  17.946  0.00  0.00    +0.000 A 
BRANCH  13  16
ATOM     16  C   UNL     1       6.715   4.494  14.472  0.00  0.00    +0.000 A 
ATOM     17  C   UNL     1       6.020   3.560  13.684  0.00  0.00    +0.000 A 
ATOM     18  C   UNL     1       6.248   3.471  12.310  0.00  0.00    +0.000 A 
ATOM     19  C   UNL     1       7.171   4.319  11.703  0.00  0.00    +0.000 A 
ATOM     20  C   UNL     1       7.861   5.259  12.467  0.00  0.00    +0.000 A 
ATOM     21  C   UNL     1       7.632   5.347  13.843  0.00  0.00    +0.000 A 
ENDBRANCH  13  16
ENDBRANCH   9  15
ENDBRANCH   8   9
ENDBRANCH   7   8
ENDBRANCH   1   7
BRANCH   4  22
ATOM     22  C   UNL     1       0.583  10.749  19.468  0.00  0.00    +0.000 C 
BRANCH  22  23
ATOM     23  C   UNL     1      -0.430  11.021  18.343  0.00  0.00    +0.000 C 
BRANCH  23  24
ATOM     24  C   UNL     1      -1.841  11.310  18.839  0.00  0.00    +0.000 C 
BRANCH  24  25
ATOM     25  C   UNL     1      -2.863  10.537  18.006  0.00  0.00    +0.000 C 
ATOM     26  O   UNL     1      -2.267  10.063  16.784  0.00  0.00    +0.000 OA
ATOM     27  C   UNL     1      -2.917  10.620  15.728  0.00  0.00    +0.000 C 
ATOM     28  O   UNL     1      -2.618  10.428  14.558  0.00  0.00    +0.000 OA
ATOM     29  N   UNL     1      -3.917  11.403  16.157  0.00  0.00    +0.000 N 
ATOM     30  C   UNL     1      -3.963  11.429  17.503  0.00  0.00    +0.000 C 
ATOM     31  O   UNL     1      -4.745  12.076  18.180  0.00  0.00    +0.000 OA
ATOM     32  H   UNL     1      -4.519  11.925  15.547  0.00  0.00    +0.000 HD
ENDBRANCH  24  25
ENDBRANCH  23  24
ENDBRANCH  22  23
ENDBRANCH   4  22
TORSDOF 9
ENDMDL
MODEL 2
REMARK VINA RESULT:      -8.6      0.729      1.927
REMARK  Name = 
REMARK  10 active torsions:
REMARK  status: ('A' for Active; 'I' for Inactive)
REMARK    1  A    between atoms: C_1  and  C_2
REMARK    2  A    between atoms: C_4  and  C_5
REMARK    3  A    between atoms: C_12  and  C_13
REMARK    4  A    between atoms: C_13  and  C_14
REMARK    5  A    between atoms: C_14  and  O_15
REMARK    6  A    between atoms: O_15  and  C_16
REMARK    7  A    between atoms: C_19  and  C_20
REMARK    8  A    between atoms: C_20  and  C_21
REMARK    9  A    between atoms: C_21  and  C_22
REMARK   10  A    between atoms: C_22  and  C_23
REMARK                            x       y       z     vdW  Elec       q    Type
REMARK                         _______ _______ _______ _____ _____    ______ ____
ROOT
ATOM      1  C   UNL     1       2.519   7.553  18.641  0.00  0.00    +0.000 A 
ATOM      2  C   UNL     1       2.195   8.554  17.728  0.00  0.00    +0.000 A 
ATOM      3  C   UNL     1       1.428   9.645  18.094  0.00  0.00    +0.000 A 
ATOM      4  C   UNL     1       0.916   9.763  19.380  0.00  0.00    +0.000 A 
ATOM      5  C   UNL     1       1.242   8.770  20.320  0.00  0.00    +0.000 A 
ATOM      6  C   UNL     1       2.041   7.668  19.949  0.00  0.00    +0.000 A 
ENDROOT
BRANCH   1   7
ATOM      7  O   UNL     1       3.294   6.461  18.301  0.00  0.00    +0.000 OA
BRANCH   7   8
ATOM      8  C   UNL     1       3.765   5.744  19.459  0.00  0.00    +0.000 C 
BRANCH   8   9
ATOM      9  C   UNL     1       4.450   4.431  19.123  0.00  0.00    +0.000 C 
BRANCH   9  15
ATOM     10  C   UNL     1       7.562   5.783  19.116  0.00  0.00    +0.000 C 
ATOM     11  C   UNL     1       6.717   5.173  18.079  0.00  0.00    +0.000 A 
ATOM     12  O   UNL     1       7.245   5.119  16.824  0.00  0.00    +0.000 OA
ATOM     13  C   UNL     1       6.264   4.549  16.057  0.00  0.00    +0.000 A 
ATOM     14  N   UNL     1       5.182   4.222  16.739  0.00  0.00    +0.000 NA
ATOM     15  C   UNL     1       5.452   4.626  18.034  0.00  0.00    +0.000 A 
BRANCH  13  16
ATOM     16  C   UNL     1       6.551   4.430  14.630  0.00  0.00    +0.000 A 
ATOM     17  C   UNL     1       7.537   5.219  14.013  0.00  0.00    +0.000 A 
ATOM     18  C   UNL     1       7.775   5.127  12.640  0.00  0.00    +0.000 A 
ATOM     19  C   UNL     1       7.031   4.242  11.865  0.00  0.00    +0.000 A 
ATOM     20  C   UNL     1       6.057   3.443  12.461  0.00  0.00    +0.000 A 
ATOM     21  C   UNL     1       5.820   3.535  13.836  0.00  0.00    +0.000 A 
ENDBRANCH  13  16
ENDBRANCH   9  15
ENDBRANCH   8   9
ENDBRANCH   7   8
ENDBRANCH   1   7
BRANCH   4  22
ATOM     22  C   UNL     1       0.068  10.967  19.742  0.00  0.00    +0.000 C 
BRANCH  22  23
ATOM     23  C   UNL     1      -0.643  11.569  18.519  0.00  0.00    +0.000 C 
BRANCH  23  24
ATOM     24  C   UNL     1      -1.778  10.709  17.977  0.00  0.00    +0.000 C 
BRANCH  24  25
ATOM     25  C   UNL     1      -2.789  11.576  17.230  0.00  0.00    +0.000 C 
ATOM     26  O   UNL     1      -3.991  11.739  18.006  0.00  0.00    +0.000 OA
ATOM     27  C   UNL     1      -5.038  11.209  17.321  0.00  0.00    +0.000 C 
ATOM     28  O   UNL     1      -6.186  11.173  17.740  0.00  0.00    +0.000 OA
ATOM     29  N   UNL     1      -4.627  10.736  16.136  0.00  0.00    +0.000 N 
ATOM     30  C   UNL     1      -3.298  10.898  15.989  0.00  0.00    +0.000 C 
ATOM     31  O   UNL     1      -2.635  10.539  15.029  0.00  0.00    +0.000 OA
ATOM     32  H   UNL     1      -5.232  10.288  15.473  0.00  0.00    +0.000 HD
ENDBRANCH  24  25
ENDBRANCH  23  24
ENDBRANCH  22  23
ENDBRANCH   4  22
TORSDOF 9
ENDMDL
MODEL 3
REMARK VINA RESULT:      -8.5      4.535      9.159
REMARK  Name = 
REMARK  10 active torsions:
REMARK  status: ('A' for Active; 'I' for Inactive)
REMARK    1  A    between atoms: C_1  and  C_2
REMARK    2  A    between atoms: C_4  and  C_5
REMARK    3  A    between atoms: C_12  and  C_13
REMARK    4  A    between atoms: C_13  and  C_14
REMARK    5  A    between atoms: C_14  and  O_15
REMARK    6  A    between atoms: O_15  and  C_16
REMARK    7  A    between atoms: C_19  and  C_20
REMARK    8  A    between atoms: C_20  and  C_21
REMARK    9  A    between atoms: C_21  and  C_22
REMARK   10  A    between atoms: C_22  and  C_23
REMARK                            x       y       z     vdW  Elec       q    Type
REMARK                         _______ _______ _______ _____ _____    ______ ____
ROOT
ATOM      1  C   UNL     1       6.481   5.080  17.233  0.00  0.00    +0.000 A 
ATOM      2  C   UNL     1       6.309   6.366  16.728  0.00  0.00    +0.000 A 
ATOM      3  C   UNL     1       7.010   7.443  17.240  0.00  0.00    +0.000 A 
ATOM      4  C   UNL     1       7.886   7.287  18.308  0.00  0.00    +0.000 A 
ATOM      5  C   UNL     1       8.083   5.995  18.823  0.00  0.00    +0.000 A 
ATOM      6  C   UNL     1       7.380   4.895  18.286  0.00  0.00    +0.000 A 
ENDROOT
BRANCH   1   7
ATOM      7  O   UNL     1       5.800   3.988  16.729  0.00  0.00    +0.000 OA
BRANCH   7   8
ATOM      8  C   UNL     1       4.425   3.956  17.159  0.00  0.00    +0.000 C 
BRANCH   8   9
ATOM      9  C   UNL     1       4.257   3.640  18.634  0.00  0.00    +0.000 C 
BRANCH   9  15
ATOM     10  C   UNL     1       2.232   3.468  21.352  0.00  0.00    +0.000 C 
ATOM     11  C   UNL     1       2.574   4.540  20.406  0.00  0.00    +0.000 A 
ATOM     12  O   UNL     1       1.972   5.745  20.614  0.00  0.00    +0.000 OA
ATOM     13  C   UNL     1       2.424   6.542  19.598  0.00  0.00    +0.000 A 
ATOM     14  N   UNL     1       3.278   5.939  18.791  0.00  0.00    +0.000 NA
ATOM     15  C   UNL     1       3.375   4.652  19.290  0.00  0.00    +0.000 A 
BRANCH  13  16
ATOM     16  C   UNL     1       1.873   7.894  19.547  0.00  0.00    +0.000 A 
ATOM     17  C   UNL     1       1.953   8.673  18.379  0.00  0.00    +0.000 A 
ATOM     18  C   UNL     1       1.461   9.980  18.354  0.00  0.00    +0.000 A 
ATOM     19  C   UNL     1       0.878  10.524  19.495  0.00  0.00    +0.000 A 
ATOM     20  C   UNL     1       0.780   9.762  20.658  0.00  0.00    +0.000 A 
ATOM     21  C   UNL     1       1.273   8.454  20.683  0.00  0.00    +0.000 A 
ENDBRANCH  13  16
ENDBRANCH   9  15
ENDBRANCH   8   9
ENDBRANCH   7   8
ENDBRANCH   1   7
BRANCH   4  22
ATOM     22  C   UNL     1       8.628   8.493  18.851  0.00  0.00    +0.000 C 
BRANCH  22  23
ATOM     23  C   UNL     1       8.458   9.734  17.958  0.00  0.00    +0.000 C 
BRANCH  23  24
ATOM     24  C   UNL     1       9.567  10.766  18.117  0.00  0.00    +0.000 C 
BRANCH  24  25
ATOM     25  C   UNL     1       8.971  12.166  18.255  0.00  0.00    +0.000 C 
ATOM     26  O   UNL     1       9.596  13.078  17.332  0.00  0.00    +0.000 OA
ATOM     27  C   UNL     1      10.213  14.065  18.033  0.00  0.00    +0.000 C 
ATOM     28  O   UNL     1      10.854  14.973  17.522  0.00  0.00    +0.000 OA
ATOM     29  N   UNL     1      10.017  13.895  19.348  0.00  0.00    +0.000 N 
ATOM     30  C   UNL     1       9.296  12.783  19.586  0.00  0.00    +0.000 C 
ATOM     31  O   UNL     1       8.985  12.353  20.685  0.00  0.00    +0.000 OA
ATOM     32  H   UNL     1      10.396  14.501  20.053  0.00  0.00    +0.000 HD
ENDBRANCH  24  25
ENDBRANCH  23  24
ENDBRANCH  22  23
ENDBRANCH   4  22
TORSDOF 9
ENDMDL
MODEL 4
REMARK VINA RESULT:      -8.2      1.026      1.903
REMARK  Name = 
REMARK  10 active torsions:
REMARK  status: ('A' for Active; 'I' for Inactive)
REMARK    1  A    between atoms: C_1  and  C_2
REMARK    2  A    between atoms: C_4  and  C_5
REMARK    3  A    between atoms: C_12  and  C_13
REMARK    4  A    between atoms: C_13  and  C_14
REMARK    5  A    between atoms: C_14  and  O_15
REMARK    6  A    between atoms: O_15  and  C_16
REMARK    7  A    between atoms: C_19  and  C_20
REMARK    8  A    between atoms: C_20  and  C_21
REMARK    9  A    between atoms: C_21  and  C_22
REMARK   10  A    between atoms: C_22  and  C_23
REMARK                            x       y       z     vdW  Elec       q    Type
REMARK                         _______ _______ _______ _____ _____    ______ ____
ROOT
ATOM      1  C   UNL     1       2.942   7.185  18.651  0.00  0.00    +0.000 A 
ATOM      2  C   UNL     1       2.371   7.084  19.917  0.00  0.00    +0.000 A 
ATOM      3  C   UNL     1       1.454   8.013  20.373  0.00  0.00    +0.000 A 
ATOM      4  C   UNL     1       1.097   9.109  19.597  0.00  0.00    +0.000 A 
ATOM      5  C   UNL     1       1.652   9.223  18.311  0.00  0.00    +0.000 A 
ATOM      6  C   UNL     1       2.574   8.262  17.841  0.00  0.00    +0.000 A 
ENDROOT
BRANCH   1   7
ATOM      7  O   UNL     1       3.851   6.262  18.171  0.00  0.00    +0.000 OA
BRANCH   7   8
ATOM      8  C   UNL     1       4.340   5.387  19.206  0.00  0.00    +0.000 C 
BRANCH   8   9
ATOM      9  C   UNL     1       5.850   5.234  19.209  0.00  0.00    +0.000 C 
BRANCH   9  15
ATOM     10  C   UNL     1       7.824   7.699  17.967  0.00  0.00    +0.000 C 
ATOM     11  C   UNL     1       7.217   6.493  17.385  0.00  0.00    +0.000 A 
ATOM     12  O   UNL     1       7.461   6.271  16.062  0.00  0.00    +0.000 OA
ATOM     13  C   UNL     1       6.769   5.128  15.766  0.00  0.00    +0.000 A 
ATOM     14  N   UNL     1       6.136   4.608  16.802  0.00  0.00    +0.000 NA
ATOM     15  C   UNL     1       6.405   5.478  17.844  0.00  0.00    +0.000 A 
BRANCH  13  16
ATOM     16  C   UNL     1       6.808   4.695  14.372  0.00  0.00    +0.000 A 
ATOM     17  C   UNL     1       7.723   5.248  13.459  0.00  0.00    +0.000 A 
ATOM     18  C   UNL     1       7.724   4.857  12.119  0.00  0.00    +0.000 A 
ATOM     19  C   UNL     1       6.813   3.903  11.673  0.00  0.00    +0.000 A 
ATOM     20  C   UNL     1       5.906   3.335  12.566  0.00  0.00    +0.000 A 
ATOM     21  C   UNL     1       5.905   3.727  13.908  0.00  0.00    +0.000 A 
ENDBRANCH  13  16
ENDBRANCH   9  15
ENDBRANCH   8   9
ENDBRANCH   7   8
ENDBRANCH   1   7
BRANCH   4  22
ATOM     22  C   UNL     1       0.098  10.115  20.134  0.00  0.00    +0.000 C 
BRANCH  22  23
ATOM     23  C   UNL     1      -1.104  10.304  19.193  0.00  0.00    +0.000 C 
BRANCH  23  24
ATOM     24  C   UNL     1      -1.078  11.612  18.412  0.00  0.00    +0.000 C 
BRANCH  24  25
ATOM     25  C   UNL     1      -2.318  11.723  17.526  0.00  0.00    +0.000 C 
ATOM     26  O   UNL     1      -3.480  12.038  18.316  0.00  0.00    +0.000 OA
ATOM     27  C   UNL     1      -4.384  11.030  18.199  0.00  0.00    +0.000 C 
ATOM     28  O   UNL     1      -5.460  11.000  18.779  0.00  0.00    +0.000 OA
ATOM     29  N   UNL     1      -3.922  10.085  17.368  0.00  0.00    +0.000 N 
ATOM     30  C   UNL     1      -2.691  10.400  16.919  0.00  0.00    +0.000 C 
ATOM     31  O   UNL     1      -2.006   9.719  16.173  0.00  0.00    +0.000 OA
ATOM     32  H   UNL     1      -4.420   9.242  17.147  0.00  0.00    +0.000 HD
ENDBRANCH  24  25
ENDBRANCH  23  24
ENDBRANCH  22  23
ENDBRANCH   4  22
TORSDOF 9
ENDMDL
MODEL 5
REMARK VINA RESULT:      -8.2      2.852      3.651
REMARK  Name = 
REMARK  10 active torsions:
REMARK  status: ('A' for Active; 'I' for Inactive)
REMARK    1  A    between atoms: C_1  and  C_2
REMARK    2  A    between atoms: C_4  and  C_5
REMARK    3  A    between atoms: C_12  and  C_13
REMARK    4  A    between atoms: C_13  and  C_14
REMARK    5  A    between atoms: C_14  and  O_15
REMARK    6  A    between atoms: O_15  and  C_16
REMARK    7  A    between atoms: C_19  and  C_20
REMARK    8  A    between atoms: C_20  and  C_21
REMARK    9  A    between atoms: C_21  and  C_22
REMARK   10  A    between atoms: C_22  and  C_23
REMARK                            x       y       z     vdW  Elec       q    Type
REMARK                         _______ _______ _______ _____ _____    ______ ____
ROOT
ATOM      1  C   UNL     1       2.086   7.497  19.577  0.00  0.00    +0.000 A 
ATOM      2  C   UNL     1       1.473   8.192  20.616  0.00  0.00    +0.000 A 
ATOM      3  C   UNL     1       0.928   9.449  20.423  0.00  0.00    +0.000 A 
ATOM      4  C   UNL     1       1.008  10.083  19.189  0.00  0.00    +0.000 A 
ATOM      5  C   UNL     1       1.610   9.393  18.124  0.00  0.00    +0.000 A 
ATOM      6  C   UNL     1       2.149   8.103  18.319  0.00  0.00    +0.000 A 
ENDROOT
BRANCH   1   7
ATOM      7  O   UNL     1       2.626   6.236  19.744  0.00  0.00    +0.000 OA
BRANCH   7   8
ATOM      8  C   UNL     1       3.482   5.859  18.647  0.00  0.00    +0.000 C 
BRANCH   8   9
ATOM      9  C   UNL     1       4.889   5.485  19.077  0.00  0.00    +0.000 C 
BRANCH   9  15
ATOM     10  C   UNL     1       8.012   6.731  18.622  0.00  0.00    +0.000 C 
ATOM     11  C   UNL     1       7.082   5.982  17.764  0.00  0.00    +0.000 A 
ATOM     12  O   UNL     1       7.513   5.708  16.500  0.00  0.00    +0.000 OA
ATOM     13  C   UNL     1       6.469   5.047  15.912  0.00  0.00    +0.000 A 
ATOM     14  N   UNL     1       5.436   4.866  16.713  0.00  0.00    +0.000 NA
ATOM     15  C   UNL     1       5.809   5.470  17.901  0.00  0.00    +0.000 A 
BRANCH  13  16
ATOM     16  C   UNL     1       6.646   4.687  14.506  0.00  0.00    +0.000 A 
ATOM     17  C   UNL     1       7.635   5.294  13.714  0.00  0.00    +0.000 A 
ATOM     18  C   UNL     1       7.768   4.973  12.362  0.00  0.00    +0.000 A 
ATOM     19  C   UNL     1       6.915   4.037  11.784  0.00  0.00    +0.000 A 
ATOM     20  C   UNL     1       5.936   3.416  12.557  0.00  0.00    +0.000 A 
ATOM     21  C   UNL     1       5.803   3.738  13.911  0.00  0.00    +0.000 A 
ENDBRANCH  13  16
ENDBRANCH   9  15
ENDBRANCH   8   9
ENDBRANCH   7   8
ENDBRANCH   1   7
BRANCH   4  22
ATOM     22  C   UNL     1       0.411  11.466  19.017  0.00  0.00    +0.000 C 
BRANCH  22  23
ATOM     23  C   UNL     1      -0.707  11.750  20.035  0.00  0.00    +0.000 C 
BRANCH  23  24
ATOM     24  C   UNL     1      -0.394  12.891  20.995  0.00  0.00    +0.000 C 
BRANCH  24  25
ATOM     25  C   UNL     1      -0.790  12.508  22.419  0.00  0.00    +0.000 C 
ATOM     26  O   UNL     1      -2.029  11.773  22.422  0.00  0.00    +0.000 OA
ATOM     27  C   UNL     1      -2.956  12.468  23.132  0.00  0.00    +0.000 C 
ATOM     28  O   UNL     1      -4.114  12.109  23.287  0.00  0.00    +0.000 OA
ATOM     29  N   UNL     1      -2.418  13.592  23.626  0.00  0.00    +0.000 N 
ATOM     30  C   UNL     1      -1.130  13.714  23.249  0.00  0.00    +0.000 C 
ATOM     31  O   UNL     1      -0.390  14.646  23.520  0.00  0.00    +0.000 OA
ATOM     32  H   UNL     1      -2.927  14.264  24.170  0.00  0.00    +0.000 HD
ENDBRANCH  24  25
ENDBRANCH  23  24
ENDBRANCH  22  23
ENDBRANCH   4  22
TORSDOF 9
ENDMDL
MODEL 6
REMARK VINA RESULT:      -8.2      5.594      9.512
REMARK  Name = 
REMARK  10 active torsions:
REMARK  status: ('A' for Active; 'I' for Inactive)
REMARK    1  A    between atoms: C_1  and  C_2
REMARK    2  A    between atoms: C_4  and  C_5
REMARK    3  A    between atoms: C_12  and  C_13
REMARK    4  A    between atoms: C_13  and  C_14
REMARK    5  A    between atoms: C_14  and  O_15
REMARK    6  A    between atoms: O_15  and  C_16
REMARK    7  A    between atoms: C_19  and  C_20
REMARK    8  A    between atoms: C_20  and  C_21
REMARK    9  A    between atoms: C_21  and  C_22
REMARK   10  A    between atoms: C_22  and  C_23
REMARK                            x       y       z     vdW  Elec       q    Type
REMARK                         _______ _______ _______ _____ _____    ______ ____
ROOT
ATOM      1  C   UNL     1       7.386   7.293  17.634  0.00  0.00    +0.000 A 
ATOM      2  C   UNL     1       7.913   6.448  18.608  0.00  0.00    +0.000 A 
ATOM      3  C   UNL     1       7.198   5.367  19.091  0.00  0.00    +0.000 A 
ATOM      4  C   UNL     1       5.906   5.107  18.650  0.00  0.00    +0.000 A 
ATOM      5  C   UNL     1       5.361   5.941  17.659  0.00  0.00    +0.000 A 
ATOM      6  C   UNL     1       6.101   7.031  17.153  0.00  0.00    +0.000 A 
ENDROOT
BRANCH   1   7
ATOM      7  O   UNL     1       8.088   8.371  17.128  0.00  0.00    +0.000 OA
BRANCH   7   8
ATOM      8  C   UNL     1       8.029   9.518  17.998  0.00  0.00    +0.000 C 
BRANCH   8   9
ATOM      9  C   UNL     1       9.259   9.680  18.873  0.00  0.00    +0.000 C 
BRANCH   9  15
ATOM     10  C   UNL     1       9.659  12.893  17.859  0.00  0.00    +0.000 C 
ATOM     11  C   UNL     1       9.368  12.266  19.156  0.00  0.00    +0.000 A 
ATOM     12  O   UNL     1       9.224  13.110  20.217  0.00  0.00    +0.000 OA
ATOM     13  C   UNL     1       8.996  12.289  21.288  0.00  0.00    +0.000 A 
ATOM     14  N   UNL     1       8.962  11.006  20.975  0.00  0.00    +0.000 NA
ATOM     15  C   UNL     1       9.209  10.976  19.614  0.00  0.00    +0.000 A 
BRANCH  13  16
ATOM     16  C   UNL     1       8.868  12.946  22.587  0.00  0.00    +0.000 A 
ATOM     17  C   UNL     1       8.523  12.223  23.741  0.00  0.00    +0.000 A 
ATOM     18  C   UNL     1       8.362  12.867  24.970  0.00  0.00    +0.000 A 
ATOM     19  C   UNL     1       8.548  14.244  25.061  0.00  0.00    +0.000 A 
ATOM     20  C   UNL     1       8.901  14.976  23.928  0.00  0.00    +0.000 A 
ATOM     21  C   UNL     1       9.062  14.330  22.698  0.00  0.00    +0.000 A 
ENDBRANCH  13  16
ENDBRANCH   9  15
ENDBRANCH   8   9
ENDBRANCH   7   8
ENDBRANCH   1   7
BRANCH   4  22
ATOM     22  C   UNL     1       5.147   3.921  19.212  0.00  0.00    +0.000 C 
BRANCH  22  23
ATOM     23  C   UNL     1       3.932   3.543  18.347  0.00  0.00    +0.000 C 
BRANCH  23  24
ATOM     24  C   UNL     1       2.847   2.786  19.102  0.00  0.00    +0.000 C 
BRANCH  24  25
ATOM     25  C   UNL     1       1.821   3.762  19.673  0.00  0.00    +0.000 C 
ATOM     26  O   UNL     1       1.901   5.034  19.003  0.00  0.00    +0.000 OA
ATOM     27  C   UNL     1       2.233   5.993  19.907  0.00  0.00    +0.000 C 
ATOM     28  O   UNL     1       2.403   7.172  19.628  0.00  0.00    +0.000 OA
ATOM     29  N   UNL     1       2.348   5.459  21.130  0.00  0.00    +0.000 N 
ATOM     30  C   UNL     1       2.131   4.130  21.097  0.00  0.00    +0.000 C 
ATOM     31  O   UNL     1       2.196   3.370  22.050  0.00  0.00    +0.000 OA
ATOM     32  H   UNL     1       2.602   5.983  21.948  0.00  0.00    +0.000 HD
ENDBRANCH  24  25
ENDBRANCH  23  24
ENDBRANCH  22  23
ENDBRANCH   4  22
TORSDOF 9
ENDMDL
MODEL 7
REMARK VINA RESULT:      -8.2      2.293      9.828
REMARK  Name = 
REMARK  10 active torsions:
REMARK  status: ('A' for Active; 'I' for Inactive)
REMARK    1  A    between atoms: C_1  and  C_2
REMARK    2  A    between atoms: C_4  and  C_5
REMARK    3  A    between atoms: C_12  and  C_13
REMARK    4  A    between atoms: C_13  and  C_14
REMARK    5  A    between atoms: C_14  and  O_15
REMARK    6  A    between atoms: O_15  and  C_16
REMARK    7  A    between atoms: C_19  and  C_20
REMARK    8  A    between atoms: C_20  and  C_21
REMARK    9  A    between atoms: C_21  and  C_22
REMARK   10  A    between atoms: C_22  and  C_23
REMARK                            x       y       z     vdW  Elec       q    Type
REMARK                         _______ _______ _______ _____ _____    ______ ____
ROOT
ATOM      1  C   UNL     1       1.872   6.353  20.380  0.00  0.00    +0.000 A 
ATOM      2  C   UNL     1       1.837   4.988  20.654  0.00  0.00    +0.000 A 
ATOM      3  C   UNL     1       2.105   4.048  19.675  0.00  0.00    +0.000 A 
ATOM      4  C   UNL     1       2.381   4.431  18.368  0.00  0.00    +0.000 A 
ATOM      5  C   UNL     1       2.434   5.804  18.075  0.00  0.00    +0.000 A 
ATOM      6  C   UNL     1       2.178   6.762  19.080  0.00  0.00    +0.000 A 
ENDROOT
BRANCH   1   7
ATOM      7  O   UNL     1       1.619   7.310  21.345  0.00  0.00    +0.000 OA
BRANCH   7   8
ATOM      8  C   UNL     1       1.507   8.633  20.785  0.00  0.00    +0.000 C 
BRANCH   8   9
ATOM      9  C   UNL     1       0.726   9.598  21.660  0.00  0.00    +0.000 C 
BRANCH   9  15
ATOM     10  C   UNL     1      -0.816  12.576  22.174  0.00  0.00    +0.000 C 
ATOM     11  C   UNL     1      -0.853  11.587  21.087  0.00  0.00    +0.000 A 
ATOM     12  O   UNL     1      -1.673  11.874  20.037  0.00  0.00    +0.000 OA
ATOM     13  C   UNL     1      -1.552  10.800  19.196  0.00  0.00    +0.000 A 
ATOM     14  N   UNL     1      -0.706   9.883  19.626  0.00  0.00    +0.000 NA
ATOM     15  C   UNL     1      -0.258  10.368  20.842  0.00  0.00    +0.000 A 
BRANCH  13  16
ATOM     16  C   UNL     1      -2.390  10.822  18.000  0.00  0.00    +0.000 A 
ATOM     17  C   UNL     1      -1.976  10.209  16.805  0.00  0.00    +0.000 A 
ATOM     18  C   UNL     1      -2.766  10.272  15.655  0.00  0.00    +0.000 A 
ATOM     19  C   UNL     1      -3.984  10.946  15.686  0.00  0.00    +0.000 A 
ATOM     20  C   UNL     1      -4.416  11.551  16.865  0.00  0.00    +0.000 A 
ATOM     21  C   UNL     1      -3.625  11.487  18.016  0.00  0.00    +0.000 A 
ENDBRANCH  13  16
ENDBRANCH   9  15
ENDBRANCH   8   9
ENDBRANCH   7   8
ENDBRANCH   1   7
BRANCH   4  22
ATOM     22  C   UNL     1       2.657   3.372  17.319  0.00  0.00    +0.000 C 
BRANCH  22  23
ATOM     23  C   UNL     1       4.163   3.136  17.111  0.00  0.00    +0.000 C 
BRANCH  23  24
ATOM     24  C   UNL     1       5.045   4.255  17.650  0.00  0.00    +0.000 C 
BRANCH  24  25
ATOM     25  C   UNL     1       5.515   5.154  16.508  0.00  0.00    +0.000 C 
ATOM     26  O   UNL     1       5.193   4.567  15.233  0.00  0.00    +0.000 OA
ATOM     27  C   UNL     1       6.344   4.333  14.549  0.00  0.00    +0.000 C 
ATOM     28  O   UNL     1       6.392   3.812  13.443  0.00  0.00    +0.000 OA
ATOM     29  N   UNL     1       7.401   4.749  15.259  0.00  0.00    +0.000 N 
ATOM     30  C   UNL     1       7.013   5.246  16.450  0.00  0.00    +0.000 C 
ATOM     31  O   UNL     1       7.753   5.673  17.322  0.00  0.00    +0.000 OA
ATOM     32  H   UNL     1       8.352   4.660  14.951  0.00  0.00    +0.000 HD
ENDBRANCH  24  25
ENDBRANCH  23  24
ENDBRANCH  22  23
ENDBRANCH   4  22
TORSDOF 9
ENDMDL
MODEL 8
REMARK VINA RESULT:      -8.1      2.277      9.588
REMARK  Name = 
REMARK  10 active torsions:
REMARK  status: ('A' for Active; 'I' for Inactive)
REMARK    1  A    between atoms: C_1  and  C_2
REMARK    2  A    between atoms: C_4  and  C_5
REMARK    3  A    between atoms: C_12  and  C_13
REMARK    4  A    between atoms: C_13  and  C_14
REMARK    5  A    between atoms: C_14  and  O_15
REMARK    6  A    between atoms: O_15  and  C_16
REMARK    7  A    between atoms: C_19  and  C_20
REMARK    8  A    between atoms: C_20  and  C_21
REMARK    9  A    between atoms: C_21  and  C_22
REMARK   10  A    between atoms: C_22  and  C_23
REMARK                            x       y       z     vdW  Elec       q    Type
REMARK                         _______ _______ _______ _____ _____    ______ ____
ROOT
ATOM      1  C   UNL     1       1.404   7.323  20.580  0.00  0.00    +0.000 A 
ATOM      2  C   UNL     1       1.969   7.884  19.438  0.00  0.00    +0.000 A 
ATOM      3  C   UNL     1       2.600   7.104  18.486  0.00  0.00    +0.000 A 
ATOM      4  C   UNL     1       2.729   5.731  18.654  0.00  0.00    +0.000 A 
ATOM      5  C   UNL     1       2.154   5.144  19.794  0.00  0.00    +0.000 A 
ATOM      6  C   UNL     1       1.494   5.939  20.755  0.00  0.00    +0.000 A 
ENDROOT
BRANCH   1   7
ATOM      7  O   UNL     1       0.758   8.081  21.538  0.00  0.00    +0.000 OA
BRANCH   7   8
ATOM      8  C   UNL     1       1.498   9.268  21.886  0.00  0.00    +0.000 C 
BRANCH   8   9
ATOM      9  C   UNL     1       0.643  10.521  21.947  0.00  0.00    +0.000 C 
BRANCH   9  15
ATOM     10  C   UNL     1       1.888  12.731  19.694  0.00  0.00    +0.000 C 
ATOM     11  C   UNL     1       0.738  11.815  19.690  0.00  0.00    +0.000 A 
ATOM     12  O   UNL     1      -0.034  11.818  18.566  0.00  0.00    +0.000 OA
ATOM     13  C   UNL     1      -1.034  10.922  18.827  0.00  0.00    +0.000 A 
ATOM     14  N   UNL     1      -0.933  10.344  20.010  0.00  0.00    +0.000 NA
ATOM     15  C   UNL     1       0.192  10.915  20.579  0.00  0.00    +0.000 A 
BRANCH  13  16
ATOM     16  C   UNL     1      -2.055  10.777  17.792  0.00  0.00    +0.000 A 
ATOM     17  C   UNL     1      -1.892   9.879  16.724  0.00  0.00    +0.000 A 
ATOM     18  C   UNL     1      -2.855   9.779  15.717  0.00  0.00    +0.000 A 
ATOM     19  C   UNL     1      -3.997  10.574  15.768  0.00  0.00    +0.000 A 
ATOM     20  C   UNL     1      -4.181  11.462  16.827  0.00  0.00    +0.000 A 
ATOM     21  C   UNL     1      -3.217  11.562  17.834  0.00  0.00    +0.000 A 
ENDBRANCH  13  16
ENDBRANCH   9  15
ENDBRANCH   8   9
ENDBRANCH   7   8
ENDBRANCH   1   7
BRANCH   4  22
ATOM     22  C   UNL     1       3.438   4.909  17.596  0.00  0.00    +0.000 C 
BRANCH  22  23
ATOM     23  C   UNL     1       4.564   4.044  18.186  0.00  0.00    +0.000 C 
BRANCH  23  24
ATOM     24  C   UNL     1       5.857   4.077  17.380  0.00  0.00    +0.000 C 
BRANCH  24  25
ATOM     25  C   UNL     1       5.688   4.961  16.146  0.00  0.00    +0.000 C 
ATOM     26  O   UNL     1       5.450   4.159  14.974  0.00  0.00    +0.000 OA
ATOM     27  C   UNL     1       6.456   4.365  14.083  0.00  0.00    +0.000 C 
ATOM     28  O   UNL     1       6.544   3.799  13.003  0.00  0.00    +0.000 OA
ATOM     29  N   UNL     1       7.325   5.266  14.562  0.00  0.00    +0.000 N 
ATOM     30  C   UNL     1       6.961   5.677  15.793  0.00  0.00    +0.000 C 
ATOM     31  O   UNL     1       7.571   6.469  16.492  0.00  0.00    +0.000 OA
ATOM     32  H   UNL     1       8.152   5.558  14.076  0.00  0.00    +0.000 HD
ENDBRANCH  24  25
ENDBRANCH  23  24
ENDBRANCH  22  23
ENDBRANCH   4  22
TORSDOF 9
ENDMDL
MODEL 9
REMARK VINA RESULT:      -8.1      4.516      9.268
REMARK  Name = 
REMARK  10 active torsions:
REMARK  status: ('A' for Active; 'I' for Inactive)
REMARK    1  A    between atoms: C_1  and  C_2
REMARK    2  A    between atoms: C_4  and  C_5
REMARK    3  A    between atoms: C_12  and  C_13
REMARK    4  A    between atoms: C_13  and  C_14
REMARK    5  A    between atoms: C_14  and  O_15
REMARK    6  A    between atoms: O_15  and  C_16
REMARK    7  A    between atoms: C_19  and  C_20
REMARK    8  A    between atoms: C_20  and  C_21
REMARK    9  A    between atoms: C_21  and  C_22
REMARK   10  A    between atoms: C_22  and  C_23
REMARK                            x       y       z     vdW  Elec       q    Type
REMARK                         _______ _______ _______ _____ _____    ______ ____
ROOT
ATOM      1  C   UNL     1       6.429   5.086  17.087  0.00  0.00    +0.000 A 
ATOM      2  C   UNL     1       7.251   4.921  18.198  0.00  0.00    +0.000 A 
ATOM      3  C   UNL     1       7.945   5.984  18.749  0.00  0.00    +0.000 A 
ATOM      4  C   UNL     1       7.878   7.252  18.186  0.00  0.00    +0.000 A 
ATOM      5  C   UNL     1       7.044   7.442  17.071  0.00  0.00    +0.000 A 
ATOM      6  C   UNL     1       6.322   6.361  16.523  0.00  0.00    +0.000 A 
ENDROOT
BRANCH   1   7
ATOM      7  O   UNL     1       5.716   4.042  16.528  0.00  0.00    +0.000 OA
BRANCH   7   8
ATOM      8  C   UNL     1       4.782   3.460  17.458  0.00  0.00    +0.000 C 
BRANCH   8   9
ATOM      9  C   UNL     1       3.344   3.883  17.219  0.00  0.00    +0.000 C 
BRANCH   9  15
ATOM     10  C   UNL     1       2.730   3.444  20.527  0.00  0.00    +0.000 C 
ATOM     11  C   UNL     1       2.663   4.604  19.626  0.00  0.00    +0.000 A 
ATOM     12  O   UNL     1       2.269   5.783  20.186  0.00  0.00    +0.000 OA
ATOM     13  C   UNL     1       2.258   6.676  19.149  0.00  0.00    +0.000 A 
ATOM     14  N   UNL     1       2.638   6.155  17.997  0.00  0.00    +0.000 NA
ATOM     15  C   UNL     1       2.890   4.825  18.285  0.00  0.00    +0.000 A 
BRANCH  13  16
ATOM     16  C   UNL     1       1.801   8.026  19.468  0.00  0.00    +0.000 A 
ATOM     17  C   UNL     1       1.398   8.375  20.768  0.00  0.00    +0.000 A 
ATOM     18  C   UNL     1       0.923   9.657  21.053  0.00  0.00    +0.000 A 
ATOM     19  C   UNL     1       0.849  10.610  20.041  0.00  0.00    +0.000 A 
ATOM     20  C   UNL     1       1.256  10.286  18.748  0.00  0.00    +0.000 A 
ATOM     21  C   UNL     1       1.731   9.002  18.463  0.00  0.00    +0.000 A 
ENDBRANCH  13  16
ENDBRANCH   9  15
ENDBRANCH   8   9
ENDBRANCH   7   8
ENDBRANCH   1   7
BRANCH   4  22
ATOM     22  C   UNL     1       8.663   8.391  18.808  0.00  0.00    +0.000 C 
BRANCH  22  23
ATOM     23  C   UNL     1       8.348   9.745  18.150  0.00  0.00    +0.000 C 
BRANCH  23  24
ATOM     24  C   UNL     1       9.529  10.706  18.118  0.00  0.00    +0.000 C 
BRANCH  24  25
ATOM     25  C   UNL     1       9.310  11.847  19.111  0.00  0.00    +0.000 C 
ATOM     26  O   UNL     1       8.696  12.976  18.460  0.00  0.00    +0.000 OA
ATOM     27  C   UNL     1       9.534  14.043  18.539  0.00  0.00    +0.000 C 
ATOM     28  O   UNL     1       9.299  15.139  18.051  0.00  0.00    +0.000 OA
ATOM     29  N   UNL     1      10.642  13.716  19.219  0.00  0.00    +0.000 N 
ATOM     30  C   UNL     1      10.610  12.423  19.596  0.00  0.00    +0.000 C 
ATOM     31  O   UNL     1      11.489  11.832  20.202  0.00  0.00    +0.000 OA
ATOM     32  H   UNL     1      11.403  14.348  19.385  0.00  0.00    +0.000 HD
ENDBRANCH  24  25
ENDBRANCH  23  24
ENDBRANCH  22  23
ENDBRANCH   4  22
TORSDOF 9
ENDMDL
