MODEL 1
REMARK VINA RESULT:      -6.7      0.000      0.000
REMARK  Name = 
REMARK  10 active torsions:
REMARK  status: ('A' for Active; 'I' for Inactive)
REMARK    1  A    between atoms: C_1  and  O_2
REMARK    2  A    between atoms: O_2  and  C_3
REMARK    3  A    between atoms: C_6  and  C_7
REMARK    4  A    between atoms: C_8  and  C_9
REMARK    5  A    between atoms: N_11  and  C_12
REMARK    6  A    between atoms: C_15  and  O_16
REMARK    7  A    between atoms: O_16  and  C_17
REMARK    8  A    between atoms: C_19  and  O_20
REMARK    9  A    between atoms: O_20  and  C_21
REMARK   10  A    between atoms: N_30  and  C_31
REMARK                            x       y       z     vdW  Elec       q    Type
REMARK                         _______ _______ _______ _____ _____    ______ ____
ROOT
ATOM      1  C   UNL     1      -0.684  11.186  19.090  0.00  0.00    +0.000 C 
ATOM      2  C   UNL     1      -0.790  11.906  20.461  0.00  0.00    +0.000 C 
ATOM      3  C   UNL     1      -2.125  12.588  20.703  0.00  0.00    +0.000 A 
ATOM      4  C   UNL     1      -2.346  13.336  21.876  0.00  0.00    +0.000 A 
ATOM      5  C   UNL     1      -3.598  13.906  22.137  0.00  0.00    +0.000 A 
ATOM      6  C   UNL     1      -4.644  13.743  21.233  0.00  0.00    +0.000 A 
ATOM      7  C   UNL     1      -4.442  12.999  20.074  0.00  0.00    +0.000 A 
ATOM      8  C   UNL     1      -3.196  12.401  19.823  0.00  0.00    +0.000 A 
ATOM      9  C   UNL     1      -3.090  11.498  18.655  0.00  0.00    +0.000 C 
ATOM     10  O   UNL     1      -3.990  11.485  17.819  0.00  0.00    +0.000 OA
ATOM     11  N   UNL     1      -1.976  10.660  18.598  0.00  0.00    +0.000 N 
ATOM     12  C   UNL     1      -1.980   9.715  17.483  0.00  0.00    +0.000 C 
ENDROOT
BRANCH   1  16
ATOM     13  C   UNL     1       2.209   7.942  18.886  0.00  0.00    +0.000 A 
ATOM     14  C   UNL     1       1.493   8.161  20.061  0.00  0.00    +0.000 A 
ATOM     15  C   UNL     1       0.586   9.221  20.154  0.00  0.00    +0.000 A 
ATOM     16  C   UNL     1       0.407  10.105  19.079  0.00  0.00    +0.000 A 
ATOM     17  C   UNL     1       1.183   9.910  17.922  0.00  0.00    +0.000 A 
ATOM     18  C   UNL     1       2.071   8.833  17.825  0.00  0.00    +0.000 A 
BRANCH  13  20
ATOM     19  C   UNL     1       2.603   5.767  19.706  0.00  0.00    +0.000 C 
ATOM     20  O   UNL     1       3.036   6.851  18.891  0.00  0.00    +0.000 OA
ENDBRANCH  13  20
ENDBRANCH   1  16
BRANCH   2  21
ATOM     21  C   UNL     1       0.406  12.854  20.580  0.00  0.00    +0.000 C 
ATOM     22  O   UNL     1       1.155  12.797  21.554  0.00  0.00    +0.000 OA
ATOM     23  N   UNL     1       0.555  13.756  19.537  0.00  0.00    +0.000 N 
ATOM     24  H   UNL     1      -0.275  14.036  19.028  0.00  0.00    +0.000 HD
BRANCH  23  25
ATOM     25  C   UNL     1       1.674  14.607  19.410  0.00  0.00    +0.000 A 
ATOM     26  C   UNL     1       2.783  14.189  18.665  0.00  0.00    +0.000 A 
ATOM     27  C   UNL     1       3.835  15.070  18.408  0.00  0.00    +0.000 A 
ATOM     28  C   UNL     1       3.812  16.370  18.908  0.00  0.00    +0.000 A 
ATOM     29  C   UNL     1       2.719  16.787  19.671  0.00  0.00    +0.000 A 
ATOM     30  C   UNL     1       1.649  15.914  19.922  0.00  0.00    +0.000 A 
BRANCH  28  31
ATOM     31  O   UNL     1       4.902  17.131  18.577  0.00  0.00    +0.000 OA
ATOM     32  C   UNL     1       5.919  17.272  19.563  0.00  0.00    +0.000 C 
ENDBRANCH  28  31
BRANCH  30  33
ATOM     33  O   UNL     1       0.617  16.454  20.649  0.00  0.00    +0.000 OA
ATOM     34  C   UNL     1       0.738  16.324  22.065  0.00  0.00    +0.000 C 
ENDBRANCH  30  33
ENDBRANCH  23  25
ENDBRANCH   2  21
TORSDOF 6
ENDMDL
MODEL 2
REMARK VINA RESULT:      -6.5      1.447      1.689
REMARK  Name = 
REMARK  10 active torsions:
REMARK  status: ('A' for Active; 'I' for Inactive)
REMARK    1  A    between atoms: C_1  and  O_2
REMARK    2  A    between atoms: O_2  and  C_3
REMARK    3  A    between atoms: C_6  and  C_7
REMARK    4  A    between atoms: C_8  and  C_9
REMARK    5  A    between atoms: N_11  and  C_12
REMARK    6  A    between atoms: C_15  and  O_16
REMARK    7  A    between atoms: O_16  and  C_17
REMARK    8  A    between atoms: C_19  and  O_20
REMARK    9  A    between atoms: O_20  and  C_21
REMARK   10  A    between atoms: N_30  and  C_31
REMARK                            x       y       z     vdW  Elec       q    Type
REMARK                         _______ _______ _______ _____ _____    ______ ____
ROOT
ATOM      1  C   UNL     1      -1.805  11.464  18.910  0.00  0.00    +0.000 C 
ATOM      2  C   UNL     1      -2.173  12.333  20.142  0.00  0.00    +0.000 C 
ATOM      3  C   UNL     1      -3.593  12.870  20.121  0.00  0.00    +0.000 A 
ATOM      4  C   UNL     1      -4.050  13.728  21.141  0.00  0.00    +0.000 A 
ATOM      5  C   UNL     1      -5.379  14.168  21.165  0.00  0.00    +0.000 A 
ATOM      6  C   UNL     1      -6.269  13.764  20.174  0.00  0.00    +0.000 A 
ATOM      7  C   UNL     1      -5.832  12.909  19.165  0.00  0.00    +0.000 A 
ATOM      8  C   UNL     1      -4.508  12.443  19.154  0.00  0.00    +0.000 A 
ATOM      9  C   UNL     1      -4.148  11.418  18.147  0.00  0.00    +0.000 C 
ATOM     10  O   UNL     1      -4.920  11.189  17.219  0.00  0.00    +0.000 OA
ATOM     11  N   UNL     1      -2.955  10.724  18.344  0.00  0.00    +0.000 N 
ATOM     12  C   UNL     1      -2.707   9.653  17.383  0.00  0.00    +0.000 C 
ENDROOT
BRANCH   1  16
ATOM     13  C   UNL     1       1.411   8.598  19.527  0.00  0.00    +0.000 A 
ATOM     14  C   UNL     1       0.543   8.905  20.574  0.00  0.00    +0.000 A 
ATOM     15  C   UNL     1      -0.473   9.850  20.401  0.00  0.00    +0.000 A 
ATOM     16  C   UNL     1      -0.615  10.533  19.184  0.00  0.00    +0.000 A 
ATOM     17  C   UNL     1       0.307  10.260  18.157  0.00  0.00    +0.000 A 
ATOM     18  C   UNL     1       1.307   9.296  18.326  0.00  0.00    +0.000 A 
BRANCH  13  20
ATOM     19  C   UNL     1       2.723   6.835  18.674  0.00  0.00    +0.000 C 
ATOM     20  O   UNL     1       2.340   7.629  19.792  0.00  0.00    +0.000 OA
ENDBRANCH  13  20
ENDBRANCH   1  16
BRANCH   2  21
ATOM     21  C   UNL     1      -1.111  13.429  20.268  0.00  0.00    +0.000 C 
ATOM     22  O   UNL     1      -0.706  13.783  21.375  0.00  0.00    +0.000 OA
ATOM     23  N   UNL     1      -0.674  13.974  19.070  0.00  0.00    +0.000 N 
ATOM     24  H   UNL     1      -1.311  13.964  18.282  0.00  0.00    +0.000 HD
BRANCH  23  25
ATOM     25  C   UNL     1       0.395  14.892  18.988  0.00  0.00    +0.000 A 
ATOM     26  C   UNL     1       1.713  14.434  19.100  0.00  0.00    +0.000 A 
ATOM     27  C   UNL     1       2.785  15.300  18.877  0.00  0.00    +0.000 A 
ATOM     28  C   UNL     1       2.562  16.639  18.564  0.00  0.00    +0.000 A 
ATOM     29  C   UNL     1       1.251  17.109  18.472  0.00  0.00    +0.000 A 
ATOM     30  C   UNL     1       0.166  16.243  18.679  0.00  0.00    +0.000 A 
BRANCH  28  31
ATOM     31  O   UNL     1       3.699  17.376  18.363  0.00  0.00    +0.000 OA
ATOM     32  C   UNL     1       4.939  16.760  18.696  0.00  0.00    +0.000 C 
ENDBRANCH  28  31
BRANCH  30  33
ATOM     33  O   UNL     1      -1.073  16.814  18.522  0.00  0.00    +0.000 OA
ATOM     34  C   UNL     1      -1.068  18.221  18.287  0.00  0.00    +0.000 C 
ENDBRANCH  30  33
ENDBRANCH  23  25
ENDBRANCH   2  21
TORSDOF 6
ENDMDL
MODEL 3
REMARK VINA RESULT:      -6.5      2.251      7.062
REMARK  Name = 
REMARK  10 active torsions:
REMARK  status: ('A' for Active; 'I' for Inactive)
REMARK    1  A    between atoms: C_1  and  O_2
REMARK    2  A    between atoms: O_2  and  C_3
REMARK    3  A    between atoms: C_6  and  C_7
REMARK    4  A    between atoms: C_8  and  C_9
REMARK    5  A    between atoms: N_11  and  C_12
REMARK    6  A    between atoms: C_15  and  O_16
REMARK    7  A    between atoms: O_16  and  C_17
REMARK    8  A    between atoms: C_19  and  O_20
REMARK    9  A    between atoms: O_20  and  C_21
REMARK   10  A    between atoms: N_30  and  C_31
REMARK                            x       y       z     vdW  Elec       q    Type
REMARK                         _______ _______ _______ _____ _____    ______ ____
ROOT
ATOM      1  C   UNL     1      -1.217  14.683  19.864  0.00  0.00    +0.000 C 
ATOM      2  C   UNL     1       0.260  14.225  19.740  0.00  0.00    +0.000 C 
ATOM      3  C   UNL     1       1.136  15.164  18.930  0.00  0.00    +0.000 A 
ATOM      4  C   UNL     1       2.485  14.847  18.677  0.00  0.00    +0.000 A 
ATOM      5  C   UNL     1       3.315  15.743  17.994  0.00  0.00    +0.000 A 
ATOM      6  C   UNL     1       2.814  16.964  17.550  0.00  0.00    +0.000 A 
ATOM      7  C   UNL     1       1.486  17.294  17.802  0.00  0.00    +0.000 A 
ATOM      8  C   UNL     1       0.657  16.410  18.512  0.00  0.00    +0.000 A 
ATOM      9  C   UNL     1      -0.697  16.882  18.881  0.00  0.00    +0.000 C 
ATOM     10  O   UNL     1      -1.140  17.904  18.363  0.00  0.00    +0.000 OA
ATOM     11  N   UNL     1      -1.382  16.153  19.853  0.00  0.00    +0.000 N 
ATOM     12  C   UNL     1      -2.664  16.728  20.254  0.00  0.00    +0.000 C 
ENDROOT
BRANCH   1  16
ATOM     13  C   UNL     1      -3.048  12.618  23.229  0.00  0.00    +0.000 A 
ATOM     14  C   UNL     1      -3.725  12.703  22.014  0.00  0.00    +0.000 A 
ATOM     15  C   UNL     1      -3.165  13.393  20.934  0.00  0.00    +0.000 A 
ATOM     16  C   UNL     1      -1.929  14.045  21.066  0.00  0.00    +0.000 A 
ATOM     17  C   UNL     1      -1.287  14.005  22.316  0.00  0.00    +0.000 A 
ATOM     18  C   UNL     1      -1.839  13.292  23.387  0.00  0.00    +0.000 A 
BRANCH  13  20
ATOM     19  C   UNL     1      -4.874  12.442  24.709  0.00  0.00    +0.000 C 
ATOM     20  O   UNL     1      -3.667  11.882  24.202  0.00  0.00    +0.000 OA
ENDBRANCH  13  20
ENDBRANCH   1  16
BRANCH   2  21
ATOM     21  C   UNL     1       0.255  12.789  19.206  0.00  0.00    +0.000 C 
ATOM     22  O   UNL     1      -0.443  12.483  18.241  0.00  0.00    +0.000 OA
ATOM     23  N   UNL     1       1.068  11.898  19.891  0.00  0.00    +0.000 N 
ATOM     24  H   UNL     1       1.258  12.082  20.868  0.00  0.00    +0.000 HD
BRANCH  23  25
ATOM     25  C   UNL     1       1.294  10.574  19.456  0.00  0.00    +0.000 A 
ATOM     26  C   UNL     1       1.777  10.341  18.164  0.00  0.00    +0.000 A 
ATOM     27  C   UNL     1       2.143   9.054  17.766  0.00  0.00    +0.000 A 
ATOM     28  C   UNL     1       2.011   7.976  18.640  0.00  0.00    +0.000 A 
ATOM     29  C   UNL     1       1.509   8.198  19.924  0.00  0.00    +0.000 A 
ATOM     30  C   UNL     1       1.153   9.490  20.338  0.00  0.00    +0.000 A 
BRANCH  28  31
ATOM     31  O   UNL     1       2.413   6.771  18.127  0.00  0.00    +0.000 OA
ATOM     32  C   UNL     1       2.654   5.719  19.055  0.00  0.00    +0.000 C 
ENDBRANCH  28  31
BRANCH  30  33
ATOM     33  O   UNL     1       0.711   9.584  21.635  0.00  0.00    +0.000 OA
ATOM     34  C   UNL     1      -0.391   8.740  21.964  0.00  0.00    +0.000 C 
ENDBRANCH  30  33
ENDBRANCH  23  25
ENDBRANCH   2  21
TORSDOF 6
ENDMDL
MODEL 4
REMARK VINA RESULT:      -6.5      4.064      8.369
REMARK  Name = 
REMARK  10 active torsions:
REMARK  status: ('A' for Active; 'I' for Inactive)
REMARK    1  A    between atoms: C_1  and  O_2
REMARK    2  A    between atoms: O_2  and  C_3
REMARK    3  A    between atoms: C_6  and  C_7
REMARK    4  A    between atoms: C_8  and  C_9
REMARK    5  A    between atoms: N_11  and  C_12
REMARK    6  A    between atoms: C_15  and  O_16
REMARK    7  A    between atoms: O_16  and  C_17
REMARK    8  A    between atoms: C_19  and  O_20
REMARK    9  A    between atoms: O_20  and  C_21
REMARK   10  A    between atoms: N_30  and  C_31
REMARK                            x       y       z     vdW  Elec       q    Type
REMARK                         _______ _______ _______ _____ _____    ______ ____
ROOT
ATOM      1  C   UNL     1       4.525   5.411  17.709  0.00  0.00    +0.000 C 
ATOM      2  C   UNL     1       3.551   5.665  18.890  0.00  0.00    +0.000 C 
ATOM      3  C   UNL     1       2.532   4.559  19.102  0.00  0.00    +0.000 A 
ATOM      4  C   UNL     1       1.541   4.679  20.096  0.00  0.00    +0.000 A 
ATOM      5  C   UNL     1       0.645   3.633  20.344  0.00  0.00    +0.000 A 
ATOM      6  C   UNL     1       0.720   2.455  19.605  0.00  0.00    +0.000 A 
ATOM      7  C   UNL     1       1.701   2.320  18.626  0.00  0.00    +0.000 A 
ATOM      8  C   UNL     1       2.620   3.357  18.394  0.00  0.00    +0.000 A 
ATOM      9  C   UNL     1       3.730   3.093  17.451  0.00  0.00    +0.000 C 
ATOM     10  O   UNL     1       3.685   2.099  16.730  0.00  0.00    +0.000 OA
ATOM     11  N   UNL     1       4.808   3.978  17.473  0.00  0.00    +0.000 N 
ATOM     12  C   UNL     1       5.920   3.607  16.601  0.00  0.00    +0.000 C 
ENDROOT
BRANCH   1  16
ATOM     13  C   UNL     1       8.072   7.857  18.323  0.00  0.00    +0.000 A 
ATOM     14  C   UNL     1       7.141   8.215  17.349  0.00  0.00    +0.000 A 
ATOM     15  C   UNL     1       6.015   7.419  17.116  0.00  0.00    +0.000 A 
ATOM     16  C   UNL     1       5.820   6.228  17.832  0.00  0.00    +0.000 A 
ATOM     17  C   UNL     1       6.799   5.846  18.766  0.00  0.00    +0.000 A 
ATOM     18  C   UNL     1       7.912   6.658  19.014  0.00  0.00    +0.000 A 
BRANCH  13  20
ATOM     19  C   UNL     1       8.784  10.104  18.330  0.00  0.00    +0.000 C 
ATOM     20  O   UNL     1       9.112   8.729  18.497  0.00  0.00    +0.000 OA
ENDBRANCH  13  20
ENDBRANCH   1  16
BRANCH   2  21
ATOM     21  C   UNL     1       2.917   7.042  18.678  0.00  0.00    +0.000 C 
ATOM     22  O   UNL     1       3.032   7.625  17.601  0.00  0.00    +0.000 OA
ATOM     23  N   UNL     1       2.237   7.558  19.772  0.00  0.00    +0.000 N 
ATOM     24  H   UNL     1       2.529   7.263  20.696  0.00  0.00    +0.000 HD
BRANCH  23  25
ATOM     25  C   UNL     1       1.477   8.746  19.714  0.00  0.00    +0.000 A 
ATOM     26  C   UNL     1       1.168   9.312  18.472  0.00  0.00    +0.000 A 
ATOM     27  C   UNL     1       0.299  10.401  18.387  0.00  0.00    +0.000 A 
ATOM     28  C   UNL     1      -0.256  10.958  19.538  0.00  0.00    +0.000 A 
ATOM     29  C   UNL     1       0.065  10.412  20.782  0.00  0.00    +0.000 A 
ATOM     30  C   UNL     1       0.925   9.308  20.877  0.00  0.00    +0.000 A 
BRANCH  28  31
ATOM     31  O   UNL     1      -1.097  12.016  19.313  0.00  0.00    +0.000 OA
ATOM     32  C   UNL     1      -2.418  11.715  18.876  0.00  0.00    +0.000 C 
ENDBRANCH  28  31
BRANCH  30  33
ATOM     33  O   UNL     1       1.131   8.839  22.151  0.00  0.00    +0.000 OA
ATOM     34  C   UNL     1       0.271   9.389  23.148  0.00  0.00    +0.000 C 
ENDBRANCH  30  33
ENDBRANCH  23  25
ENDBRANCH   2  21
TORSDOF 6
ENDMDL
MODEL 5
REMARK VINA RESULT:      -6.5      1.529      2.178
REMARK  Name = 
REMARK  10 active torsions:
REMARK  status: ('A' for Active; 'I' for Inactive)
REMARK    1  A    between atoms: C_1  and  O_2
REMARK    2  A    between atoms: O_2  and  C_3
REMARK    3  A    between atoms: C_6  and  C_7
REMARK    4  A    between atoms: C_8  and  C_9
REMARK    5  A    between atoms: N_11  and  C_12
REMARK    6  A    between atoms: C_15  and  O_16
REMARK    7  A    between atoms: O_16  and  C_17
REMARK    8  A    between atoms: C_19  and  O_20
REMARK    9  A    between atoms: O_20  and  C_21
REMARK   10  A    between atoms: N_30  and  C_31
REMARK                            x       y       z     vdW  Elec       q    Type
REMARK                         _______ _______ _______ _____ _____    ______ ____
ROOT
ATOM      1  C   UNL     1      -1.892  11.473  18.829  0.00  0.00    +0.000 C 
ATOM      2  C   UNL     1      -2.341  12.224  20.110  0.00  0.00    +0.000 C 
ATOM      3  C   UNL     1      -3.786  12.691  20.082  0.00  0.00    +0.000 A 
ATOM      4  C   UNL     1      -4.318  13.443  21.148  0.00  0.00    +0.000 A 
ATOM      5  C   UNL     1      -5.668  13.813  21.159  0.00  0.00    +0.000 A 
ATOM      6  C   UNL     1      -6.505  13.444  20.110  0.00  0.00    +0.000 A 
ATOM      7  C   UNL     1      -5.994  12.693  19.055  0.00  0.00    +0.000 A 
ATOM      8  C   UNL     1      -4.647  12.295  19.053  0.00  0.00    +0.000 A 
ATOM      9  C   UNL     1      -4.205  11.372  17.984  0.00  0.00    +0.000 C 
ATOM     10  O   UNL     1      -4.935  11.178  17.015  0.00  0.00    +0.000 OA
ATOM     11  N   UNL     1      -2.983  10.724  18.169  0.00  0.00    +0.000 N 
ATOM     12  C   UNL     1      -2.651   9.744  17.137  0.00  0.00    +0.000 C 
ENDROOT
BRANCH   1  16
ATOM     13  C   UNL     1       1.433   8.718  19.367  0.00  0.00    +0.000 A 
ATOM     14  C   UNL     1       0.595   9.013  20.441  0.00  0.00    +0.000 A 
ATOM     15  C   UNL     1      -0.456   9.923  20.292  0.00  0.00    +0.000 A 
ATOM     16  C   UNL     1      -0.664  10.584  19.072  0.00  0.00    +0.000 A 
ATOM     17  C   UNL     1       0.229  10.325  18.016  0.00  0.00    +0.000 A 
ATOM     18  C   UNL     1       1.265   9.394  18.161  0.00  0.00    +0.000 A 
BRANCH  13  20
ATOM     19  C   UNL     1       2.596   6.827  18.573  0.00  0.00    +0.000 C 
ATOM     20  O   UNL     1       2.401   7.781  19.611  0.00  0.00    +0.000 OA
ENDBRANCH  13  20
ENDBRANCH   1  16
BRANCH   2  21
ATOM     21  C   UNL     1      -1.342  13.358  20.357  0.00  0.00    +0.000 C 
ATOM     22  O   UNL     1      -0.741  13.441  21.427  0.00  0.00    +0.000 OA
ATOM     23  N   UNL     1      -1.192  14.256  19.310  0.00  0.00    +0.000 N 
ATOM     24  H   UNL     1      -1.975  14.388  18.681  0.00  0.00    +0.000 HD
BRANCH  23  25
ATOM     25  C   UNL     1      -0.218  15.278  19.307  0.00  0.00    +0.000 A 
ATOM     26  C   UNL     1      -0.542  16.546  19.802  0.00  0.00    +0.000 A 
ATOM     27  C   UNL     1       0.445  17.524  19.942  0.00  0.00    +0.000 A 
ATOM     28  C   UNL     1       1.762  17.263  19.569  0.00  0.00    +0.000 A 
ATOM     29  C   UNL     1       2.087  16.007  19.053  0.00  0.00    +0.000 A 
ATOM     30  C   UNL     1       1.106  15.012  18.923  0.00  0.00    +0.000 A 
BRANCH  28  31
ATOM     31  O   UNL     1       2.629  18.305  19.765  0.00  0.00    +0.000 OA
ATOM     32  C   UNL     1       3.548  18.190  20.846  0.00  0.00    +0.000 C 
ENDBRANCH  28  31
BRANCH  30  33
ATOM     33  O   UNL     1       1.559  13.808  18.442  0.00  0.00    +0.000 OA
ATOM     34  C   UNL     1       2.280  13.011  19.380  0.00  0.00    +0.000 C 
ENDBRANCH  30  33
ENDBRANCH  23  25
ENDBRANCH   2  21
TORSDOF 6
ENDMDL
MODEL 6
REMARK VINA RESULT:      -6.3      1.020      1.644
REMARK  Name = 
REMARK  10 active torsions:
REMARK  status: ('A' for Active; 'I' for Inactive)
REMARK    1  A    between atoms: C_1  and  O_2
REMARK    2  A    between atoms: O_2  and  C_3
REMARK    3  A    between atoms: C_6  and  C_7
REMARK    4  A    between atoms: C_8  and  C_9
REMARK    5  A    between atoms: N_11  and  C_12
REMARK    6  A    between atoms: C_15  and  O_16
REMARK    7  A    between atoms: O_16  and  C_17
REMARK    8  A    between atoms: C_19  and  O_20
REMARK    9  A    between atoms: O_20  and  C_21
REMARK   10  A    between atoms: N_30  and  C_31
REMARK                            x       y       z     vdW  Elec       q    Type
REMARK                         _______ _______ _______ _____ _____    ______ ____
ROOT
ATOM      1  C   UNL     1      -0.831  11.246  19.069  0.00  0.00    +0.000 C 
ATOM      2  C   UNL     1      -0.980  11.950  20.444  0.00  0.00    +0.000 C 
ATOM      3  C   UNL     1      -2.334  12.602  20.663  0.00  0.00    +0.000 A 
ATOM      4  C   UNL     1      -2.596  13.334  21.838  0.00  0.00    +0.000 A 
ATOM      5  C   UNL     1      -3.864  13.875  22.078  0.00  0.00    +0.000 A 
ATOM      6  C   UNL     1      -4.888  13.698  21.151  0.00  0.00    +0.000 A 
ATOM      7  C   UNL     1      -4.645  12.969  19.990  0.00  0.00    +0.000 A 
ATOM      8  C   UNL     1      -3.382  12.401  19.760  0.00  0.00    +0.000 A 
ATOM      9  C   UNL     1      -3.233  11.511  18.586  0.00  0.00    +0.000 C 
ATOM     10  O   UNL     1      -4.115  11.487  17.732  0.00  0.00    +0.000 OA
ATOM     11  N   UNL     1      -2.100  10.697  18.545  0.00  0.00    +0.000 N 
ATOM     12  C   UNL     1      -2.061   9.763  17.422  0.00  0.00    +0.000 C 
ENDROOT
BRANCH   1  16
ATOM     13  C   UNL     1       2.124   8.055  18.921  0.00  0.00    +0.000 A 
ATOM     14  C   UNL     1       1.453   8.325  20.112  0.00  0.00    +0.000 A 
ATOM     15  C   UNL     1       0.527   9.371  20.185  0.00  0.00    +0.000 A 
ATOM     16  C   UNL     1       0.283  10.189  19.071  0.00  0.00    +0.000 A 
ATOM     17  C   UNL     1       1.015   9.945  17.895  0.00  0.00    +0.000 A 
ATOM     18  C   UNL     1       1.922   8.882  17.819  0.00  0.00    +0.000 A 
BRANCH  13  20
ATOM     19  C   UNL     1       3.754   6.795  17.774  0.00  0.00    +0.000 C 
ATOM     20  O   UNL     1       2.975   6.983  18.951  0.00  0.00    +0.000 OA
ENDBRANCH  13  20
ENDBRANCH   1  16
BRANCH   2  21
ATOM     21  C   UNL     1       0.193  12.923  20.596  0.00  0.00    +0.000 C 
ATOM     22  O   UNL     1       1.152  12.639  21.312  0.00  0.00    +0.000 OA
ATOM     23  N   UNL     1       0.075  14.111  19.890  0.00  0.00    +0.000 N 
ATOM     24  H   UNL     1      -0.857  14.456  19.692  0.00  0.00    +0.000 HD
BRANCH  23  25
ATOM     25  C   UNL     1       1.117  15.060  19.802  0.00  0.00    +0.000 A 
ATOM     26  C   UNL     1       1.210  16.079  20.757  0.00  0.00    +0.000 A 
ATOM     27  C   UNL     1       2.311  16.936  20.772  0.00  0.00    +0.000 A 
ATOM     28  C   UNL     1       3.323  16.808  19.823  0.00  0.00    +0.000 A 
ATOM     29  C   UNL     1       3.226  15.809  18.854  0.00  0.00    +0.000 A 
ATOM     30  C   UNL     1       2.131  14.932  18.839  0.00  0.00    +0.000 A 
BRANCH  28  31
ATOM     31  O   UNL     1       4.348  17.708  19.955  0.00  0.00    +0.000 OA
ATOM     32  C   UNL     1       5.305  17.456  20.979  0.00  0.00    +0.000 C 
ENDBRANCH  28  31
BRANCH  30  33
ATOM     33  O   UNL     1       2.170  13.967  17.863  0.00  0.00    +0.000 OA
ATOM     34  C   UNL     1       2.986  12.835  18.159  0.00  0.00    +0.000 C 
ENDBRANCH  30  33
ENDBRANCH  23  25
ENDBRANCH   2  21
TORSDOF 6
ENDMDL
MODEL 7
REMARK VINA RESULT:      -6.3      1.982      5.685
REMARK  Name = 
REMARK  10 active torsions:
REMARK  status: ('A' for Active; 'I' for Inactive)
REMARK    1  A    between atoms: C_1  and  O_2
REMARK    2  A    between atoms: O_2  and  C_3
REMARK    3  A    between atoms: C_6  and  C_7
REMARK    4  A    between atoms: C_8  and  C_9
REMARK    5  A    between atoms: N_11  and  C_12
REMARK    6  A    between atoms: C_15  and  O_16
REMARK    7  A    between atoms: O_16  and  C_17
REMARK    8  A    between atoms: C_19  and  O_20
REMARK    9  A    between atoms: O_20  and  C_21
REMARK   10  A    between atoms: N_30  and  C_31
REMARK                            x       y       z     vdW  Elec       q    Type
REMARK                         _______ _______ _______ _____ _____    ______ ____
ROOT
ATOM      1  C   UNL     1      -0.117  11.846  21.111  0.00  0.00    +0.000 C 
ATOM      2  C   UNL     1       0.295  11.649  19.628  0.00  0.00    +0.000 C 
ATOM      3  C   UNL     1       1.000  10.333  19.348  0.00  0.00    +0.000 A 
ATOM      4  C   UNL     1       1.490  10.042  18.060  0.00  0.00    +0.000 A 
ATOM      5  C   UNL     1       2.076   8.802  17.780  0.00  0.00    +0.000 A 
ATOM      6  C   UNL     1       2.186   7.838  18.778  0.00  0.00    +0.000 A 
ATOM      7  C   UNL     1       1.698   8.109  20.053  0.00  0.00    +0.000 A 
ATOM      8  C   UNL     1       1.083   9.341  20.330  0.00  0.00    +0.000 A 
ATOM      9  C   UNL     1       0.449   9.510  21.657  0.00  0.00    +0.000 C 
ATOM     10  O   UNL     1       0.680   8.692  22.544  0.00  0.00    +0.000 OA
ATOM     11  N   UNL     1      -0.433  10.580  21.809  0.00  0.00    +0.000 N 
ATOM     12  C   UNL     1      -1.111  10.633  23.102  0.00  0.00    +0.000 C 
ENDROOT
BRANCH   1  16
ATOM     13  C   UNL     1      -3.386  14.622  21.847  0.00  0.00    +0.000 A 
ATOM     14  C   UNL     1      -3.532  13.612  20.897  0.00  0.00    +0.000 A 
ATOM     15  C   UNL     1      -2.478  12.734  20.624  0.00  0.00    +0.000 A 
ATOM     16  C   UNL     1      -1.243  12.877  21.274  0.00  0.00    +0.000 A 
ATOM     17  C   UNL     1      -1.089  13.939  22.183  0.00  0.00    +0.000 A 
ATOM     18  C   UNL     1      -2.154  14.800  22.472  0.00  0.00    +0.000 A 
BRANCH  13  20
ATOM     19  C   UNL     1      -5.736  14.701  22.012  0.00  0.00    +0.000 C 
ATOM     20  O   UNL     1      -4.494  15.394  22.066  0.00  0.00    +0.000 OA
ENDBRANCH  13  20
ENDBRANCH   1  16
BRANCH   2  21
ATOM     21  C   UNL     1       1.109  12.875  19.207  0.00  0.00    +0.000 C 
ATOM     22  O   UNL     1       0.626  13.719  18.453  0.00  0.00    +0.000 OA
ATOM     23  N   UNL     1       2.396  12.940  19.722  0.00  0.00    +0.000 N 
ATOM     24  H   UNL     1       2.859  12.069  19.954  0.00  0.00    +0.000 HD
BRANCH  23  25
ATOM     25  C   UNL     1       3.236  14.061  19.553  0.00  0.00    +0.000 A 
ATOM     26  C   UNL     1       3.981  14.200  18.376  0.00  0.00    +0.000 A 
ATOM     27  C   UNL     1       4.703  15.369  18.129  0.00  0.00    +0.000 A 
ATOM     28  C   UNL     1       4.714  16.407  19.060  0.00  0.00    +0.000 A 
ATOM     29  C   UNL     1       3.992  16.266  20.246  0.00  0.00    +0.000 A 
ATOM     30  C   UNL     1       3.250  15.101  20.497  0.00  0.00    +0.000 A 
BRANCH  28  31
ATOM     31  O   UNL     1       5.456  17.498  18.690  0.00  0.00    +0.000 OA
ATOM     32  C   UNL     1       6.869  17.397  18.824  0.00  0.00    +0.000 C 
ENDBRANCH  28  31
BRANCH  30  33
ATOM     33  O   UNL     1       2.551  15.100  21.679  0.00  0.00    +0.000 OA
ATOM     34  C   UNL     1       1.872  16.317  21.984  0.00  0.00    +0.000 C 
ENDBRANCH  30  33
ENDBRANCH  23  25
ENDBRANCH   2  21
TORSDOF 6
ENDMDL
MODEL 8
REMARK VINA RESULT:      -6.2      1.856      6.128
REMARK  Name = 
REMARK  10 active torsions:
REMARK  status: ('A' for Active; 'I' for Inactive)
REMARK    1  A    between atoms: C_1  and  O_2
REMARK    2  A    between atoms: O_2  and  C_3
REMARK    3  A    between atoms: C_6  and  C_7
REMARK    4  A    between atoms: C_8  and  C_9
REMARK    5  A    between atoms: N_11  and  C_12
REMARK    6  A    between atoms: C_15  and  O_16
REMARK    7  A    between atoms: O_16  and  C_17
REMARK    8  A    between atoms: C_19  and  O_20
REMARK    9  A    between atoms: O_20  and  C_21
REMARK   10  A    between atoms: N_30  and  C_31
REMARK                            x       y       z     vdW  Elec       q    Type
REMARK                         _______ _______ _______ _____ _____    ______ ____
ROOT
ATOM      1  C   UNL     1      -1.276  12.742  20.186  0.00  0.00    +0.000 C 
ATOM      2  C   UNL     1      -1.878  12.186  18.869  0.00  0.00    +0.000 C 
ATOM      3  C   UNL     1      -3.383  11.990  18.908  0.00  0.00    +0.000 A 
ATOM      4  C   UNL     1      -4.063  11.432  17.807  0.00  0.00    +0.000 A 
ATOM      5  C   UNL     1      -5.458  11.317  17.810  0.00  0.00    +0.000 A 
ATOM      6  C   UNL     1      -6.195  11.752  18.908  0.00  0.00    +0.000 A 
ATOM      7  C   UNL     1      -5.537  12.314  19.998  0.00  0.00    +0.000 A 
ATOM      8  C   UNL     1      -4.140  12.457  19.987  0.00  0.00    +0.000 A 
ATOM      9  C   UNL     1      -3.516  13.200  21.106  0.00  0.00    +0.000 C 
ATOM     10  O   UNL     1      -4.181  13.451  22.108  0.00  0.00    +0.000 OA
ATOM     11  N   UNL     1      -2.199  13.626  20.931  0.00  0.00    +0.000 N 
ATOM     12  C   UNL     1      -1.674  14.447  22.020  0.00  0.00    +0.000 C 
ENDROOT
BRANCH   1  16
ATOM     13  C   UNL     1       2.643  14.428  19.328  0.00  0.00    +0.000 A 
ATOM     14  C   UNL     1       2.481  13.560  20.407  0.00  0.00    +0.000 A 
ATOM     15  C   UNL     1       1.221  13.038  20.717  0.00  0.00    +0.000 A 
ATOM     16  C   UNL     1       0.091  13.407  19.971  0.00  0.00    +0.000 A 
ATOM     17  C   UNL     1       0.259  14.333  18.925  0.00  0.00    +0.000 A 
ATOM     18  C   UNL     1       1.525  14.834  18.603  0.00  0.00    +0.000 A 
BRANCH  13  20
ATOM     19  C   UNL     1       4.198  15.225  17.746  0.00  0.00    +0.000 C 
ATOM     20  O   UNL     1       3.925  14.844  19.090  0.00  0.00    +0.000 OA
ENDBRANCH  13  20
ENDBRANCH   1  16
BRANCH   2  21
ATOM     21  C   UNL     1      -1.110  10.910  18.512  0.00  0.00    +0.000 C 
ATOM     22  O   UNL     1      -1.320  10.331  17.447  0.00  0.00    +0.000 OA
ATOM     23  N   UNL     1      -0.201  10.477  19.465  0.00  0.00    +0.000 N 
ATOM     24  H   UNL     1      -0.376  10.717  20.434  0.00  0.00    +0.000 HD
BRANCH  23  25
ATOM     25  C   UNL     1       0.691   9.404  19.247  0.00  0.00    +0.000 A 
ATOM     26  C   UNL     1       1.385   9.315  18.035  0.00  0.00    +0.000 A 
ATOM     27  C   UNL     1       2.375   8.347  17.856  0.00  0.00    +0.000 A 
ATOM     28  C   UNL     1       2.672   7.439  18.870  0.00  0.00    +0.000 A 
ATOM     29  C   UNL     1       1.967   7.508  20.074  0.00  0.00    +0.000 A 
ATOM     30  C   UNL     1       0.981   8.486  20.269  0.00  0.00    +0.000 A 
BRANCH  28  31
ATOM     31  O   UNL     1       3.667   6.548  18.567  0.00  0.00    +0.000 OA
ATOM     32  C   UNL     1       3.732   5.358  19.346  0.00  0.00    +0.000 C 
ENDBRANCH  28  31
BRANCH  30  33
ATOM     33  O   UNL     1       0.389   8.476  21.508  0.00  0.00    +0.000 OA
ATOM     34  C   UNL     1       1.111   9.157  22.533  0.00  0.00    +0.000 C 
ENDBRANCH  30  33
ENDBRANCH  23  25
ENDBRANCH   2  21
TORSDOF 6
ENDMDL
MODEL 9
REMARK VINA RESULT:      -6.2      1.491      2.273
REMARK  Name = 
REMARK  10 active torsions:
REMARK  status: ('A' for Active; 'I' for Inactive)
REMARK    1  A    between atoms: C_1  and  O_2
REMARK    2  A    between atoms: O_2  and  C_3
REMARK    3  A    between atoms: C_6  and  C_7
REMARK    4  A    between atoms: C_8  and  C_9
REMARK    5  A    between atoms: N_11  and  C_12
REMARK    6  A    between atoms: C_15  and  O_16
REMARK    7  A    between atoms: O_16  and  C_17
REMARK    8  A    between atoms: C_19  and  O_20
REMARK    9  A    between atoms: O_20  and  C_21
REMARK   10  A    between atoms: N_30  and  C_31
REMARK                            x       y       z     vdW  Elec       q    Type
REMARK                         _______ _______ _______ _____ _____    ______ ____
ROOT
ATOM      1  C   UNL     1      -2.246  11.486  18.782  0.00  0.00    +0.000 C 
ATOM      2  C   UNL     1      -2.518  12.321  20.061  0.00  0.00    +0.000 C 
ATOM      3  C   UNL     1      -3.918  12.904  20.135  0.00  0.00    +0.000 A 
ATOM      4  C   UNL     1      -4.292  13.738  21.208  0.00  0.00    +0.000 A 
ATOM      5  C   UNL     1      -5.601  14.220  21.318  0.00  0.00    +0.000 A 
ATOM      6  C   UNL     1      -6.555  13.882  20.362  0.00  0.00    +0.000 A 
ATOM      7  C   UNL     1      -6.202  13.051  19.303  0.00  0.00    +0.000 A 
ATOM      8  C   UNL     1      -4.896  12.542  19.204  0.00  0.00    +0.000 A 
ATOM      9  C   UNL     1      -4.625  11.545  18.144  0.00  0.00    +0.000 C 
ATOM     10  O   UNL     1      -5.452  11.375  17.251  0.00  0.00    +0.000 OA
ATOM     11  N   UNL     1      -3.448  10.805  18.253  0.00  0.00    +0.000 N 
ATOM     12  C   UNL     1      -3.287   9.762  17.242  0.00  0.00    +0.000 C 
ENDROOT
BRANCH   1  16
ATOM     13  C   UNL     1       1.238   8.956  19.412  0.00  0.00    +0.000 A 
ATOM     14  C   UNL     1       0.941   9.423  18.133  0.00  0.00    +0.000 A 
ATOM     15  C   UNL     1      -0.194  10.208  17.909  0.00  0.00    +0.000 A 
ATOM     16  C   UNL     1      -1.075  10.508  18.959  0.00  0.00    +0.000 A 
ATOM     17  C   UNL     1      -0.798   9.976  20.231  0.00  0.00    +0.000 A 
ATOM     18  C   UNL     1       0.353   9.212  20.457  0.00  0.00    +0.000 A 
BRANCH  13  20
ATOM     19  C   UNL     1       2.220   6.835  19.726  0.00  0.00    +0.000 C 
ATOM     20  O   UNL     1       2.396   8.234  19.525  0.00  0.00    +0.000 OA
ENDBRANCH  13  20
ENDBRANCH   1  16
BRANCH   2  21
ATOM     21  C   UNL     1      -1.415  13.376  20.169  0.00  0.00    +0.000 C 
ATOM     22  O   UNL     1      -0.957  13.693  21.267  0.00  0.00    +0.000 OA
ATOM     23  N   UNL     1      -1.002  13.930  18.966  0.00  0.00    +0.000 N 
ATOM     24  H   UNL     1      -1.667  13.958  18.203  0.00  0.00    +0.000 HD
BRANCH  23  25
ATOM     25  C   UNL     1       0.096  14.812  18.862  0.00  0.00    +0.000 A 
ATOM     26  C   UNL     1      -0.122  16.195  18.874  0.00  0.00    +0.000 A 
ATOM     27  C   UNL     1       0.956  17.080  18.919  0.00  0.00    +0.000 A 
ATOM     28  C   UNL     1       2.266  16.604  18.927  0.00  0.00    +0.000 A 
ATOM     29  C   UNL     1       2.491  15.227  18.892  0.00  0.00    +0.000 A 
ATOM     30  C   UNL     1       1.414  14.328  18.863  0.00  0.00    +0.000 A 
BRANCH  28  31
ATOM     31  O   UNL     1       3.228  17.578  18.978  0.00  0.00    +0.000 OA
ATOM     32  C   UNL     1       4.573  17.152  19.175  0.00  0.00    +0.000 C 
ENDBRANCH  28  31
BRANCH  30  33
ATOM     33  O   UNL     1       1.763  13.000  18.872  0.00  0.00    +0.000 OA
ATOM     34  C   UNL     1       2.118  12.473  20.149  0.00  0.00    +0.000 C 
ENDBRANCH  30  33
ENDBRANCH  23  25
ENDBRANCH   2  21
TORSDOF 6
ENDMDL
