MODEL 1
REMARK VINA RESULT:      -8.0      0.000      0.000
REMARK  Name = 
REMARK  7 active torsions:
REMARK  status: ('A' for Active; 'I' for Inactive)
REMARK    1  A    between atoms: C_1  and  C_2
REMARK    2  A    between atoms: N_5  and  C_6
REMARK    3  A    between atoms: C_6  and  C_7
REMARK    4  A    between atoms: C_7  and  C_8
REMARK    5  A    between atoms: C_8  and  C_9
REMARK    6  A    between atoms: C_8  and  C_10
REMARK    7  A    between atoms: C_12  and  C_13
REMARK                            x       y       z     vdW  Elec       q    Type
REMARK                         _______ _______ _______ _____ _____    ______ ____
ROOT
ATOM      1  C   UNL     1       2.130   2.499  17.752  0.00  0.00    +0.000 C 
ATOM      2  C   UNL     1       2.911   3.770  17.634  0.00  0.00    +0.000 A 
ATOM      3  N   UNL     1       4.096   3.719  17.003  0.00  0.00    +0.000 NA
ATOM      4  C   UNL     1       4.806   4.853  16.930  0.00  0.00    +0.000 A 
ATOM      5  N   UNL     1       6.089   4.846  16.352  0.00  0.00    +0.000 N 
ATOM      6  C   UNL     1       4.348   6.028  17.493  0.00  0.00    +0.000 A 
ATOM      7  C   UNL     1       3.087   6.019  18.060  0.00  0.00    +0.000 A 
ATOM      8  N   UNL     1       2.367   4.881  18.156  0.00  0.00    +0.000 NA
ATOM      9  H   UNL     1       6.343   5.771  16.023  0.00  0.00    +0.000 HD
ENDROOT
BRANCH   7  10
ATOM     10  C   UNL     1       2.432   7.245  18.564  0.00  0.00    +0.000 A 
ATOM     11  C   UNL     1       2.087   8.301  17.701  0.00  0.00    +0.000 A 
ATOM     12  C   UNL     1       1.445   9.457  18.162  0.00  0.00    +0.000 A 
ATOM     13  C   UNL     1       1.122   9.579  19.526  0.00  0.00    +0.000 A 
ATOM     14  N   UNL     1       0.477  10.656  20.110  0.00  0.00    +0.000 NA
ATOM     15  C   UNL     1       0.325  10.424  21.394  0.00  0.00    +0.000 A 
ATOM     16  S   UNL     1       0.936   8.936  21.978  0.00  0.00    +0.000 S 
ATOM     17  C   UNL     1       1.454   8.533  20.387  0.00  0.00    +0.000 A 
ATOM     18  C   UNL     1       2.103   7.371  19.928  0.00  0.00    +0.000 A 
ENDBRANCH   7  10
BRANCH   5  19
ATOM     19  C   UNL     1       6.254   3.845  15.300  0.00  0.00    +0.000 C 
BRANCH  19  20
ATOM     20  C   UNL     1       6.035   4.500  13.932  0.00  0.00    +0.000 C 
BRANCH  20  21
ATOM     21  C   UNL     1       6.342   3.580  12.734  0.00  0.00    +0.000 C 
ATOM     22  C   UNL     1       5.072   3.154  11.997  0.00  0.00    +0.000 C 
ATOM     23  C   UNL     1       7.300   4.278  11.766  0.00  0.00    +0.000 C 
ENDBRANCH  20  21
ENDBRANCH  19  20
ENDBRANCH   5  19
TORSDOF 4
ENDMDL
MODEL 2
REMARK VINA RESULT:      -7.7      1.216      1.598
REMARK  Name = 
REMARK  7 active torsions:
REMARK  status: ('A' for Active; 'I' for Inactive)
REMARK    1  A    between atoms: C_1  and  C_2
REMARK    2  A    between atoms: N_5  and  C_6
REMARK    3  A    between atoms: C_6  and  C_7
REMARK    4  A    between atoms: C_7  and  C_8
REMARK    5  A    between atoms: C_8  and  C_9
REMARK    6  A    between atoms: C_8  and  C_10
REMARK    7  A    between atoms: C_12  and  C_13
REMARK                            x       y       z     vdW  Elec       q    Type
REMARK                         _______ _______ _______ _____ _____    ______ ____
ROOT
ATOM      1  C   UNL     1       3.355   1.862  18.333  0.00  0.00    +0.000 C 
ATOM      2  C   UNL     1       3.776   3.260  18.009  0.00  0.00    +0.000 A 
ATOM      3  N   UNL     1       4.777   3.424  17.129  0.00  0.00    +0.000 NA
ATOM      4  C   UNL     1       5.173   4.677  16.868  0.00  0.00    +0.000 A 
ATOM      5  N   UNL     1       6.268   4.909  16.016  0.00  0.00    +0.000 N 
ATOM      6  C   UNL     1       4.585   5.762  17.489  0.00  0.00    +0.000 A 
ATOM      7  C   UNL     1       3.511   5.519  18.325  0.00  0.00    +0.000 A 
ATOM      8  N   UNL     1       3.113   4.262  18.611  0.00  0.00    +0.000 NA
ATOM      9  H   UNL     1       6.224   5.839  15.614  0.00  0.00    +0.000 HD
ENDROOT
BRANCH   7  10
ATOM     10  C   UNL     1       2.713   6.606  18.932  0.00  0.00    +0.000 A 
ATOM     11  C   UNL     1       2.145   6.474  20.211  0.00  0.00    +0.000 A 
ATOM     12  C   UNL     1       1.407   7.505  20.806  0.00  0.00    +0.000 A 
ATOM     13  C   UNL     1       1.224   8.718  20.119  0.00  0.00    +0.000 A 
ATOM     14  N   UNL     1       0.532   9.820  20.594  0.00  0.00    +0.000 NA
ATOM     15  C   UNL     1       0.578  10.779  19.697  0.00  0.00    +0.000 A 
ATOM     16  S   UNL     1       1.428  10.433  18.252  0.00  0.00    +0.000 S 
ATOM     17  C   UNL     1       1.791   8.860  18.852  0.00  0.00    +0.000 A 
ATOM     18  C   UNL     1       2.530   7.825  18.249  0.00  0.00    +0.000 A 
ENDBRANCH   7  10
BRANCH   5  19
ATOM     19  C   UNL     1       6.433   3.890  14.980  0.00  0.00    +0.000 C 
BRANCH  19  20
ATOM     20  C   UNL     1       5.477   4.184  13.819  0.00  0.00    +0.000 C 
BRANCH  20  21
ATOM     21  C   UNL     1       5.727   3.326  12.563  0.00  0.00    +0.000 C 
ATOM     22  C   UNL     1       4.531   3.341  11.610  0.00  0.00    +0.000 C 
ATOM     23  C   UNL     1       6.981   3.813  11.834  0.00  0.00    +0.000 C 
ENDBRANCH  20  21
ENDBRANCH  19  20
ENDBRANCH   5  19
TORSDOF 4
ENDMDL
MODEL 3
REMARK VINA RESULT:      -7.6      3.716      4.844
REMARK  Name = 
REMARK  7 active torsions:
REMARK  status: ('A' for Active; 'I' for Inactive)
REMARK    1  A    between atoms: C_1  and  C_2
REMARK    2  A    between atoms: N_5  and  C_6
REMARK    3  A    between atoms: C_6  and  C_7
REMARK    4  A    between atoms: C_7  and  C_8
REMARK    5  A    between atoms: C_8  and  C_9
REMARK    6  A    between atoms: C_8  and  C_10
REMARK    7  A    between atoms: C_12  and  C_13
REMARK                            x       y       z     vdW  Elec       q    Type
REMARK                         _______ _______ _______ _____ _____    ______ ____
ROOT
ATOM      1  C   UNL     1       7.547   7.345  17.169  0.00  0.00    +0.000 C 
ATOM      2  C   UNL     1       6.671   6.184  16.819  0.00  0.00    +0.000 A 
ATOM      3  N   UNL     1       6.674   5.761  15.544  0.00  0.00    +0.000 NA
ATOM      4  C   UNL     1       5.861   4.743  15.229  0.00  0.00    +0.000 A 
ATOM      5  N   UNL     1       5.761   4.307  13.896  0.00  0.00    +0.000 N 
ATOM      6  C   UNL     1       5.040   4.158  16.173  0.00  0.00    +0.000 A 
ATOM      7  C   UNL     1       5.149   4.598  17.479  0.00  0.00    +0.000 A 
ATOM      8  N   UNL     1       5.949   5.633  17.809  0.00  0.00    +0.000 NA
ATOM      9  H   UNL     1       5.439   3.346  13.851  0.00  0.00    +0.000 HD
ENDROOT
BRANCH   7  10
ATOM     10  C   UNL     1       4.430   3.952  18.599  0.00  0.00    +0.000 A 
ATOM     11  C   UNL     1       5.050   2.985  19.410  0.00  0.00    +0.000 A 
ATOM     12  C   UNL     1       4.388   2.384  20.487  0.00  0.00    +0.000 A 
ATOM     13  C   UNL     1       3.064   2.752  20.785  0.00  0.00    +0.000 A 
ATOM     14  N   UNL     1       2.300   2.250  21.827  0.00  0.00    +0.000 NA
ATOM     15  C   UNL     1       1.121   2.829  21.816  0.00  0.00    +0.000 A 
ATOM     16  S   UNL     1       0.849   3.984  20.582  0.00  0.00    +0.000 S 
ATOM     17  C   UNL     1       2.443   3.716  19.990  0.00  0.00    +0.000 A 
ATOM     18  C   UNL     1       3.105   4.320  18.904  0.00  0.00    +0.000 A 
ENDBRANCH   7  10
BRANCH   5  19
ATOM     19  C   UNL     1       6.988   4.492  13.122  0.00  0.00    +0.000 C 
BRANCH  19  20
ATOM     20  C   UNL     1       6.905   3.672  11.830  0.00  0.00    +0.000 C 
BRANCH  20  21
ATOM     21  C   UNL     1       5.828   2.569  11.849  0.00  0.00    +0.000 C 
ATOM     22  C   UNL     1       4.518   3.035  11.214  0.00  0.00    +0.000 C 
ATOM     23  C   UNL     1       6.342   1.319  11.132  0.00  0.00    +0.000 C 
ENDBRANCH  20  21
ENDBRANCH  19  20
ENDBRANCH   5  19
TORSDOF 4
ENDMDL
MODEL 4
REMARK VINA RESULT:      -7.6      0.853      1.067
REMARK  Name = 
REMARK  7 active torsions:
REMARK  status: ('A' for Active; 'I' for Inactive)
REMARK    1  A    between atoms: C_1  and  C_2
REMARK    2  A    between atoms: N_5  and  C_6
REMARK    3  A    between atoms: C_6  and  C_7
REMARK    4  A    between atoms: C_7  and  C_8
REMARK    5  A    between atoms: C_8  and  C_9
REMARK    6  A    between atoms: C_8  and  C_10
REMARK    7  A    between atoms: C_12  and  C_13
REMARK                            x       y       z     vdW  Elec       q    Type
REMARK                         _______ _______ _______ _____ _____    ______ ____
ROOT
ATOM      1  C   UNL     1       3.535   2.320  18.384  0.00  0.00    +0.000 C 
ATOM      2  C   UNL     1       3.871   3.647  17.779  0.00  0.00    +0.000 A 
ATOM      3  N   UNL     1       4.746   3.665  16.759  0.00  0.00    +0.000 NA
ATOM      4  C   UNL     1       5.069   4.859  16.243  0.00  0.00    +0.000 A 
ATOM      5  N   UNL     1       6.038   4.950  15.228  0.00  0.00    +0.000 N 
ATOM      6  C   UNL     1       4.536   6.029  16.747  0.00  0.00    +0.000 A 
ATOM      7  C   UNL     1       3.587   5.924  17.746  0.00  0.00    +0.000 A 
ATOM      8  N   UNL     1       3.264   4.731  18.288  0.00  0.00    +0.000 NA
ATOM      9  H   UNL     1       5.917   5.798  14.686  0.00  0.00    +0.000 HD
ENDROOT
BRANCH   7  10
ATOM     10  C   UNL     1       2.843   7.093  18.263  0.00  0.00    +0.000 A 
ATOM     11  C   UNL     1       2.542   8.194  17.441  0.00  0.00    +0.000 A 
ATOM     12  C   UNL     1       1.818   9.296  17.912  0.00  0.00    +0.000 A 
ATOM     13  C   UNL     1       1.364   9.316  19.243  0.00  0.00    +0.000 A 
ATOM     14  N   UNL     1       0.627  10.331  19.831  0.00  0.00    +0.000 NA
ATOM     15  C   UNL     1       0.364  10.008  21.077  0.00  0.00    +0.000 A 
ATOM     16  S   UNL     1       0.972   8.503  21.620  0.00  0.00    +0.000 S 
ATOM     17  C   UNL     1       1.651   8.224  20.063  0.00  0.00    +0.000 A 
ATOM     18  C   UNL     1       2.383   7.116  19.594  0.00  0.00    +0.000 A 
ENDBRANCH   7  10
BRANCH   5  19
ATOM     19  C   UNL     1       6.097   3.772  14.364  0.00  0.00    +0.000 C 
BRANCH  19  20
ATOM     20  C   UNL     1       6.728   4.155  13.020  0.00  0.00    +0.000 C 
BRANCH  20  21
ATOM     21  C   UNL     1       6.111   3.435  11.805  0.00  0.00    +0.000 C 
ATOM     22  C   UNL     1       6.641   2.009  11.653  0.00  0.00    +0.000 C 
ATOM     23  C   UNL     1       4.586   3.418  11.921  0.00  0.00    +0.000 C 
ENDBRANCH  20  21
ENDBRANCH  19  20
ENDBRANCH   5  19
TORSDOF 4
ENDMDL
MODEL 5
REMARK VINA RESULT:      -7.6      3.972      6.467
REMARK  Name = 
REMARK  7 active torsions:
REMARK  status: ('A' for Active; 'I' for Inactive)
REMARK    1  A    between atoms: C_1  and  C_2
REMARK    2  A    between atoms: N_5  and  C_6
REMARK    3  A    between atoms: C_6  and  C_7
REMARK    4  A    between atoms: C_7  and  C_8
REMARK    5  A    between atoms: C_8  and  C_9
REMARK    6  A    between atoms: C_8  and  C_10
REMARK    7  A    between atoms: C_12  and  C_13
REMARK                            x       y       z     vdW  Elec       q    Type
REMARK                         _______ _______ _______ _____ _____    ______ ____
ROOT
ATOM      1  C   UNL     1       7.151   5.025  14.249  0.00  0.00    +0.000 C 
ATOM      2  C   UNL     1       6.806   5.334  15.671  0.00  0.00    +0.000 A 
ATOM      3  N   UNL     1       7.484   6.322  16.278  0.00  0.00    +0.000 NA
ATOM      4  C   UNL     1       7.195   6.572  17.563  0.00  0.00    +0.000 A 
ATOM      5  N   UNL     1       7.925   7.541  18.275  0.00  0.00    +0.000 N 
ATOM      6  C   UNL     1       6.246   5.835  18.244  0.00  0.00    +0.000 A 
ATOM      7  C   UNL     1       5.537   4.886  17.531  0.00  0.00    +0.000 A 
ATOM      8  N   UNL     1       5.829   4.611  16.243  0.00  0.00    +0.000 NA
ATOM      9  H   UNL     1       7.391   7.892  19.062  0.00  0.00    +0.000 HD
ENDROOT
BRANCH   7  10
ATOM     10  C   UNL     1       4.402   4.138  18.113  0.00  0.00    +0.000 A 
ATOM     11  C   UNL     1       3.729   3.141  17.385  0.00  0.00    +0.000 A 
ATOM     12  C   UNL     1       2.668   2.409  17.933  0.00  0.00    +0.000 A 
ATOM     13  C   UNL     1       2.254   2.663  19.253  0.00  0.00    +0.000 A 
ATOM     14  N   UNL     1       1.234   2.006  19.921  0.00  0.00    +0.000 NA
ATOM     15  C   UNL     1       1.134   2.487  21.139  0.00  0.00    +0.000 A 
ATOM     16  S   UNL     1       2.227   3.736  21.558  0.00  0.00    +0.000 S 
ATOM     17  C   UNL     1       2.921   3.645  19.985  0.00  0.00    +0.000 A 
ATOM     18  C   UNL     1       3.986   4.385  19.436  0.00  0.00    +0.000 A 
ENDBRANCH   7  10
BRANCH   5  19
ATOM     19  C   UNL     1       8.422   8.634  17.441  0.00  0.00    +0.000 C 
BRANCH  19  20
ATOM     20  C   UNL     1       8.323   9.953  18.216  0.00  0.00    +0.000 C 
BRANCH  20  21
ATOM     21  C   UNL     1       9.657  10.431  18.822  0.00  0.00    +0.000 C 
ATOM     22  C   UNL     1      10.316  11.518  17.972  0.00  0.00    +0.000 C 
ATOM     23  C   UNL     1       9.435  10.943  20.246  0.00  0.00    +0.000 C 
ENDBRANCH  20  21
ENDBRANCH  19  20
ENDBRANCH   5  19
TORSDOF 4
ENDMDL
MODEL 6
REMARK VINA RESULT:      -7.2      1.806      2.740
REMARK  Name = 
REMARK  7 active torsions:
REMARK  status: ('A' for Active; 'I' for Inactive)
REMARK    1  A    between atoms: C_1  and  C_2
REMARK    2  A    between atoms: N_5  and  C_6
REMARK    3  A    between atoms: C_6  and  C_7
REMARK    4  A    between atoms: C_7  and  C_8
REMARK    5  A    between atoms: C_8  and  C_9
REMARK    6  A    between atoms: C_8  and  C_10
REMARK    7  A    between atoms: C_12  and  C_13
REMARK                            x       y       z     vdW  Elec       q    Type
REMARK                         _______ _______ _______ _____ _____    ______ ____
ROOT
ATOM      1  C   UNL     1       1.995   3.607  21.303  0.00  0.00    +0.000 C 
ATOM      2  C   UNL     1       2.292   4.740  20.373  0.00  0.00    +0.000 A 
ATOM      3  N   UNL     1       3.043   4.480  19.290  0.00  0.00    +0.000 NA
ATOM      4  C   UNL     1       3.334   5.506  18.478  0.00  0.00    +0.000 A 
ATOM      5  N   UNL     1       4.181   5.312  17.372  0.00  0.00    +0.000 N 
ATOM      6  C   UNL     1       2.892   6.786  18.749  0.00  0.00    +0.000 A 
ATOM      7  C   UNL     1       2.062   6.961  19.840  0.00  0.00    +0.000 A 
ATOM      8  N   UNL     1       1.774   5.942  20.676  0.00  0.00    +0.000 NA
ATOM      9  H   UNL     1       4.019   6.019  16.663  0.00  0.00    +0.000 HD
ENDROOT
BRANCH   7  10
ATOM     10  C   UNL     1       1.412   8.254  20.146  0.00  0.00    +0.000 A 
ATOM     11  C   UNL     1       1.349   9.288  19.196  0.00  0.00    +0.000 A 
ATOM     12  C   UNL     1       0.716  10.507  19.465  0.00  0.00    +0.000 A 
ATOM     13  C   UNL     1       0.112  10.718  20.718  0.00  0.00    +0.000 A 
ATOM     14  N   UNL     1      -0.558  11.865  21.109  0.00  0.00    +0.000 NA
ATOM     15  C   UNL     1      -1.007  11.708  22.333  0.00  0.00    +0.000 A 
ATOM     16  S   UNL     1      -0.659  10.210  23.086  0.00  0.00    +0.000 S 
ATOM     17  C   UNL     1       0.162   9.694  21.664  0.00  0.00    +0.000 A 
ATOM     18  C   UNL     1       0.802   8.469  21.398  0.00  0.00    +0.000 A 
ENDBRANCH   7  10
BRANCH   5  19
ATOM     19  C   UNL     1       4.111   3.967  16.806  0.00  0.00    +0.000 C 
BRANCH  19  20
ATOM     20  C   UNL     1       5.449   3.620  16.144  0.00  0.00    +0.000 C 
BRANCH  20  21
ATOM     21  C   UNL     1       6.468   4.777  16.137  0.00  0.00    +0.000 C 
ATOM     22  C   UNL     1       7.595   4.556  17.146  0.00  0.00    +0.000 C 
ATOM     23  C   UNL     1       7.050   4.957  14.734  0.00  0.00    +0.000 C 
ENDBRANCH  20  21
ENDBRANCH  19  20
ENDBRANCH   5  19
TORSDOF 4
ENDMDL
MODEL 7
REMARK VINA RESULT:      -7.2      1.806      2.601
REMARK  Name = 
REMARK  7 active torsions:
REMARK  status: ('A' for Active; 'I' for Inactive)
REMARK    1  A    between atoms: C_1  and  C_2
REMARK    2  A    between atoms: N_5  and  C_6
REMARK    3  A    between atoms: C_6  and  C_7
REMARK    4  A    between atoms: C_7  and  C_8
REMARK    5  A    between atoms: C_8  and  C_9
REMARK    6  A    between atoms: C_8  and  C_10
REMARK    7  A    between atoms: C_12  and  C_13
REMARK                            x       y       z     vdW  Elec       q    Type
REMARK                         _______ _______ _______ _____ _____    ______ ____
ROOT
ATOM      1  C   UNL     1       1.409   3.249  21.178  0.00  0.00    +0.000 C 
ATOM      2  C   UNL     1       2.078   4.422  20.535  0.00  0.00    +0.000 A 
ATOM      3  N   UNL     1       3.173   4.188  19.792  0.00  0.00    +0.000 NA
ATOM      4  C   UNL     1       3.788   5.246  19.247  0.00  0.00    +0.000 A 
ATOM      5  N   UNL     1       4.983   5.073  18.525  0.00  0.00    +0.000 N 
ATOM      6  C   UNL     1       3.325   6.532  19.449  0.00  0.00    +0.000 A 
ATOM      7  C   UNL     1       2.151   6.686  20.162  0.00  0.00    +0.000 A 
ATOM      8  N   UNL     1       1.530   5.632  20.732  0.00  0.00    +0.000 NA
ATOM      9  H   UNL     1       5.128   5.839  17.875  0.00  0.00    +0.000 HD
ENDROOT
BRANCH   7  10
ATOM     10  C   UNL     1       1.482   7.996  20.320  0.00  0.00    +0.000 A 
ATOM     11  C   UNL     1       1.434   8.928  19.269  0.00  0.00    +0.000 A 
ATOM     12  C   UNL     1       0.784  10.161  19.399  0.00  0.00    +0.000 A 
ATOM     13  C   UNL     1       0.148  10.491  20.609  0.00  0.00    +0.000 A 
ATOM     14  N   UNL     1      -0.542  11.664  20.867  0.00  0.00    +0.000 NA
ATOM     15  C   UNL     1      -1.019  11.626  22.089  0.00  0.00    +0.000 A 
ATOM     16  S   UNL     1      -0.677  10.215  22.998  0.00  0.00    +0.000 S 
ATOM     17  C   UNL     1       0.184   9.568  21.655  0.00  0.00    +0.000 A 
ATOM     18  C   UNL     1       0.840   8.329  21.529  0.00  0.00    +0.000 A 
ENDBRANCH   7  10
BRANCH   5  19
ATOM     19  C   UNL     1       5.081   3.779  17.851  0.00  0.00    +0.000 C 
BRANCH  19  20
ATOM     20  C   UNL     1       4.716   3.945  16.372  0.00  0.00    +0.000 C 
BRANCH  20  21
ATOM     21  C   UNL     1       5.770   4.706  15.543  0.00  0.00    +0.000 C 
ATOM     22  C   UNL     1       6.016   4.048  14.184  0.00  0.00    +0.000 C 
ATOM     23  C   UNL     1       5.338   6.161  15.350  0.00  0.00    +0.000 C 
ENDBRANCH  20  21
ENDBRANCH  19  20
ENDBRANCH   5  19
TORSDOF 4
ENDMDL
MODEL 8
REMARK VINA RESULT:      -7.2      2.955      8.276
REMARK  Name = 
REMARK  7 active torsions:
REMARK  status: ('A' for Active; 'I' for Inactive)
REMARK    1  A    between atoms: C_1  and  C_2
REMARK    2  A    between atoms: N_5  and  C_6
REMARK    3  A    between atoms: C_6  and  C_7
REMARK    4  A    between atoms: C_7  and  C_8
REMARK    5  A    between atoms: C_8  and  C_9
REMARK    6  A    between atoms: C_8  and  C_10
REMARK    7  A    between atoms: C_12  and  C_13
REMARK                            x       y       z     vdW  Elec       q    Type
REMARK                         _______ _______ _______ _____ _____    ______ ____
ROOT
ATOM      1  C   UNL     1       2.225   3.546  21.201  0.00  0.00    +0.000 C 
ATOM      2  C   UNL     1       2.520   4.778  20.407  0.00  0.00    +0.000 A 
ATOM      3  N   UNL     1       1.863   5.904  20.732  0.00  0.00    +0.000 NA
ATOM      4  C   UNL     1       2.105   6.996  19.995  0.00  0.00    +0.000 A 
ATOM      5  N   UNL     1       1.391   8.184  20.237  0.00  0.00    +0.000 N 
ATOM      6  C   UNL     1       2.986   6.967  18.932  0.00  0.00    +0.000 A 
ATOM      7  C   UNL     1       3.680   5.793  18.705  0.00  0.00    +0.000 A 
ATOM      8  N   UNL     1       3.434   4.680  19.427  0.00  0.00    +0.000 NA
ATOM      9  H   UNL     1       1.905   8.991  19.902  0.00  0.00    +0.000 HD
ENDROOT
BRANCH   7  10
ATOM     10  C   UNL     1       4.751   5.684  17.691  0.00  0.00    +0.000 A 
ATOM     11  C   UNL     1       6.025   6.239  17.905  0.00  0.00    +0.000 A 
ATOM     12  C   UNL     1       7.054   6.123  16.963  0.00  0.00    +0.000 A 
ATOM     13  C   UNL     1       6.825   5.426  15.763  0.00  0.00    +0.000 A 
ATOM     14  N   UNL     1       7.754   5.223  14.756  0.00  0.00    +0.000 NA
ATOM     15  C   UNL     1       7.203   4.519  13.794  0.00  0.00    +0.000 A 
ATOM     16  S   UNL     1       5.568   4.066  14.020  0.00  0.00    +0.000 S 
ATOM     17  C   UNL     1       5.566   4.865  15.545  0.00  0.00    +0.000 A 
ATOM     18  C   UNL     1       4.528   4.984  16.489  0.00  0.00    +0.000 A 
ENDBRANCH   7  10
BRANCH   5  19
ATOM     19  C   UNL     1       0.985   8.353  21.631  0.00  0.00    +0.000 C 
BRANCH  19  20
ATOM     20  C   UNL     1      -0.389   9.030  21.685  0.00  0.00    +0.000 C 
BRANCH  20  21
ATOM     21  C   UNL     1      -0.334  10.552  21.921  0.00  0.00    +0.000 C 
ATOM     22  C   UNL     1      -0.784  11.340  20.690  0.00  0.00    +0.000 C 
ATOM     23  C   UNL     1      -1.196  10.929  23.128  0.00  0.00    +0.000 C 
ENDBRANCH  20  21
ENDBRANCH  19  20
ENDBRANCH   5  19
TORSDOF 4
ENDMDL
MODEL 9
REMARK VINA RESULT:      -7.1      1.141      1.545
REMARK  Name = 
REMARK  7 active torsions:
REMARK  status: ('A' for Active; 'I' for Inactive)
REMARK    1  A    between atoms: C_1  and  C_2
REMARK    2  A    between atoms: N_5  and  C_6
REMARK    3  A    between atoms: C_6  and  C_7
REMARK    4  A    between atoms: C_7  and  C_8
REMARK    5  A    between atoms: C_8  and  C_9
REMARK    6  A    between atoms: C_8  and  C_10
REMARK    7  A    between atoms: C_12  and  C_13
REMARK                            x       y       z     vdW  Elec       q    Type
REMARK                         _______ _______ _______ _____ _____    ______ ____
ROOT
ATOM      1  C   UNL     1       2.374   2.495  18.276  0.00  0.00    +0.000 C 
ATOM      2  C   UNL     1       2.885   3.872  17.997  0.00  0.00    +0.000 A 
ATOM      3  N   UNL     1       3.821   4.010  17.042  0.00  0.00    +0.000 NA
ATOM      4  C   UNL     1       4.300   5.242  16.820  0.00  0.00    +0.000 A 
ATOM      5  N   UNL     1       5.337   5.438  15.889  0.00  0.00    +0.000 N 
ATOM      6  C   UNL     1       3.861   6.328  17.551  0.00  0.00    +0.000 A 
ATOM      7  C   UNL     1       2.843   6.120  18.463  0.00  0.00    +0.000 A 
ATOM      8  N   UNL     1       2.363   4.883  18.710  0.00  0.00    +0.000 NA
ATOM      9  H   UNL     1       5.340   6.393  15.546  0.00  0.00    +0.000 HD
ENDROOT
BRANCH   7  10
ATOM     10  C   UNL     1       2.194   7.227  19.197  0.00  0.00    +0.000 A 
ATOM     11  C   UNL     1       1.819   7.093  20.546  0.00  0.00    +0.000 A 
ATOM     12  C   UNL     1       1.225   8.141  21.259  0.00  0.00    +0.000 A 
ATOM     13  C   UNL     1       0.995   9.375  20.624  0.00  0.00    +0.000 A 
ATOM     14  N   UNL     1       0.432  10.495  21.213  0.00  0.00    +0.000 NA
ATOM     15  C   UNL     1       0.385  11.469  20.334  0.00  0.00    +0.000 A 
ATOM     16  S   UNL     1       0.992  11.117  18.772  0.00  0.00    +0.000 S 
ATOM     17  C   UNL     1       1.371   9.519  19.288  0.00  0.00    +0.000 A 
ATOM     18  C   UNL     1       1.965   8.466  18.567  0.00  0.00    +0.000 A 
ENDBRANCH   7  10
BRANCH   5  19
ATOM     19  C   UNL     1       5.327   4.478  14.787  0.00  0.00    +0.000 C 
BRANCH  19  20
ATOM     20  C   UNL     1       6.746   4.334  14.224  0.00  0.00    +0.000 C 
BRANCH  20  21
ATOM     21  C   UNL     1       6.801   3.788  12.784  0.00  0.00    +0.000 C 
ATOM     22  C   UNL     1       5.425   3.351  12.282  0.00  0.00    +0.000 C 
ATOM     23  C   UNL     1       7.391   4.842  11.844  0.00  0.00    +0.000 C 
ENDBRANCH  20  21
ENDBRANCH  19  20
ENDBRANCH   5  19
TORSDOF 4
ENDMDL
