MODEL 1
REMARK VINA RESULT:      -8.6      0.000      0.000
REMARK  Name = 
REMARK  6 active torsions:
REMARK  status: ('A' for Active; 'I' for Inactive)
REMARK    1  A    between atoms: C_2  and  O_3
REMARK    2  A    between atoms: O_3  and  C_4
REMARK    3  A    between atoms: C_4  and  C_5
REMARK    4  A    between atoms: C_4  and  C_9
REMARK    5  A    between atoms: C_15  and  C_16
REMARK    6  A    between atoms: N_19  and  C_20
REMARK                            x       y       z     vdW  Elec       q    Type
REMARK                         _______ _______ _______ _____ _____    ______ ____
ROOT
ATOM      1  O   UNL     1       4.904   3.973  16.149  0.00  0.00    +0.000 OA
ATOM      2  C   UNL     1       4.921   4.411  17.294  0.00  0.00    +0.000 C 
ATOM      3  N   UNL     1       6.050   4.751  17.961  0.00  0.00    +0.000 N 
ATOM      4  C   UNL     1       6.341   5.264  19.269  0.00  0.00    +0.000 C 
ATOM      5  C   UNL     1       7.781   5.582  18.755  0.00  0.00    +0.000 C 
ATOM      6  C   UNL     1       7.428   4.699  17.526  0.00  0.00    +0.000 C 
ENDROOT
BRANCH   5   7
ATOM      7  C   UNL     1       8.005   7.066  18.429  0.00  0.00    +0.000 A 
ATOM      8  C   UNL     1       7.456   7.719  17.312  0.00  0.00    +0.000 A 
ATOM      9  C   UNL     1       7.727   9.043  17.522  0.00  0.00    +0.000 A 
ATOM     10  N   UNL     1       8.579   9.116  18.603  0.00  0.00    +0.000 N 
ATOM     11  N   UNL     1       8.735   7.894  19.190  0.00  0.00    +0.000 NA
BRANCH  10  12
ATOM     12  C   UNL     1       9.355  10.258  18.937  0.00  0.00    +0.000 A 
ATOM     13  C   UNL     1       9.485  10.642  20.282  0.00  0.00    +0.000 A 
ATOM     14  C   UNL     1       9.971  11.908  20.605  0.00  0.00    +0.000 A 
ATOM     15  C   UNL     1      10.329  12.791  19.589  0.00  0.00    +0.000 A 
ATOM     16  C   UNL     1      10.271  12.383  18.254  0.00  0.00    +0.000 A 
ATOM     17  C   UNL     1       9.815  11.103  17.922  0.00  0.00    +0.000 A 
ENDBRANCH  10  12
ENDBRANCH   5   7
BRANCH   2  18
ATOM     18  O   UNL     1       3.784   4.629  17.993  0.00  0.00    +0.000 OA
BRANCH  18  19
ATOM     19  C   UNL     1       2.890   3.477  18.100  0.00  0.00    +0.000 C 
BRANCH  19  20
ATOM     20  C   UNL     1       3.310   2.405  19.097  0.00  0.00    +0.000 C 
ATOM     21  F   UNL     1       4.188   2.903  20.007  0.00  0.00    +0.000 F 
ATOM     22  F   UNL     1       2.329   1.805  19.778  0.00  0.00    +0.000 F 
ATOM     23  F   UNL     1       3.988   1.421  18.442  0.00  0.00    +0.000 F 
ENDBRANCH  19  20
BRANCH  19  24
ATOM     24  C   UNL     1       1.416   3.797  18.203  0.00  0.00    +0.000 C 
ATOM     25  F   UNL     1       0.654   2.681  18.202  0.00  0.00    +0.000 F 
ATOM     26  F   UNL     1       1.165   4.415  19.396  0.00  0.00    +0.000 F 
ATOM     27  F   UNL     1       0.917   4.615  17.256  0.00  0.00    +0.000 F 
ENDBRANCH  19  24
ENDBRANCH  18  19
ENDBRANCH   2  18
TORSDOF 6
ENDMDL
MODEL 2
REMARK VINA RESULT:      -8.3      0.977      1.801
REMARK  Name = 
REMARK  6 active torsions:
REMARK  status: ('A' for Active; 'I' for Inactive)
REMARK    1  A    between atoms: C_2  and  O_3
REMARK    2  A    between atoms: O_3  and  C_4
REMARK    3  A    between atoms: C_4  and  C_5
REMARK    4  A    between atoms: C_4  and  C_9
REMARK    5  A    between atoms: C_15  and  C_16
REMARK    6  A    between atoms: N_19  and  C_20
REMARK                            x       y       z     vdW  Elec       q    Type
REMARK                         _______ _______ _______ _____ _____    ______ ____
ROOT
ATOM      1  O   UNL     1       4.799   4.045  16.167  0.00  0.00    +0.000 OA
ATOM      2  C   UNL     1       4.813   4.513  17.300  0.00  0.00    +0.000 C 
ATOM      3  N   UNL     1       5.942   4.833  17.977  0.00  0.00    +0.000 N 
ATOM      4  C   UNL     1       6.230   5.372  19.275  0.00  0.00    +0.000 C 
ATOM      5  C   UNL     1       7.687   5.627  18.778  0.00  0.00    +0.000 C 
ATOM      6  C   UNL     1       7.325   4.724  17.567  0.00  0.00    +0.000 C 
ENDROOT
BRANCH   5   7
ATOM      7  C   UNL     1       7.967   7.094  18.416  0.00  0.00    +0.000 A 
ATOM      8  C   UNL     1       7.513   7.715  17.240  0.00  0.00    +0.000 A 
ATOM      9  C   UNL     1       7.797   9.041  17.421  0.00  0.00    +0.000 A 
ATOM     10  N   UNL     1       8.572   9.137  18.558  0.00  0.00    +0.000 N 
ATOM     11  N   UNL     1       8.659   7.935  19.197  0.00  0.00    +0.000 NA
BRANCH  10  12
ATOM     12  C   UNL     1       9.346  10.276  18.905  0.00  0.00    +0.000 A 
ATOM     13  C   UNL     1      10.206  10.849  17.953  0.00  0.00    +0.000 A 
ATOM     14  C   UNL     1      11.186  11.757  18.352  0.00  0.00    +0.000 A 
ATOM     15  C   UNL     1      11.310  12.094  19.697  0.00  0.00    +0.000 A 
ATOM     16  C   UNL     1      10.407  11.582  20.634  0.00  0.00    +0.000 A 
ATOM     17  C   UNL     1       9.400  10.696  20.238  0.00  0.00    +0.000 A 
ENDBRANCH  10  12
ENDBRANCH   5   7
BRANCH   2  18
ATOM     18  O   UNL     1       3.673   4.787  17.974  0.00  0.00    +0.000 OA
BRANCH  18  19
ATOM     19  C   UNL     1       3.225   3.740  18.890  0.00  0.00    +0.000 C 
BRANCH  19  20
ATOM     20  C   UNL     1       2.719   4.218  20.244  0.00  0.00    +0.000 C 
ATOM     21  F   UNL     1       1.385   4.479  20.201  0.00  0.00    +0.000 F 
ATOM     22  F   UNL     1       2.931   3.403  21.283  0.00  0.00    +0.000 F 
ATOM     23  F   UNL     1       3.310   5.406  20.553  0.00  0.00    +0.000 F 
ENDBRANCH  19  20
BRANCH  19  24
ATOM     24  C   UNL     1       2.323   2.685  18.290  0.00  0.00    +0.000 C 
ATOM     25  F   UNL     1       2.022   1.712  19.178  0.00  0.00    +0.000 F 
ATOM     26  F   UNL     1       1.129   3.249  17.941  0.00  0.00    +0.000 F 
ATOM     27  F   UNL     1       2.778   2.075  17.178  0.00  0.00    +0.000 F 
ENDBRANCH  19  24
ENDBRANCH  18  19
ENDBRANCH   2  18
TORSDOF 6
ENDMDL
MODEL 3
REMARK VINA RESULT:      -8.2      1.185      1.933
REMARK  Name = 
REMARK  6 active torsions:
REMARK  status: ('A' for Active; 'I' for Inactive)
REMARK    1  A    between atoms: C_2  and  O_3
REMARK    2  A    between atoms: O_3  and  C_4
REMARK    3  A    between atoms: C_4  and  C_5
REMARK    4  A    between atoms: C_4  and  C_9
REMARK    5  A    between atoms: C_15  and  C_16
REMARK    6  A    between atoms: N_19  and  C_20
REMARK                            x       y       z     vdW  Elec       q    Type
REMARK                         _______ _______ _______ _____ _____    ______ ____
ROOT
ATOM      1  O   UNL     1       3.848   4.891  17.047  0.00  0.00    +0.000 OA
ATOM      2  C   UNL     1       4.390   5.109  18.125  0.00  0.00    +0.000 C 
ATOM      3  N   UNL     1       5.726   5.265  18.287  0.00  0.00    +0.000 N 
ATOM      4  C   UNL     1       6.592   5.515  19.403  0.00  0.00    +0.000 C 
ATOM      5  C   UNL     1       7.717   5.851  18.376  0.00  0.00    +0.000 C 
ATOM      6  C   UNL     1       6.784   5.228  17.301  0.00  0.00    +0.000 C 
ENDROOT
BRANCH   5   7
ATOM      7  C   UNL     1       7.966   7.358  18.205  0.00  0.00    +0.000 A 
ATOM      8  C   UNL     1       7.366   8.148  17.210  0.00  0.00    +0.000 A 
ATOM      9  C   UNL     1       7.691   9.432  17.549  0.00  0.00    +0.000 A 
ATOM     10  N   UNL     1       8.614   9.360  18.571  0.00  0.00    +0.000 N 
ATOM     11  N   UNL     1       8.770   8.075  19.003  0.00  0.00    +0.000 NA
BRANCH  10  12
ATOM     12  C   UNL     1       9.444  10.438  18.978  0.00  0.00    +0.000 A 
ATOM     13  C   UNL     1      10.458  10.897  18.121  0.00  0.00    +0.000 A 
ATOM     14  C   UNL     1      11.464  11.729  18.609  0.00  0.00    +0.000 A 
ATOM     15  C   UNL     1      11.462  12.103  19.951  0.00  0.00    +0.000 A 
ATOM     16  C   UNL     1      10.413  11.708  20.786  0.00  0.00    +0.000 A 
ATOM     17  C   UNL     1       9.381  10.900  20.297  0.00  0.00    +0.000 A 
ENDBRANCH  10  12
ENDBRANCH   5   7
BRANCH   2  18
ATOM     18  O   UNL     1       3.679   5.249  19.266  0.00  0.00    +0.000 OA
BRANCH  18  19
ATOM     19  C   UNL     1       2.744   4.162  19.554  0.00  0.00    +0.000 C 
BRANCH  19  20
ATOM     20  C   UNL     1       3.361   2.777  19.686  0.00  0.00    +0.000 C 
ATOM     21  F   UNL     1       3.600   2.232  18.464  0.00  0.00    +0.000 F 
ATOM     22  F   UNL     1       4.497   2.694  20.387  0.00  0.00    +0.000 F 
ATOM     23  F   UNL     1       2.470   1.940  20.287  0.00  0.00    +0.000 F 
ENDBRANCH  19  20
BRANCH  19  24
ATOM     24  C   UNL     1       1.734   4.438  20.645  0.00  0.00    +0.000 C 
ATOM     25  F   UNL     1       1.470   5.758  20.768  0.00  0.00    +0.000 F 
ATOM     26  F   UNL     1       0.542   3.851  20.323  0.00  0.00    +0.000 F 
ATOM     27  F   UNL     1       2.046   3.983  21.874  0.00  0.00    +0.000 F 
ENDBRANCH  19  24
ENDBRANCH  18  19
ENDBRANCH   2  18
TORSDOF 6
ENDMDL
MODEL 4
REMARK VINA RESULT:      -8.1      1.503      2.176
REMARK  Name = 
REMARK  6 active torsions:
REMARK  status: ('A' for Active; 'I' for Inactive)
REMARK    1  A    between atoms: C_2  and  O_3
REMARK    2  A    between atoms: O_3  and  C_4
REMARK    3  A    between atoms: C_4  and  C_5
REMARK    4  A    between atoms: C_4  and  C_9
REMARK    5  A    between atoms: C_15  and  C_16
REMARK    6  A    between atoms: N_19  and  C_20
REMARK                            x       y       z     vdW  Elec       q    Type
REMARK                         _______ _______ _______ _____ _____    ______ ____
ROOT
ATOM      1  O   UNL     1       2.430   6.036  17.819  0.00  0.00    +0.000 OA
ATOM      2  C   UNL     1       3.414   5.318  17.950  0.00  0.00    +0.000 C 
ATOM      3  N   UNL     1       4.584   5.502  17.293  0.00  0.00    +0.000 N 
ATOM      4  C   UNL     1       5.849   4.825  17.261  0.00  0.00    +0.000 C 
ATOM      5  C   UNL     1       6.430   6.077  16.531  0.00  0.00    +0.000 C 
ATOM      6  C   UNL     1       4.954   6.525  16.340  0.00  0.00    +0.000 C 
ENDROOT
BRANCH   5   7
ATOM      7  C   UNL     1       7.260   6.992  17.443  0.00  0.00    +0.000 A 
ATOM      8  C   UNL     1       7.781   6.601  18.688  0.00  0.00    +0.000 A 
ATOM      9  C   UNL     1       8.611   7.627  19.050  0.00  0.00    +0.000 A 
ATOM     10  N   UNL     1       8.403   8.651  18.151  0.00  0.00    +0.000 N 
ATOM     11  N   UNL     1       7.586   8.255  17.133  0.00  0.00    +0.000 NA
BRANCH  10  12
ATOM     12  C   UNL     1       8.811   9.996  18.361  0.00  0.00    +0.000 A 
ATOM     13  C   UNL     1       9.559  10.325  19.504  0.00  0.00    +0.000 A 
ATOM     14  C   UNL     1       9.704  11.658  19.886  0.00  0.00    +0.000 A 
ATOM     15  C   UNL     1       9.105  12.663  19.130  0.00  0.00    +0.000 A 
ATOM     16  C   UNL     1       8.425  12.342  17.951  0.00  0.00    +0.000 A 
ATOM     17  C   UNL     1       8.302  11.009  17.543  0.00  0.00    +0.000 A 
ENDBRANCH  10  12
ENDBRANCH   5   7
BRANCH   2  18
ATOM     18  O   UNL     1       3.427   4.274  18.811  0.00  0.00    +0.000 OA
BRANCH  18  19
ATOM     19  C   UNL     1       2.125   3.656  19.057  0.00  0.00    +0.000 C 
BRANCH  19  20
ATOM     20  C   UNL     1       1.964   2.230  18.548  0.00  0.00    +0.000 C 
ATOM     21  F   UNL     1       2.198   2.161  17.211  0.00  0.00    +0.000 F 
ATOM     22  F   UNL     1       2.724   1.297  19.133  0.00  0.00    +0.000 F 
ATOM     23  F   UNL     1       0.670   1.836  18.709  0.00  0.00    +0.000 F 
ENDBRANCH  19  20
BRANCH  19  24
ATOM     24  C   UNL     1       1.574   3.823  20.455  0.00  0.00    +0.000 C 
ATOM     25  F   UNL     1       1.702   2.694  21.188  0.00  0.00    +0.000 F 
ATOM     26  F   UNL     1       2.292   4.777  21.119  0.00  0.00    +0.000 F 
ATOM     27  F   UNL     1       0.285   4.205  20.545  0.00  0.00    +0.000 F 
ENDBRANCH  19  24
ENDBRANCH  18  19
ENDBRANCH   2  18
TORSDOF 6
ENDMDL
MODEL 5
REMARK VINA RESULT:      -8.1      1.532      2.292
REMARK  Name = 
REMARK  6 active torsions:
REMARK  status: ('A' for Active; 'I' for Inactive)
REMARK    1  A    between atoms: C_2  and  O_3
REMARK    2  A    between atoms: O_3  and  C_4
REMARK    3  A    between atoms: C_4  and  C_5
REMARK    4  A    between atoms: C_4  and  C_9
REMARK    5  A    between atoms: C_15  and  C_16
REMARK    6  A    between atoms: N_19  and  C_20
REMARK                            x       y       z     vdW  Elec       q    Type
REMARK                         _______ _______ _______ _____ _____    ______ ____
ROOT
ATOM      1  O   UNL     1       2.196   6.379  18.212  0.00  0.00    +0.000 OA
ATOM      2  C   UNL     1       3.147   5.610  18.283  0.00  0.00    +0.000 C 
ATOM      3  N   UNL     1       4.275   5.724  17.540  0.00  0.00    +0.000 N 
ATOM      4  C   UNL     1       5.496   4.978  17.426  0.00  0.00    +0.000 C 
ATOM      5  C   UNL     1       6.089   6.190  16.640  0.00  0.00    +0.000 C 
ATOM      6  C   UNL     1       4.630   6.716  16.550  0.00  0.00    +0.000 C 
ENDROOT
BRANCH   5   7
ATOM      7  C   UNL     1       7.031   7.067  17.478  0.00  0.00    +0.000 A 
ATOM      8  C   UNL     1       7.762   6.604  18.585  0.00  0.00    +0.000 A 
ATOM      9  C   UNL     1       8.609   7.633  18.891  0.00  0.00    +0.000 A 
ATOM     10  N   UNL     1       8.226   8.714  18.125  0.00  0.00    +0.000 N 
ATOM     11  N   UNL     1       7.264   8.363  17.225  0.00  0.00    +0.000 NA
BRANCH  10  12
ATOM     12  C   UNL     1       8.623  10.054  18.377  0.00  0.00    +0.000 A 
ATOM     13  C   UNL     1       8.094  11.095  17.595  0.00  0.00    +0.000 A 
ATOM     14  C   UNL     1       8.687  12.356  17.614  0.00  0.00    +0.000 A 
ATOM     15  C   UNL     1       9.806  12.582  18.412  0.00  0.00    +0.000 A 
ATOM     16  C   UNL     1      10.287  11.570  19.247  0.00  0.00    +0.000 A 
ATOM     17  C   UNL     1       9.678  10.310  19.258  0.00  0.00    +0.000 A 
ENDBRANCH  10  12
ENDBRANCH   5   7
BRANCH   2  18
ATOM     18  O   UNL     1       3.166   4.575  19.153  0.00  0.00    +0.000 OA
BRANCH  18  19
ATOM     19  C   UNL     1       2.102   3.589  18.971  0.00  0.00    +0.000 C 
BRANCH  19  20
ATOM     20  C   UNL     1       2.547   2.221  18.472  0.00  0.00    +0.000 C 
ATOM     21  F   UNL     1       1.877   1.228  19.113  0.00  0.00    +0.000 F 
ATOM     22  F   UNL     1       2.429   1.997  17.159  0.00  0.00    +0.000 F 
ATOM     23  F   UNL     1       3.859   2.032  18.783  0.00  0.00    +0.000 F 
ENDBRANCH  19  20
BRANCH  19  24
ATOM     24  C   UNL     1       1.106   3.482  20.104  0.00  0.00    +0.000 C 
ATOM     25  F   UNL     1       1.657   2.936  21.211  0.00  0.00    +0.000 F 
ATOM     26  F   UNL     1       0.697   4.732  20.473  0.00  0.00    +0.000 F 
ATOM     27  F   UNL     1      -0.020   2.790  19.843  0.00  0.00    +0.000 F 
ENDBRANCH  19  24
ENDBRANCH  18  19
ENDBRANCH   2  18
TORSDOF 6
ENDMDL
MODEL 6
REMARK VINA RESULT:      -8.1      1.044      1.729
REMARK  Name = 
REMARK  6 active torsions:
REMARK  status: ('A' for Active; 'I' for Inactive)
REMARK    1  A    between atoms: C_2  and  O_3
REMARK    2  A    between atoms: O_3  and  C_4
REMARK    3  A    between atoms: C_4  and  C_5
REMARK    4  A    between atoms: C_4  and  C_9
REMARK    5  A    between atoms: C_15  and  C_16
REMARK    6  A    between atoms: N_19  and  C_20
REMARK                            x       y       z     vdW  Elec       q    Type
REMARK                         _______ _______ _______ _____ _____    ______ ____
ROOT
ATOM      1  O   UNL     1       4.190   4.432  17.164  0.00  0.00    +0.000 OA
ATOM      2  C   UNL     1       4.655   4.771  18.246  0.00  0.00    +0.000 C 
ATOM      3  N   UNL     1       5.968   5.020  18.466  0.00  0.00    +0.000 N 
ATOM      4  C   UNL     1       6.751   5.414  19.602  0.00  0.00    +0.000 C 
ATOM      5  C   UNL     1       7.916   5.730  18.611  0.00  0.00    +0.000 C 
ATOM      6  C   UNL     1       7.083   4.964  17.546  0.00  0.00    +0.000 C 
ENDROOT
BRANCH   5   7
ATOM      7  C   UNL     1       8.090   7.229  18.324  0.00  0.00    +0.000 A 
ATOM      8  C   UNL     1       7.582   7.878  17.186  0.00  0.00    +0.000 A 
ATOM      9  C   UNL     1       7.778   9.209  17.434  0.00  0.00    +0.000 A 
ATOM     10  N   UNL     1       8.556   9.299  18.568  0.00  0.00    +0.000 N 
ATOM     11  N   UNL     1       8.732   8.074  19.143  0.00  0.00    +0.000 NA
BRANCH  10  12
ATOM     12  C   UNL     1       9.255  10.469  18.969  0.00  0.00    +0.000 A 
ATOM     13  C   UNL     1       9.796  11.324  17.995  0.00  0.00    +0.000 A 
ATOM     14  C   UNL     1      10.732  12.292  18.355  0.00  0.00    +0.000 A 
ATOM     15  C   UNL     1      11.129  12.410  19.685  0.00  0.00    +0.000 A 
ATOM     16  C   UNL     1      10.535  11.611  20.666  0.00  0.00    +0.000 A 
ATOM     17  C   UNL     1       9.571  10.658  20.318  0.00  0.00    +0.000 A 
ENDBRANCH  10  12
ENDBRANCH   5   7
BRANCH   2  18
ATOM     18  O   UNL     1       3.871   4.963  19.331  0.00  0.00    +0.000 OA
BRANCH  18  19
ATOM     19  C   UNL     1       2.747   4.036  19.458  0.00  0.00    +0.000 C 
BRANCH  19  20
ATOM     20  C   UNL     1       3.117   2.569  19.623  0.00  0.00    +0.000 C 
ATOM     21  F   UNL     1       2.086   1.864  20.161  0.00  0.00    +0.000 F 
ATOM     22  F   UNL     1       3.504   1.923  18.517  0.00  0.00    +0.000 F 
ATOM     23  F   UNL     1       4.137   2.457  20.518  0.00  0.00    +0.000 F 
ENDBRANCH  19  20
BRANCH  19  24
ATOM     24  C   UNL     1       1.657   4.456  20.418  0.00  0.00    +0.000 C 
ATOM     25  F   UNL     1       1.947   4.115  21.693  0.00  0.00    +0.000 F 
ATOM     26  F   UNL     1       1.544   5.818  20.415  0.00  0.00    +0.000 F 
ATOM     27  F   UNL     1       0.421   3.987  20.157  0.00  0.00    +0.000 F 
ENDBRANCH  19  24
ENDBRANCH  18  19
ENDBRANCH   2  18
TORSDOF 6
ENDMDL
MODEL 7
REMARK VINA RESULT:      -8.0      1.639      2.624
REMARK  Name = 
REMARK  6 active torsions:
REMARK  status: ('A' for Active; 'I' for Inactive)
REMARK    1  A    between atoms: C_2  and  O_3
REMARK    2  A    between atoms: O_3  and  C_4
REMARK    3  A    between atoms: C_4  and  C_5
REMARK    4  A    between atoms: C_4  and  C_9
REMARK    5  A    between atoms: C_15  and  C_16
REMARK    6  A    between atoms: N_19  and  C_20
REMARK                            x       y       z     vdW  Elec       q    Type
REMARK                         _______ _______ _______ _____ _____    ______ ____
ROOT
ATOM      1  O   UNL     1       2.382   6.209  19.265  0.00  0.00    +0.000 OA
ATOM      2  C   UNL     1       3.307   5.522  18.849  0.00  0.00    +0.000 C 
ATOM      3  N   UNL     1       4.193   5.928  17.907  0.00  0.00    +0.000 N 
ATOM      4  C   UNL     1       5.328   5.338  17.258  0.00  0.00    +0.000 C 
ATOM      5  C   UNL     1       5.700   6.765  16.747  0.00  0.00    +0.000 C 
ATOM      6  C   UNL     1       4.277   7.190  17.205  0.00  0.00    +0.000 C 
ENDROOT
BRANCH   5   7
ATOM      7  C   UNL     1       6.843   7.423  17.533  0.00  0.00    +0.000 A 
ATOM      8  C   UNL     1       7.674   6.739  18.437  0.00  0.00    +0.000 A 
ATOM      9  C   UNL     1       8.663   7.634  18.738  0.00  0.00    +0.000 A 
ATOM     10  N   UNL     1       8.293   8.846  18.194  0.00  0.00    +0.000 N 
ATOM     11  N   UNL     1       7.177   8.717  17.420  0.00  0.00    +0.000 NA
BRANCH  10  12
ATOM     12  C   UNL     1       8.866  10.094  18.555  0.00  0.00    +0.000 A 
ATOM     13  C   UNL     1       9.173  11.034  17.556  0.00  0.00    +0.000 A 
ATOM     14  C   UNL     1      10.002  12.116  17.844  0.00  0.00    +0.000 A 
ATOM     15  C   UNL     1      10.525  12.265  19.127  0.00  0.00    +0.000 A 
ATOM     16  C   UNL     1      10.159  11.374  20.140  0.00  0.00    +0.000 A 
ATOM     17  C   UNL     1       9.302  10.302  19.867  0.00  0.00    +0.000 A 
ENDBRANCH  10  12
ENDBRANCH   5   7
BRANCH   2  18
ATOM     18  O   UNL     1       3.550   4.282  19.331  0.00  0.00    +0.000 OA
BRANCH  18  19
ATOM     19  C   UNL     1       2.359   3.494  19.647  0.00  0.00    +0.000 C 
BRANCH  19  20
ATOM     20  C   UNL     1       2.153   2.241  18.806  0.00  0.00    +0.000 C 
ATOM     21  F   UNL     1       3.194   1.380  18.953  0.00  0.00    +0.000 F 
ATOM     22  F   UNL     1       1.031   1.550  19.029  0.00  0.00    +0.000 F 
ATOM     23  F   UNL     1       2.148   2.579  17.487  0.00  0.00    +0.000 F 
ENDBRANCH  19  20
BRANCH  19  24
ATOM     24  C   UNL     1       2.115   3.235  21.116  0.00  0.00    +0.000 C 
ATOM     25  F   UNL     1       2.331   4.339  21.867  0.00  0.00    +0.000 F 
ATOM     26  F   UNL     1       0.803   2.907  21.311  0.00  0.00    +0.000 F 
ATOM     27  F   UNL     1       2.829   2.236  21.672  0.00  0.00    +0.000 F 
ENDBRANCH  19  24
ENDBRANCH  18  19
ENDBRANCH   2  18
TORSDOF 6
ENDMDL
MODEL 8
REMARK VINA RESULT:      -8.0      1.273      1.791
REMARK  Name = 
REMARK  6 active torsions:
REMARK  status: ('A' for Active; 'I' for Inactive)
REMARK    1  A    between atoms: C_2  and  O_3
REMARK    2  A    between atoms: O_3  and  C_4
REMARK    3  A    between atoms: C_4  and  C_5
REMARK    4  A    between atoms: C_4  and  C_9
REMARK    5  A    between atoms: C_15  and  C_16
REMARK    6  A    between atoms: N_19  and  C_20
REMARK                            x       y       z     vdW  Elec       q    Type
REMARK                         _______ _______ _______ _____ _____    ______ ____
ROOT
ATOM      1  O   UNL     1       3.704   4.947  17.284  0.00  0.00    +0.000 OA
ATOM      2  C   UNL     1       4.364   5.072  18.308  0.00  0.00    +0.000 C 
ATOM      3  N   UNL     1       5.712   5.208  18.333  0.00  0.00    +0.000 N 
ATOM      4  C   UNL     1       6.699   5.359  19.363  0.00  0.00    +0.000 C 
ATOM      5  C   UNL     1       7.709   5.775  18.248  0.00  0.00    +0.000 C 
ATOM      6  C   UNL     1       6.654   5.248  17.236  0.00  0.00    +0.000 C 
ENDROOT
BRANCH   5   7
ATOM      7  C   UNL     1       7.958   7.288  18.176  0.00  0.00    +0.000 A 
ATOM      8  C   UNL     1       7.355   8.143  17.237  0.00  0.00    +0.000 A 
ATOM      9  C   UNL     1       7.683   9.402  17.659  0.00  0.00    +0.000 A 
ATOM     10  N   UNL     1       8.609   9.262  18.670  0.00  0.00    +0.000 N 
ATOM     11  N   UNL     1       8.766   7.951  19.016  0.00  0.00    +0.000 NA
BRANCH  10  12
ATOM     12  C   UNL     1       9.442  10.310  19.144  0.00  0.00    +0.000 A 
ATOM     13  C   UNL     1       9.359  10.711  20.488  0.00  0.00    +0.000 A 
ATOM     14  C   UNL     1       9.929  11.916  20.896  0.00  0.00    +0.000 A 
ATOM     15  C   UNL     1      10.581  12.722  19.966  0.00  0.00    +0.000 A 
ATOM     16  C   UNL     1      10.730  12.288  18.646  0.00  0.00    +0.000 A 
ATOM     17  C   UNL     1      10.190  11.065  18.235  0.00  0.00    +0.000 A 
ENDBRANCH  10  12
ENDBRANCH   5   7
BRANCH   2  18
ATOM     18  O   UNL     1       3.786   5.119  19.530  0.00  0.00    +0.000 OA
BRANCH  18  19
ATOM     19  C   UNL     1       2.846   4.036  19.815  0.00  0.00    +0.000 C 
BRANCH  19  20
ATOM     20  C   UNL     1       3.459   2.650  19.958  0.00  0.00    +0.000 C 
ATOM     21  F   UNL     1       2.732   1.723  19.279  0.00  0.00    +0.000 F 
ATOM     22  F   UNL     1       4.732   2.517  19.571  0.00  0.00    +0.000 F 
ATOM     23  F   UNL     1       3.406   2.265  21.264  0.00  0.00    +0.000 F 
ENDBRANCH  19  20
BRANCH  19  24
ATOM     24  C   UNL     1       1.828   4.319  20.897  0.00  0.00    +0.000 C 
ATOM     25  F   UNL     1       1.202   5.501  20.706  0.00  0.00    +0.000 F 
ATOM     26  F   UNL     1       0.846   3.369  20.860  0.00  0.00    +0.000 F 
ATOM     27  F   UNL     1       2.289   4.319  22.163  0.00  0.00    +0.000 F 
ENDBRANCH  19  24
ENDBRANCH  18  19
ENDBRANCH   2  18
TORSDOF 6
ENDMDL
MODEL 9
REMARK VINA RESULT:      -8.0      1.587      2.478
REMARK  Name = 
REMARK  6 active torsions:
REMARK  status: ('A' for Active; 'I' for Inactive)
REMARK    1  A    between atoms: C_2  and  O_3
REMARK    2  A    between atoms: O_3  and  C_4
REMARK    3  A    between atoms: C_4  and  C_5
REMARK    4  A    between atoms: C_4  and  C_9
REMARK    5  A    between atoms: C_15  and  C_16
REMARK    6  A    between atoms: N_19  and  C_20
REMARK                            x       y       z     vdW  Elec       q    Type
REMARK                         _______ _______ _______ _____ _____    ______ ____
ROOT
ATOM      1  O   UNL     1       2.354   5.973  18.982  0.00  0.00    +0.000 OA
ATOM      2  C   UNL     1       3.341   5.295  18.719  0.00  0.00    +0.000 C 
ATOM      3  N   UNL     1       4.281   5.643  17.807  0.00  0.00    +0.000 N 
ATOM      4  C   UNL     1       5.492   5.048  17.319  0.00  0.00    +0.000 C 
ATOM      5  C   UNL     1       5.838   6.428  16.677  0.00  0.00    +0.000 C 
ATOM      6  C   UNL     1       4.365   6.822  16.974  0.00  0.00    +0.000 C 
ENDROOT
BRANCH   5   7
ATOM      7  C   UNL     1       6.883   7.230  17.468  0.00  0.00    +0.000 A 
ATOM      8  C   UNL     1       7.673   6.693  18.499  0.00  0.00    +0.000 A 
ATOM      9  C   UNL     1       8.590   7.670  18.773  0.00  0.00    +0.000 A 
ATOM     10  N   UNL     1       8.203   8.795  18.075  0.00  0.00    +0.000 N 
ATOM     11  N   UNL     1       7.159   8.522  17.241  0.00  0.00    +0.000 NA
BRANCH  10  12
ATOM     12  C   UNL     1       8.682  10.106  18.339  0.00  0.00    +0.000 A 
ATOM     13  C   UNL     1       8.162  11.195  17.621  0.00  0.00    +0.000 A 
ATOM     14  C   UNL     1       8.818  12.424  17.639  0.00  0.00    +0.000 A 
ATOM     15  C   UNL     1       9.994  12.569  18.372  0.00  0.00    +0.000 A 
ATOM     16  C   UNL     1      10.471  11.509  19.148  0.00  0.00    +0.000 A 
ATOM     17  C   UNL     1       9.800  10.281  19.161  0.00  0.00    +0.000 A 
ENDBRANCH  10  12
ENDBRANCH   5   7
BRANCH   2  18
ATOM     18  O   UNL     1       3.599   4.131  19.356  0.00  0.00    +0.000 OA
BRANCH  18  19
ATOM     19  C   UNL     1       2.454   3.233  19.498  0.00  0.00    +0.000 C 
BRANCH  19  20
ATOM     20  C   UNL     1       1.537   3.513  20.682  0.00  0.00    +0.000 C 
ATOM     21  F   UNL     1       1.131   2.356  21.268  0.00  0.00    +0.000 F 
ATOM     22  F   UNL     1       2.031   4.295  21.647  0.00  0.00    +0.000 F 
ATOM     23  F   UNL     1       0.398   4.114  20.238  0.00  0.00    +0.000 F 
ENDBRANCH  19  20
BRANCH  19  24
ATOM     24  C   UNL     1       1.675   2.957  18.232  0.00  0.00    +0.000 C 
ATOM     25  F   UNL     1       2.474   2.533  17.228  0.00  0.00    +0.000 F 
ATOM     26  F   UNL     1       0.788   1.941  18.453  0.00  0.00    +0.000 F 
ATOM     27  F   UNL     1       0.945   3.981  17.747  0.00  0.00    +0.000 F 
ENDBRANCH  19  24
ENDBRANCH  18  19
ENDBRANCH   2  18
TORSDOF 6
ENDMDL
