MODEL 1
REMARK VINA RESULT:      -7.5      0.000      0.000
REMARK  Name = 
REMARK  6 active torsions:
REMARK  status: ('A' for Active; 'I' for Inactive)
REMARK    1  A    between atoms: C_1  and  C_2
REMARK    2  A    between atoms: C_2  and  C_3
REMARK    3  A    between atoms: C_2  and  C_4
REMARK    4  A    between atoms: C_4  and  N_5
REMARK    5  A    between atoms: C_13  and  O_14
REMARK    6  A    between atoms: C_13  and  C_15
REMARK                            x       y       z     vdW  Elec       q    Type
REMARK                         _______ _______ _______ _____ _____    ______ ____
ROOT
ATOM      1  N   UNL     1       3.614   4.440  17.900  0.00  0.00    +0.000 N 
ATOM      2  C   UNL     1       4.746   4.434  17.140  0.00  0.00    +0.000 A 
ATOM      3  N   UNL     1       4.873   3.845  15.941  0.00  0.00    +0.000 NA
ATOM      4  C   UNL     1       6.098   3.884  15.384  0.00  0.00    +0.000 A 
ATOM      5  C   UNL     1       7.186   4.502  15.971  0.00  0.00    +0.000 A 
ATOM      6  C   UNL     1       6.977   5.126  17.193  0.00  0.00    +0.000 A 
ATOM      7  N   UNL     1       5.754   5.078  17.739  0.00  0.00    +0.000 N 
ATOM      8  C   UNL     1       5.342   5.683  18.995  0.00  0.00    +0.000 C 
ATOM      9  C   UNL     1       3.829   5.309  19.044  0.00  0.00    +0.000 C 
ENDROOT
BRANCH   9  10
ATOM     10  C   UNL     1       3.009   6.600  19.023  0.00  0.00    +0.000 A 
ATOM     11  C   UNL     1       3.039   7.483  17.927  0.00  0.00    +0.000 A 
ATOM     12  C   UNL     1       2.277   8.653  17.928  0.00  0.00    +0.000 A 
ATOM     13  C   UNL     1       1.482   8.969  19.029  0.00  0.00    +0.000 A 
ATOM     14 BR   UNL     1       0.416  10.528  18.995  0.00  0.00    +0.000 Br
ATOM     15  C   UNL     1       1.457   8.142  20.139  0.00  0.00    +0.000 A 
ATOM     16  C   UNL     1       2.225   6.964  20.138  0.00  0.00    +0.000 A 
ENDBRANCH   9  10
BRANCH   9  17
ATOM     17  O   UNL     1       3.638   4.525  20.204  0.00  0.00    +0.000 OA
ATOM     18  H   UNL     1       4.360   4.778  20.817  0.00  0.00    +0.000 HD
ENDBRANCH   9  17
BRANCH   1  19
ATOM     19  C   UNL     1       2.317   3.973  17.435  0.00  0.00    +0.000 C 
BRANCH  19  21
ATOM     20  C   UNL     1       3.209   1.776  18.386  0.00  0.00    +0.000 C 
ATOM     21  C   UNL     1       1.972   2.557  17.939  0.00  0.00    +0.000 C 
ATOM     22  C   UNL     1       0.964   2.630  19.089  0.00  0.00    +0.000 C 
ENDBRANCH  19  21
ENDBRANCH   1  19
TORSDOF 4
ENDMDL
MODEL 2
REMARK VINA RESULT:      -7.4      0.051      1.054
REMARK  Name = 
REMARK  6 active torsions:
REMARK  status: ('A' for Active; 'I' for Inactive)
REMARK    1  A    between atoms: C_1  and  C_2
REMARK    2  A    between atoms: C_2  and  C_3
REMARK    3  A    between atoms: C_2  and  C_4
REMARK    4  A    between atoms: C_4  and  N_5
REMARK    5  A    between atoms: C_13  and  O_14
REMARK    6  A    between atoms: C_13  and  C_15
REMARK                            x       y       z     vdW  Elec       q    Type
REMARK                         _______ _______ _______ _____ _____    ______ ____
ROOT
ATOM      1  N   UNL     1       3.623   4.425  17.905  0.00  0.00    +0.000 N 
ATOM      2  C   UNL     1       4.750   4.426  17.137  0.00  0.00    +0.000 A 
ATOM      3  N   UNL     1       4.868   3.848  15.931  0.00  0.00    +0.000 NA
ATOM      4  C   UNL     1       6.089   3.892  15.366  0.00  0.00    +0.000 A 
ATOM      5  C   UNL     1       7.182   4.502  15.952  0.00  0.00    +0.000 A 
ATOM      6  C   UNL     1       6.982   5.113  17.182  0.00  0.00    +0.000 A 
ATOM      7  N   UNL     1       5.763   5.062  17.736  0.00  0.00    +0.000 N 
ATOM      8  C   UNL     1       5.361   5.654  19.000  0.00  0.00    +0.000 C 
ATOM      9  C   UNL     1       3.848   5.282  19.056  0.00  0.00    +0.000 C 
ENDROOT
BRANCH   9  10
ATOM     10  C   UNL     1       3.029   6.574  19.054  0.00  0.00    +0.000 A 
ATOM     11  C   UNL     1       2.202   6.932  20.136  0.00  0.00    +0.000 A 
ATOM     12  C   UNL     1       1.468   8.120  20.114  0.00  0.00    +0.000 A 
ATOM     13  C   UNL     1       1.538   8.965  19.007  0.00  0.00    +0.000 A 
ATOM     14 BR   UNL     1       0.582  10.595  19.015  0.00  0.00    +0.000 Br
ATOM     15  C   UNL     1       2.313   8.627  17.912  0.00  0.00    +0.000 A 
ATOM     16  C   UNL     1       3.050   7.429  17.933  0.00  0.00    +0.000 A 
ENDBRANCH   9  10
BRANCH   9  17
ATOM     17  O   UNL     1       3.663   4.487  20.209  0.00  0.00    +0.000 OA
ATOM     18  H   UNL     1       3.492   5.116  20.942  0.00  0.00    +0.000 HD
ENDBRANCH   9  17
BRANCH   1  19
ATOM     19  C   UNL     1       2.323   3.964  17.444  0.00  0.00    +0.000 C 
BRANCH  19  21
ATOM     20  C   UNL     1       3.219   1.760  18.374  0.00  0.00    +0.000 C 
ATOM     21  C   UNL     1       1.981   2.542  17.933  0.00  0.00    +0.000 C 
ATOM     22  C   UNL     1       0.971   2.601  19.082  0.00  0.00    +0.000 C 
ENDBRANCH  19  21
ENDBRANCH   1  19
TORSDOF 4
ENDMDL
MODEL 3
REMARK VINA RESULT:      -7.3      1.593      3.898
REMARK  Name = 
REMARK  6 active torsions:
REMARK  status: ('A' for Active; 'I' for Inactive)
REMARK    1  A    between atoms: C_1  and  C_2
REMARK    2  A    between atoms: C_2  and  C_3
REMARK    3  A    between atoms: C_2  and  C_4
REMARK    4  A    between atoms: C_4  and  N_5
REMARK    5  A    between atoms: C_13  and  O_14
REMARK    6  A    between atoms: C_13  and  C_15
REMARK                            x       y       z     vdW  Elec       q    Type
REMARK                         _______ _______ _______ _____ _____    ______ ____
ROOT
ATOM      1  N   UNL     1       4.950   4.987  18.502  0.00  0.00    +0.000 N 
ATOM      2  C   UNL     1       4.546   3.715  18.780  0.00  0.00    +0.000 A 
ATOM      3  N   UNL     1       5.126   2.893  19.669  0.00  0.00    +0.000 NA
ATOM      4  C   UNL     1       4.626   1.645  19.741  0.00  0.00    +0.000 A 
ATOM      5  C   UNL     1       3.566   1.200  18.976  0.00  0.00    +0.000 A 
ATOM      6  C   UNL     1       2.987   2.112  18.104  0.00  0.00    +0.000 A 
ATOM      7  N   UNL     1       3.494   3.351  18.038  0.00  0.00    +0.000 N 
ATOM      8  C   UNL     1       3.015   4.440  17.204  0.00  0.00    +0.000 C 
ATOM      9  C   UNL     1       3.979   5.596  17.609  0.00  0.00    +0.000 C 
ENDROOT
BRANCH   9  10
ATOM     10  C   UNL     1       3.152   6.718  18.240  0.00  0.00    +0.000 A 
ATOM     11  C   UNL     1       2.590   6.596  19.524  0.00  0.00    +0.000 A 
ATOM     12  C   UNL     1       1.843   7.636  20.082  0.00  0.00    +0.000 A 
ATOM     13  C   UNL     1       1.636   8.812  19.362  0.00  0.00    +0.000 A 
ATOM     14 BR   UNL     1       0.671  10.232  20.149  0.00  0.00    +0.000 Br
ATOM     15  C   UNL     1       2.145   8.952  18.082  0.00  0.00    +0.000 A 
ATOM     16  C   UNL     1       2.894   7.903  17.520  0.00  0.00    +0.000 A 
ENDBRANCH   9  10
BRANCH   9  17
ATOM     17  O   UNL     1       4.672   5.980  16.440  0.00  0.00    +0.000 OA
ATOM     18  H   UNL     1       4.221   5.522  15.700  0.00  0.00    +0.000 HD
ENDBRANCH   9  17
BRANCH   1  19
ATOM     19  C   UNL     1       5.950   5.711  19.270  0.00  0.00    +0.000 C 
BRANCH  19  21
ATOM     20  C   UNL     1       7.525   4.589  17.601  0.00  0.00    +0.000 C 
ATOM     21  C   UNL     1       7.328   5.749  18.578  0.00  0.00    +0.000 C 
ATOM     22  C   UNL     1       7.521   7.079  17.845  0.00  0.00    +0.000 C 
ENDBRANCH  19  21
ENDBRANCH   1  19
TORSDOF 4
ENDMDL
MODEL 4
REMARK VINA RESULT:      -7.2      1.591      3.768
REMARK  Name = 
REMARK  6 active torsions:
REMARK  status: ('A' for Active; 'I' for Inactive)
REMARK    1  A    between atoms: C_1  and  C_2
REMARK    2  A    between atoms: C_2  and  C_3
REMARK    3  A    between atoms: C_2  and  C_4
REMARK    4  A    between atoms: C_4  and  N_5
REMARK    5  A    between atoms: C_13  and  O_14
REMARK    6  A    between atoms: C_13  and  C_15
REMARK                            x       y       z     vdW  Elec       q    Type
REMARK                         _______ _______ _______ _____ _____    ______ ____
ROOT
ATOM      1  N   UNL     1       4.939   4.975  18.492  0.00  0.00    +0.000 N 
ATOM      2  C   UNL     1       4.534   3.706  18.782  0.00  0.00    +0.000 A 
ATOM      3  N   UNL     1       5.114   2.892  19.677  0.00  0.00    +0.000 NA
ATOM      4  C   UNL     1       4.612   1.645  19.762  0.00  0.00    +0.000 A 
ATOM      5  C   UNL     1       3.549   1.195  19.003  0.00  0.00    +0.000 A 
ATOM      6  C   UNL     1       2.970   2.100  18.124  0.00  0.00    +0.000 A 
ATOM      7  N   UNL     1       3.479   3.337  18.046  0.00  0.00    +0.000 N 
ATOM      8  C   UNL     1       3.000   4.420  17.203  0.00  0.00    +0.000 C 
ATOM      9  C   UNL     1       3.967   5.578  17.596  0.00  0.00    +0.000 C 
ENDROOT
BRANCH   9  10
ATOM     10  C   UNL     1       3.144   6.708  18.218  0.00  0.00    +0.000 A 
ATOM     11  C   UNL     1       2.921   7.923  17.544  0.00  0.00    +0.000 A 
ATOM     12  C   UNL     1       2.162   8.939  18.130  0.00  0.00    +0.000 A 
ATOM     13  C   UNL     1       1.624   8.762  19.404  0.00  0.00    +0.000 A 
ATOM     14 BR   UNL     1       0.554  10.123  20.162  0.00  0.00    +0.000 Br
ATOM     15  C   UNL     1       1.853   7.594  20.110  0.00  0.00    +0.000 A 
ATOM     16  C   UNL     1       2.620   6.573  19.520  0.00  0.00    +0.000 A 
ENDBRANCH   9  10
BRANCH   9  17
ATOM     17  O   UNL     1       4.658   5.950  16.421  0.00  0.00    +0.000 OA
ATOM     18  H   UNL     1       5.255   5.200  16.214  0.00  0.00    +0.000 HD
ENDBRANCH   9  17
BRANCH   1  19
ATOM     19  C   UNL     1       5.943   5.704  19.251  0.00  0.00    +0.000 C 
BRANCH  19  21
ATOM     20  C   UNL     1       7.517   4.567  17.591  0.00  0.00    +0.000 C 
ATOM     21  C   UNL     1       7.317   5.741  18.551  0.00  0.00    +0.000 C 
ATOM     22  C   UNL     1       7.496   7.061  17.796  0.00  0.00    +0.000 C 
ENDBRANCH  19  21
ENDBRANCH   1  19
TORSDOF 4
ENDMDL
MODEL 5
REMARK VINA RESULT:      -7.2      0.841      1.558
REMARK  Name = 
REMARK  6 active torsions:
REMARK  status: ('A' for Active; 'I' for Inactive)
REMARK    1  A    between atoms: C_1  and  C_2
REMARK    2  A    between atoms: C_2  and  C_3
REMARK    3  A    between atoms: C_2  and  C_4
REMARK    4  A    between atoms: C_4  and  N_5
REMARK    5  A    between atoms: C_13  and  O_14
REMARK    6  A    between atoms: C_13  and  C_15
REMARK                            x       y       z     vdW  Elec       q    Type
REMARK                         _______ _______ _______ _____ _____    ______ ____
ROOT
ATOM      1  N   UNL     1       4.178   4.329  17.415  0.00  0.00    +0.000 N 
ATOM      2  C   UNL     1       5.064   4.462  16.387  0.00  0.00    +0.000 A 
ATOM      3  N   UNL     1       4.969   3.848  15.197  0.00  0.00    +0.000 NA
ATOM      4  C   UNL     1       5.990   4.046  14.341  0.00  0.00    +0.000 A 
ATOM      5  C   UNL     1       7.082   4.844  14.624  0.00  0.00    +0.000 A 
ATOM      6  C   UNL     1       7.098   5.481  15.858  0.00  0.00    +0.000 A 
ATOM      7  N   UNL     1       6.079   5.274  16.703  0.00  0.00    +0.000 N 
ATOM      8  C   UNL     1       5.913   5.862  18.021  0.00  0.00    +0.000 C 
ATOM      9  C   UNL     1       4.541   5.269  18.462  0.00  0.00    +0.000 C 
ENDROOT
BRANCH   9  10
ATOM     10  C   UNL     1       3.552   6.420  18.652  0.00  0.00    +0.000 A 
ATOM     11  C   UNL     1       2.725   6.510  19.787  0.00  0.00    +0.000 A 
ATOM     12  C   UNL     1       1.833   7.574  19.943  0.00  0.00    +0.000 A 
ATOM     13  C   UNL     1       1.744   8.560  18.961  0.00  0.00    +0.000 A 
ATOM     14 BR   UNL     1       0.574  10.022  19.209  0.00  0.00    +0.000 Br
ATOM     15  C   UNL     1       2.518   8.484  17.815  0.00  0.00    +0.000 A 
ATOM     16  C   UNL     1       3.413   7.412  17.658  0.00  0.00    +0.000 A 
ENDBRANCH   9  10
BRANCH   9  17
ATOM     17  O   UNL     1       4.777   4.515  19.633  0.00  0.00    +0.000 OA
ATOM     18  H   UNL     1       4.343   5.009  20.360  0.00  0.00    +0.000 HD
ENDBRANCH   9  17
BRANCH   1  19
ATOM     19  C   UNL     1       2.894   3.655  17.303  0.00  0.00    +0.000 C 
BRANCH  19  21
ATOM     20  C   UNL     1       1.085   2.428  18.626  0.00  0.00    +0.000 C 
ATOM     21  C   UNL     1       2.573   2.767  18.522  0.00  0.00    +0.000 C 
ATOM     22  C   UNL     1       3.395   1.476  18.473  0.00  0.00    +0.000 C 
ENDBRANCH  19  21
ENDBRANCH   1  19
TORSDOF 4
ENDMDL
MODEL 6
REMARK VINA RESULT:      -7.2      0.827      1.145
REMARK  Name = 
REMARK  6 active torsions:
REMARK  status: ('A' for Active; 'I' for Inactive)
REMARK    1  A    between atoms: C_1  and  C_2
REMARK    2  A    between atoms: C_2  and  C_3
REMARK    3  A    between atoms: C_2  and  C_4
REMARK    4  A    between atoms: C_4  and  N_5
REMARK    5  A    between atoms: C_13  and  O_14
REMARK    6  A    between atoms: C_13  and  C_15
REMARK                            x       y       z     vdW  Elec       q    Type
REMARK                         _______ _______ _______ _____ _____    ______ ____
ROOT
ATOM      1  N   UNL     1       4.152   4.370  17.405  0.00  0.00    +0.000 N 
ATOM      2  C   UNL     1       5.048   4.485  16.383  0.00  0.00    +0.000 A 
ATOM      3  N   UNL     1       4.961   3.855  15.201  0.00  0.00    +0.000 NA
ATOM      4  C   UNL     1       5.989   4.038  14.351  0.00  0.00    +0.000 A 
ATOM      5  C   UNL     1       7.081   4.836  14.632  0.00  0.00    +0.000 A 
ATOM      6  C   UNL     1       7.090   5.490  15.857  0.00  0.00    +0.000 A 
ATOM      7  N   UNL     1       6.062   5.299  16.696  0.00  0.00    +0.000 N 
ATOM      8  C   UNL     1       5.888   5.906  18.005  0.00  0.00    +0.000 C 
ATOM      9  C   UNL     1       4.510   5.323  18.442  0.00  0.00    +0.000 C 
ENDROOT
BRANCH   9  10
ATOM     10  C   UNL     1       3.524   6.481  18.608  0.00  0.00    +0.000 A 
ATOM     11  C   UNL     1       3.384   7.484  17.631  0.00  0.00    +0.000 A 
ATOM     12  C   UNL     1       2.473   8.529  17.802  0.00  0.00    +0.000 A 
ATOM     13  C   UNL     1       1.695   8.596  18.957  0.00  0.00    +0.000 A 
ATOM     14 BR   UNL     1       0.428   9.984  19.151  0.00  0.00    +0.000 Br
ATOM     15  C   UNL     1       1.832   7.646  19.954  0.00  0.00    +0.000 A 
ATOM     16  C   UNL     1       2.751   6.595  19.783  0.00  0.00    +0.000 A 
ENDBRANCH   9  10
BRANCH   9  17
ATOM     17  O   UNL     1       4.734   4.585  19.626  0.00  0.00    +0.000 OA
ATOM     18  H   UNL     1       4.142   3.806  19.570  0.00  0.00    +0.000 HD
ENDBRANCH   9  17
BRANCH   1  19
ATOM     19  C   UNL     1       2.867   3.698  17.292  0.00  0.00    +0.000 C 
BRANCH  19  21
ATOM     20  C   UNL     1       1.055   2.487  18.624  0.00  0.00    +0.000 C 
ATOM     21  C   UNL     1       2.546   2.807  18.509  0.00  0.00    +0.000 C 
ATOM     22  C   UNL     1       3.349   1.505  18.443  0.00  0.00    +0.000 C 
ENDBRANCH  19  21
ENDBRANCH   1  19
TORSDOF 4
ENDMDL
MODEL 7
REMARK VINA RESULT:      -7.1      2.994      5.704
REMARK  Name = 
REMARK  6 active torsions:
REMARK  status: ('A' for Active; 'I' for Inactive)
REMARK    1  A    between atoms: C_1  and  C_2
REMARK    2  A    between atoms: C_2  and  C_3
REMARK    3  A    between atoms: C_2  and  C_4
REMARK    4  A    between atoms: C_4  and  N_5
REMARK    5  A    between atoms: C_13  and  O_14
REMARK    6  A    between atoms: C_13  and  C_15
REMARK                            x       y       z     vdW  Elec       q    Type
REMARK                         _______ _______ _______ _____ _____    ______ ____
ROOT
ATOM      1  N   UNL     1       4.214   5.359  19.387  0.00  0.00    +0.000 N 
ATOM      2  C   UNL     1       3.117   4.657  19.792  0.00  0.00    +0.000 A 
ATOM      3  N   UNL     1       1.910   5.185  20.051  0.00  0.00    +0.000 NA
ATOM      4  C   UNL     1       0.975   4.335  20.517  0.00  0.00    +0.000 A 
ATOM      5  C   UNL     1       1.198   2.986  20.713  0.00  0.00    +0.000 A 
ATOM      6  C   UNL     1       2.457   2.497  20.389  0.00  0.00    +0.000 A 
ATOM      7  N   UNL     1       3.380   3.353  19.928  0.00  0.00    +0.000 N 
ATOM      8  C   UNL     1       4.737   3.027  19.524  0.00  0.00    +0.000 C 
ATOM      9  C   UNL     1       5.271   4.417  19.061  0.00  0.00    +0.000 C 
ENDROOT
BRANCH   9  10
ATOM     10  C   UNL     1       5.612   4.336  17.572  0.00  0.00    +0.000 A 
ATOM     11  C   UNL     1       6.840   4.799  17.064  0.00  0.00    +0.000 A 
ATOM     12  C   UNL     1       7.132   4.709  15.701  0.00  0.00    +0.000 A 
ATOM     13  C   UNL     1       6.197   4.167  14.821  0.00  0.00    +0.000 A 
ATOM     14 BR   UNL     1       6.625   4.002  12.988  0.00  0.00    +0.000 Br
ATOM     15  C   UNL     1       4.964   3.735  15.280  0.00  0.00    +0.000 A 
ATOM     16  C   UNL     1       4.670   3.828  16.653  0.00  0.00    +0.000 A 
ENDBRANCH   9  10
BRANCH   9  17
ATOM     17  O   UNL     1       6.374   4.728  19.887  0.00  0.00    +0.000 OA
ATOM     18  H   UNL     1       5.997   4.935  20.768  0.00  0.00    +0.000 HD
ENDBRANCH   9  17
BRANCH   1  19
ATOM     19  C   UNL     1       4.185   6.757  18.988  0.00  0.00    +0.000 C 
BRANCH  19  21
ATOM     20  C   UNL     1       2.294   8.102  17.920  0.00  0.00    +0.000 C 
ATOM     21  C   UNL     1       3.340   7.004  17.722  0.00  0.00    +0.000 C 
ATOM     22  C   UNL     1       4.244   7.360  16.538  0.00  0.00    +0.000 C 
ENDBRANCH  19  21
ENDBRANCH   1  19
TORSDOF 4
ENDMDL
MODEL 8
REMARK VINA RESULT:      -7.1      3.001      5.739
REMARK  Name = 
REMARK  6 active torsions:
REMARK  status: ('A' for Active; 'I' for Inactive)
REMARK    1  A    between atoms: C_1  and  C_2
REMARK    2  A    between atoms: C_2  and  C_3
REMARK    3  A    between atoms: C_2  and  C_4
REMARK    4  A    between atoms: C_4  and  N_5
REMARK    5  A    between atoms: C_13  and  O_14
REMARK    6  A    between atoms: C_13  and  C_15
REMARK                            x       y       z     vdW  Elec       q    Type
REMARK                         _______ _______ _______ _____ _____    ______ ____
ROOT
ATOM      1  N   UNL     1       4.226   5.370  19.389  0.00  0.00    +0.000 N 
ATOM      2  C   UNL     1       3.128   4.677  19.806  0.00  0.00    +0.000 A 
ATOM      3  N   UNL     1       1.925   5.212  20.064  0.00  0.00    +0.000 NA
ATOM      4  C   UNL     1       0.988   4.371  20.543  0.00  0.00    +0.000 A 
ATOM      5  C   UNL     1       1.207   3.024  20.754  0.00  0.00    +0.000 A 
ATOM      6  C   UNL     1       2.462   2.527  20.431  0.00  0.00    +0.000 A 
ATOM      7  N   UNL     1       3.387   3.373  19.957  0.00  0.00    +0.000 N 
ATOM      8  C   UNL     1       4.741   3.038  19.551  0.00  0.00    +0.000 C 
ATOM      9  C   UNL     1       5.279   4.420  19.070  0.00  0.00    +0.000 C 
ENDROOT
BRANCH   9  10
ATOM     10  C   UNL     1       5.614   4.320  17.581  0.00  0.00    +0.000 A 
ATOM     11  C   UNL     1       4.714   3.763  16.653  0.00  0.00    +0.000 A 
ATOM     12  C   UNL     1       5.039   3.687  15.296  0.00  0.00    +0.000 A 
ATOM     13  C   UNL     1       6.274   4.154  14.847  0.00  0.00    +0.000 A 
ATOM     14 BR   UNL     1       6.679   4.095  13.002  0.00  0.00    +0.000 Br
ATOM     15  C   UNL     1       7.197   4.675  15.738  0.00  0.00    +0.000 A 
ATOM     16  C   UNL     1       6.869   4.749  17.103  0.00  0.00    +0.000 A 
ENDBRANCH   9  10
BRANCH   9  17
ATOM     17  O   UNL     1       6.386   4.736  19.889  0.00  0.00    +0.000 OA
ATOM     18  H   UNL     1       6.492   3.976  20.499  0.00  0.00    +0.000 HD
ENDBRANCH   9  17
BRANCH   1  19
ATOM     19  C   UNL     1       4.202   6.763  18.974  0.00  0.00    +0.000 C 
BRANCH  19  21
ATOM     20  C   UNL     1       2.331   8.110  17.874  0.00  0.00    +0.000 C 
ATOM     21  C   UNL     1       3.365   6.996  17.700  0.00  0.00    +0.000 C 
ATOM     22  C   UNL     1       4.277   7.319  16.514  0.00  0.00    +0.000 C 
ENDBRANCH  19  21
ENDBRANCH   1  19
TORSDOF 4
ENDMDL
MODEL 9
REMARK VINA RESULT:      -6.7      2.967      5.571
REMARK  Name = 
REMARK  6 active torsions:
REMARK  status: ('A' for Active; 'I' for Inactive)
REMARK    1  A    between atoms: C_1  and  C_2
REMARK    2  A    between atoms: C_2  and  C_3
REMARK    3  A    between atoms: C_2  and  C_4
REMARK    4  A    between atoms: C_4  and  N_5
REMARK    5  A    between atoms: C_13  and  O_14
REMARK    6  A    between atoms: C_13  and  C_15
REMARK                            x       y       z     vdW  Elec       q    Type
REMARK                         _______ _______ _______ _____ _____    ______ ____
ROOT
ATOM      1  N   UNL     1       3.176   5.484  18.777  0.00  0.00    +0.000 N 
ATOM      2  C   UNL     1       2.597   4.466  19.476  0.00  0.00    +0.000 A 
ATOM      3  N   UNL     1       1.282   4.338  19.714  0.00  0.00    +0.000 NA
ATOM      4  C   UNL     1       0.916   3.303  20.493  0.00  0.00    +0.000 A 
ATOM      5  C   UNL     1       1.808   2.390  21.022  0.00  0.00    +0.000 A 
ATOM      6  C   UNL     1       3.149   2.558  20.705  0.00  0.00    +0.000 A 
ATOM      7  N   UNL     1       3.503   3.593  19.931  0.00  0.00    +0.000 N 
ATOM      8  C   UNL     1       4.846   3.920  19.482  0.00  0.00    +0.000 C 
ATOM      9  C   UNL     1       4.587   5.182  18.603  0.00  0.00    +0.000 C 
ENDROOT
BRANCH   9  10
ATOM     10  C   UNL     1       4.996   4.864  17.164  0.00  0.00    +0.000 A 
ATOM     11  C   UNL     1       5.303   5.878  16.237  0.00  0.00    +0.000 A 
ATOM     12  C   UNL     1       5.679   5.564  14.930  0.00  0.00    +0.000 A 
ATOM     13  C   UNL     1       5.744   4.233  14.522  0.00  0.00    +0.000 A 
ATOM     14 BR   UNL     1       6.307   3.820  12.766  0.00  0.00    +0.000 Br
ATOM     15  C   UNL     1       5.414   3.211  15.396  0.00  0.00    +0.000 A 
ATOM     16  C   UNL     1       5.033   3.528  16.712  0.00  0.00    +0.000 A 
ENDBRANCH   9  10
BRANCH   9  17
ATOM     17  O   UNL     1       5.314   6.243  19.187  0.00  0.00    +0.000 OA
ATOM     18  H   UNL     1       6.169   5.855  19.471  0.00  0.00    +0.000 HD
ENDBRANCH   9  17
BRANCH   1  19
ATOM     19  C   UNL     1       2.434   6.479  18.019  0.00  0.00    +0.000 C 
BRANCH  19  21
ATOM     20  C   UNL     1       1.848   8.952  17.767  0.00  0.00    +0.000 C 
ATOM     21  C   UNL     1       2.503   7.886  18.646  0.00  0.00    +0.000 C 
ATOM     22  C   UNL     1       1.849   7.886  20.031  0.00  0.00    +0.000 C 
ENDBRANCH  19  21
ENDBRANCH   1  19
TORSDOF 4
ENDMDL
