MODEL 1
REMARK VINA RESULT:      -8.6      0.000      0.000
REMARK  Name = 
REMARK  9 active torsions:
REMARK  status: ('A' for Active; 'I' for Inactive)
REMARK    1  A    between atoms: C_1  and  C_2
REMARK    2  A    between atoms: C_5  and  C_6
REMARK    3  A    between atoms: C_9  and  C_10
REMARK    4  A    between atoms: C_10  and  C_11
REMARK    5  A    between atoms: C_11  and  C_12
REMARK    6  A    between atoms: N_14  and  C_15
REMARK    7  A    between atoms: C_15  and  C_16
REMARK    8  A    between atoms: C_21  and  C_22
REMARK    9  A    between atoms: C_22  and  N_23
REMARK                            x       y       z     vdW  Elec       q    Type
REMARK                         _______ _______ _______ _____ _____    ______ ____
ROOT
ATOM      1  C   UNL     1       1.913   8.636  18.244  0.00  0.00    +0.000 C 
ATOM      2  O   UNL     1       2.655   8.557  17.270  0.00  0.00    +0.000 OA
ATOM      3  N   UNL     1       2.024   7.838  19.359  0.00  0.00    +0.000 N 
ATOM      4  H   UNL     1       1.384   7.961  20.131  0.00  0.00    +0.000 HD
ENDROOT
BRANCH   1   5
ATOM      5  C   UNL     1       0.777   9.636  18.313  0.00  0.00    +0.000 C 
BRANCH   5   6
ATOM      6  C   UNL     1       1.300  10.940  18.898  0.00  0.00    +0.000 C 
BRANCH   6  10
ATOM      7  C   UNL     1      -0.963  12.017  21.441  0.00  0.00    +0.000 A 
ATOM      8  N   UNL     1       0.205  12.334  22.027  0.00  0.00    +0.000 NA
ATOM      9  O   UNL     1       1.165  11.925  21.107  0.00  0.00    +0.000 OA
ATOM     10  C   UNL     1       0.489  11.392  20.052  0.00  0.00    +0.000 A 
ATOM     11  N   UNL     1      -0.814  11.402  20.211  0.00  0.00    +0.000 NA
BRANCH   7  16
ATOM     12  C   UNL     1      -6.120  13.297  23.735  0.00  0.00    +0.000 C 
ATOM     13  C   UNL     1      -4.788  12.938  23.147  0.00  0.00    +0.000 A 
ATOM     14  C   UNL     1      -3.768  12.410  23.941  0.00  0.00    +0.000 A 
ATOM     15  C   UNL     1      -2.524  12.100  23.385  0.00  0.00    +0.000 A 
ATOM     16  C   UNL     1      -2.271  12.314  22.021  0.00  0.00    +0.000 A 
ATOM     17  C   UNL     1      -3.298  12.840  21.227  0.00  0.00    +0.000 A 
ATOM     18  C   UNL     1      -4.545  13.151  21.782  0.00  0.00    +0.000 A 
ENDBRANCH   7  16
ENDBRANCH   6  10
ENDBRANCH   5   6
ENDBRANCH   1   5
BRANCH   3  19
ATOM     19  C   UNL     1       3.014   6.794  19.482  0.00  0.00    +0.000 C 
BRANCH  19  20
ATOM     20  C   UNL     1       2.396   5.440  19.216  0.00  0.00    +0.000 A 
ATOM     21  C   UNL     1       1.544   4.914  20.211  0.00  0.00    +0.000 A 
ATOM     22  C   UNL     1       0.938   3.673  20.055  0.00  0.00    +0.000 A 
ATOM     23  C   UNL     1       1.165   2.937  18.892  0.00  0.00    +0.000 A 
ATOM     24  C   UNL     1       2.039   3.426  17.911  0.00  0.00    +0.000 A 
ATOM     25  C   UNL     1       2.687   4.669  18.057  0.00  0.00    +0.000 A 
BRANCH  25  26
ATOM     26  C   UNL     1       3.847   5.051  17.140  0.00  0.00    +0.000 C 
BRANCH  26  27
ATOM     27  N   UNL     1       5.146   4.366  17.265  0.00  0.00    +0.000 NA
ATOM     28  C   UNL     1       6.098   5.272  17.973  0.00  0.00    +0.000 C 
ATOM     29  C   UNL     1       6.731   6.361  17.087  0.00  0.00    +0.000 C 
ATOM     30  O   UNL     1       7.450   5.760  16.007  0.00  0.00    +0.000 OA
ATOM     31  C   UNL     1       6.560   4.995  15.190  0.00  0.00    +0.000 C 
ATOM     32  C   UNL     1       5.783   3.929  16.005  0.00  0.00    +0.000 C 
ENDBRANCH  26  27
ENDBRANCH  25  26
ENDBRANCH  19  20
ENDBRANCH   3  19
TORSDOF 8
ENDMDL
MODEL 2
REMARK VINA RESULT:      -8.5      1.193      1.521
REMARK  Name = 
REMARK  9 active torsions:
REMARK  status: ('A' for Active; 'I' for Inactive)
REMARK    1  A    between atoms: C_1  and  C_2
REMARK    2  A    between atoms: C_5  and  C_6
REMARK    3  A    between atoms: C_9  and  C_10
REMARK    4  A    between atoms: C_10  and  C_11
REMARK    5  A    between atoms: C_11  and  C_12
REMARK    6  A    between atoms: N_14  and  C_15
REMARK    7  A    between atoms: C_15  and  C_16
REMARK    8  A    between atoms: C_21  and  C_22
REMARK    9  A    between atoms: C_22  and  N_23
REMARK                            x       y       z     vdW  Elec       q    Type
REMARK                         _______ _______ _______ _____ _____    ______ ____
ROOT
ATOM      1  C   UNL     1       2.400   8.216  18.193  0.00  0.00    +0.000 C 
ATOM      2  O   UNL     1       3.485   8.180  17.621  0.00  0.00    +0.000 OA
ATOM      3  N   UNL     1       2.037   7.358  19.205  0.00  0.00    +0.000 N 
ATOM      4  H   UNL     1       1.129   7.449  19.640  0.00  0.00    +0.000 HD
ENDROOT
BRANCH   1   5
ATOM      5  C   UNL     1       1.331   9.227  17.829  0.00  0.00    +0.000 C 
BRANCH   5   6
ATOM      6  C   UNL     1       1.611  10.530  18.564  0.00  0.00    +0.000 C 
BRANCH   6  10
ATOM      7  C   UNL     1      -0.533  11.414  21.279  0.00  0.00    +0.000 A 
ATOM      8  N   UNL     1      -0.622  10.074  21.345  0.00  0.00    +0.000 NA
ATOM      9  O   UNL     1       0.175   9.631  20.295  0.00  0.00    +0.000 OA
ATOM     10  C   UNL     1       0.668  10.744  19.686  0.00  0.00    +0.000 A 
ATOM     11  N   UNL     1       0.251  11.863  20.231  0.00  0.00    +0.000 NA
BRANCH   7  16
ATOM     12  C   UNL     1      -2.991  14.975  25.122  0.00  0.00    +0.000 C 
ATOM     13  C   UNL     1      -2.377  14.056  24.109  0.00  0.00    +0.000 A 
ATOM     14  C   UNL     1      -2.993  12.853  23.759  0.00  0.00    +0.000 A 
ATOM     15  C   UNL     1      -2.398  11.996  22.829  0.00  0.00    +0.000 A 
ATOM     16  C   UNL     1      -1.172  12.321  22.230  0.00  0.00    +0.000 A 
ATOM     17  C   UNL     1      -0.558  13.530  22.582  0.00  0.00    +0.000 A 
ATOM     18  C   UNL     1      -1.152  14.391  23.513  0.00  0.00    +0.000 A 
ENDBRANCH   7  16
ENDBRANCH   6  10
ENDBRANCH   5   6
ENDBRANCH   1   5
BRANCH   3  19
ATOM     19  C   UNL     1       2.893   6.296  19.678  0.00  0.00    +0.000 C 
BRANCH  19  20
ATOM     20  C   UNL     1       2.372   4.950  19.225  0.00  0.00    +0.000 A 
ATOM     21  C   UNL     1       1.500   4.269  20.101  0.00  0.00    +0.000 A 
ATOM     22  C   UNL     1       0.979   3.024  19.769  0.00  0.00    +0.000 A 
ATOM     23  C   UNL     1       1.313   2.440  18.547  0.00  0.00    +0.000 A 
ATOM     24  C   UNL     1       2.209   3.085  17.683  0.00  0.00    +0.000 A 
ATOM     25  C   UNL     1       2.772   4.335  18.007  0.00  0.00    +0.000 A 
BRANCH  25  26
ATOM     26  C   UNL     1       3.956   4.882  17.211  0.00  0.00    +0.000 C 
BRANCH  26  27
ATOM     27  N   UNL     1       5.240   4.158  17.204  0.00  0.00    +0.000 NA
ATOM     28  C   UNL     1       6.249   4.969  17.946  0.00  0.00    +0.000 C 
ATOM     29  C   UNL     1       6.868   6.124  17.138  0.00  0.00    +0.000 C 
ATOM     30  O   UNL     1       7.517   5.615  15.969  0.00  0.00    +0.000 OA
ATOM     31  C   UNL     1       6.568   4.953  15.130  0.00  0.00    +0.000 C 
ATOM     32  C   UNL     1       5.803   3.831  15.878  0.00  0.00    +0.000 C 
ENDBRANCH  26  27
ENDBRANCH  25  26
ENDBRANCH  19  20
ENDBRANCH   3  19
TORSDOF 8
ENDMDL
MODEL 3
REMARK VINA RESULT:      -8.5      1.714      2.018
REMARK  Name = 
REMARK  9 active torsions:
REMARK  status: ('A' for Active; 'I' for Inactive)
REMARK    1  A    between atoms: C_1  and  C_2
REMARK    2  A    between atoms: C_5  and  C_6
REMARK    3  A    between atoms: C_9  and  C_10
REMARK    4  A    between atoms: C_10  and  C_11
REMARK    5  A    between atoms: C_11  and  C_12
REMARK    6  A    between atoms: N_14  and  C_15
REMARK    7  A    between atoms: C_15  and  C_16
REMARK    8  A    between atoms: C_21  and  C_22
REMARK    9  A    between atoms: C_22  and  N_23
REMARK                            x       y       z     vdW  Elec       q    Type
REMARK                         _______ _______ _______ _____ _____    ______ ____
ROOT
ATOM      1  C   UNL     1       2.108   8.361  18.622  0.00  0.00    +0.000 C 
ATOM      2  O   UNL     1       2.047   8.929  17.536  0.00  0.00    +0.000 OA
ATOM      3  N   UNL     1       2.653   7.113  18.806  0.00  0.00    +0.000 N 
ATOM      4  H   UNL     1       2.679   6.706  19.731  0.00  0.00    +0.000 HD
ENDROOT
BRANCH   1   5
ATOM      5  C   UNL     1       1.571   8.992  19.891  0.00  0.00    +0.000 C 
BRANCH   5   6
ATOM      6  C   UNL     1       0.275   9.725  19.571  0.00  0.00    +0.000 C 
BRANCH   6  10
ATOM      7  C   UNL     1      -1.223  11.446  22.316  0.00  0.00    +0.000 A 
ATOM      8  N   UNL     1      -0.889  10.295  22.925  0.00  0.00    +0.000 NA
ATOM      9  O   UNL     1      -0.308   9.536  21.913  0.00  0.00    +0.000 OA
ATOM     10  C   UNL     1      -0.351  10.296  20.785  0.00  0.00    +0.000 A 
ATOM     11  N   UNL     1      -0.920  11.465  20.967  0.00  0.00    +0.000 NA
BRANCH   7  16
ATOM     12  C   UNL     1      -3.542  15.937  25.135  0.00  0.00    +0.000 C 
ATOM     13  C   UNL     1      -2.961  14.777  24.384  0.00  0.00    +0.000 A 
ATOM     14  C   UNL     1      -3.706  13.618  24.158  0.00  0.00    +0.000 A 
ATOM     15  C   UNL     1      -3.145  12.536  23.475  0.00  0.00    +0.000 A 
ATOM     16  C   UNL     1      -1.824  12.586  23.006  0.00  0.00    +0.000 A 
ATOM     17  C   UNL     1      -1.080  13.752  23.232  0.00  0.00    +0.000 A 
ATOM     18  C   UNL     1      -1.640  14.838  23.915  0.00  0.00    +0.000 A 
ENDBRANCH   7  16
ENDBRANCH   6  10
ENDBRANCH   5   6
ENDBRANCH   1   5
BRANCH   3  19
ATOM     19  C   UNL     1       3.186   6.321  17.722  0.00  0.00    +0.000 C 
BRANCH  19  20
ATOM     20  C   UNL     1       3.081   4.846  18.038  0.00  0.00    +0.000 A 
ATOM     21  C   UNL     1       1.818   4.239  17.865  0.00  0.00    +0.000 A 
ATOM     22  C   UNL     1       1.627   2.890  18.138  0.00  0.00    +0.000 A 
ATOM     23  C   UNL     1       2.701   2.118  18.580  0.00  0.00    +0.000 A 
ATOM     24  C   UNL     1       3.952   2.713  18.795  0.00  0.00    +0.000 A 
ATOM     25  C   UNL     1       4.165   4.084  18.552  0.00  0.00    +0.000 A 
BRANCH  25  26
ATOM     26  C   UNL     1       5.428   4.775  19.064  0.00  0.00    +0.000 C 
BRANCH  26  27
ATOM     27  N   UNL     1       6.724   4.532  18.404  0.00  0.00    +0.000 NA
ATOM     28  C   UNL     1       7.644   5.661  18.729  0.00  0.00    +0.000 C 
ATOM     29  C   UNL     1       7.427   6.932  17.887  0.00  0.00    +0.000 C 
ATOM     30  O   UNL     1       7.598   6.638  16.499  0.00  0.00    +0.000 OA
ATOM     31  C   UNL     1       6.637   5.667  16.080  0.00  0.00    +0.000 C 
ATOM     32  C   UNL     1       6.694   4.375  16.935  0.00  0.00    +0.000 C 
ENDBRANCH  26  27
ENDBRANCH  25  26
ENDBRANCH  19  20
ENDBRANCH   3  19
TORSDOF 8
ENDMDL
MODEL 4
REMARK VINA RESULT:      -8.4      0.976      1.133
REMARK  Name = 
REMARK  9 active torsions:
REMARK  status: ('A' for Active; 'I' for Inactive)
REMARK    1  A    between atoms: C_1  and  C_2
REMARK    2  A    between atoms: C_5  and  C_6
REMARK    3  A    between atoms: C_9  and  C_10
REMARK    4  A    between atoms: C_10  and  C_11
REMARK    5  A    between atoms: C_11  and  C_12
REMARK    6  A    between atoms: N_14  and  C_15
REMARK    7  A    between atoms: C_15  and  C_16
REMARK    8  A    between atoms: C_21  and  C_22
REMARK    9  A    between atoms: C_22  and  N_23
REMARK                            x       y       z     vdW  Elec       q    Type
REMARK                         _______ _______ _______ _____ _____    ______ ____
ROOT
ATOM      1  C   UNL     1       2.426   8.169  18.133  0.00  0.00    +0.000 C 
ATOM      2  O   UNL     1       3.462   8.052  17.487  0.00  0.00    +0.000 OA
ATOM      3  N   UNL     1       2.097   7.375  19.206  0.00  0.00    +0.000 N 
ATOM      4  H   UNL     1       1.229   7.531  19.701  0.00  0.00    +0.000 HD
ENDROOT
BRANCH   1   5
ATOM      5  C   UNL     1       1.383   9.218  17.801  0.00  0.00    +0.000 C 
BRANCH   5   6
ATOM      6  C   UNL     1       1.850  10.566  18.333  0.00  0.00    +0.000 C 
BRANCH   6  10
ATOM      7  C   UNL     1      -0.829  12.073  20.148  0.00  0.00    +0.000 A 
ATOM      8  N   UNL     1      -0.846  12.836  19.042  0.00  0.00    +0.000 NA
ATOM      9  O   UNL     1       0.195  12.332  18.269  0.00  0.00    +0.000 OA
ATOM     10  C   UNL     1       0.750  11.314  18.982  0.00  0.00    +0.000 A 
ATOM     11  N   UNL     1       0.179  11.125  20.149  0.00  0.00    +0.000 NA
BRANCH   7  16
ATOM     12  C   UNL     1      -4.615  12.683  24.483  0.00  0.00    +0.000 C 
ATOM     13  C   UNL     1      -3.638  12.496  23.361  0.00  0.00    +0.000 A 
ATOM     14  C   UNL     1      -2.435  11.817  23.559  0.00  0.00    +0.000 A 
ATOM     15  C   UNL     1      -1.523  11.668  22.510  0.00  0.00    +0.000 A 
ATOM     16  C   UNL     1      -1.792  12.200  21.240  0.00  0.00    +0.000 A 
ATOM     17  C   UNL     1      -3.002  12.879  21.045  0.00  0.00    +0.000 A 
ATOM     18  C   UNL     1      -3.917  13.028  22.094  0.00  0.00    +0.000 A 
ENDBRANCH   7  16
ENDBRANCH   6  10
ENDBRANCH   5   6
ENDBRANCH   1   5
BRANCH   3  19
ATOM     19  C   UNL     1       2.932   6.290  19.665  0.00  0.00    +0.000 C 
BRANCH  19  20
ATOM     20  C   UNL     1       2.329   4.956  19.286  0.00  0.00    +0.000 A 
ATOM     21  C   UNL     1       1.462   4.353  20.222  0.00  0.00    +0.000 A 
ATOM     22  C   UNL     1       0.868   3.123  19.961  0.00  0.00    +0.000 A 
ATOM     23  C   UNL     1       1.122   2.479  18.751  0.00  0.00    +0.000 A 
ATOM     24  C   UNL     1       2.012   3.045  17.827  0.00  0.00    +0.000 A 
ATOM     25  C   UNL     1       2.647   4.277  18.079  0.00  0.00    +0.000 A 
BRANCH  25  26
ATOM     26  C   UNL     1       3.822   4.734  17.216  0.00  0.00    +0.000 C 
BRANCH  26  27
ATOM     27  N   UNL     1       5.098   3.995  17.251  0.00  0.00    +0.000 NA
ATOM     28  C   UNL     1       6.072   4.764  18.080  0.00  0.00    +0.000 C 
ATOM     29  C   UNL     1       6.747   5.942  17.353  0.00  0.00    +0.000 C 
ATOM     30  O   UNL     1       7.455   5.471  16.203  0.00  0.00    +0.000 OA
ATOM     31  C   UNL     1       6.547   4.853  15.287  0.00  0.00    +0.000 C 
ATOM     32  C   UNL     1       5.730   3.713  15.946  0.00  0.00    +0.000 C 
ENDBRANCH  26  27
ENDBRANCH  25  26
ENDBRANCH  19  20
ENDBRANCH   3  19
TORSDOF 8
ENDMDL
MODEL 5
REMARK VINA RESULT:      -8.4      4.016      8.864
REMARK  Name = 
REMARK  9 active torsions:
REMARK  status: ('A' for Active; 'I' for Inactive)
REMARK    1  A    between atoms: C_1  and  C_2
REMARK    2  A    between atoms: C_5  and  C_6
REMARK    3  A    between atoms: C_9  and  C_10
REMARK    4  A    between atoms: C_10  and  C_11
REMARK    5  A    between atoms: C_11  and  C_12
REMARK    6  A    between atoms: N_14  and  C_15
REMARK    7  A    between atoms: C_15  and  C_16
REMARK    8  A    between atoms: C_21  and  C_22
REMARK    9  A    between atoms: C_22  and  N_23
REMARK                            x       y       z     vdW  Elec       q    Type
REMARK                         _______ _______ _______ _____ _____    ______ ____
ROOT
ATOM      1  C   UNL     1       6.022   4.291  16.681  0.00  0.00    +0.000 C 
ATOM      2  O   UNL     1       5.715   4.226  15.496  0.00  0.00    +0.000 OA
ATOM      3  N   UNL     1       5.146   4.063  17.716  0.00  0.00    +0.000 N 
ATOM      4  H   UNL     1       5.468   4.125  18.672  0.00  0.00    +0.000 HD
ENDROOT
BRANCH   1   5
ATOM      5  C   UNL     1       7.427   4.643  17.131  0.00  0.00    +0.000 C 
BRANCH   5   6
ATOM      6  C   UNL     1       7.347   5.445  18.422  0.00  0.00    +0.000 C 
BRANCH   6  10
ATOM      7  C   UNL     1       8.386   8.857  18.283  0.00  0.00    +0.000 A 
ATOM      8  N   UNL     1       7.557   8.829  17.225  0.00  0.00    +0.000 NA
ATOM      9  O   UNL     1       7.111   7.511  17.183  0.00  0.00    +0.000 OA
ATOM     10  C   UNL     1       7.717   6.863  18.215  0.00  0.00    +0.000 A 
ATOM     11  N   UNL     1       8.526   7.631  18.908  0.00  0.00    +0.000 NA
BRANCH   7  16
ATOM     12  C   UNL     1      11.154  13.595  20.125  0.00  0.00    +0.000 C 
ATOM     13  C   UNL     1      10.413  12.377  19.661  0.00  0.00    +0.000 A 
ATOM     14  C   UNL     1       9.905  11.451  20.573  0.00  0.00    +0.000 A 
ATOM     15  C   UNL     1       9.235  10.308  20.126  0.00  0.00    +0.000 A 
ATOM     16  C   UNL     1       9.061  10.065  18.755  0.00  0.00    +0.000 A 
ATOM     17  C   UNL     1       9.570  10.998  17.843  0.00  0.00    +0.000 A 
ATOM     18  C   UNL     1      10.241  12.143  18.288  0.00  0.00    +0.000 A 
ENDBRANCH   7  16
ENDBRANCH   6  10
ENDBRANCH   5   6
ENDBRANCH   1   5
BRANCH   3  19
ATOM     19  C   UNL     1       3.750   3.753  17.508  0.00  0.00    +0.000 C 
BRANCH  19  20
ATOM     20  C   UNL     1       3.009   3.725  18.826  0.00  0.00    +0.000 A 
ATOM     21  C   UNL     1       2.954   2.490  19.507  0.00  0.00    +0.000 A 
ATOM     22  C   UNL     1       2.287   2.369  20.721  0.00  0.00    +0.000 A 
ATOM     23  C   UNL     1       1.673   3.488  21.284  0.00  0.00    +0.000 A 
ATOM     24  C   UNL     1       1.685   4.713  20.602  0.00  0.00    +0.000 A 
ATOM     25  C   UNL     1       2.330   4.855  19.357  0.00  0.00    +0.000 A 
BRANCH  25  26
ATOM     26  C   UNL     1       2.087   6.093  18.495  0.00  0.00    +0.000 C 
BRANCH  26  27
ATOM     27  N   UNL     1       2.788   7.353  18.797  0.00  0.00    +0.000 NA
ATOM     28  C   UNL     1       2.249   7.907  20.073  0.00  0.00    +0.000 C 
ATOM     29  C   UNL     1       0.910   8.656  19.935  0.00  0.00    +0.000 C 
ATOM     30  O   UNL     1       1.052   9.754  19.029  0.00  0.00    +0.000 OA
ATOM     31  C   UNL     1       1.421   9.276  17.734  0.00  0.00    +0.000 C 
ATOM     32  C   UNL     1       2.708   8.412  17.769  0.00  0.00    +0.000 C 
ENDBRANCH  26  27
ENDBRANCH  25  26
ENDBRANCH  19  20
ENDBRANCH   3  19
TORSDOF 8
ENDMDL
MODEL 6
REMARK VINA RESULT:      -8.4      2.646      3.716
REMARK  Name = 
REMARK  9 active torsions:
REMARK  status: ('A' for Active; 'I' for Inactive)
REMARK    1  A    between atoms: C_1  and  C_2
REMARK    2  A    between atoms: C_5  and  C_6
REMARK    3  A    between atoms: C_9  and  C_10
REMARK    4  A    between atoms: C_10  and  C_11
REMARK    5  A    between atoms: C_11  and  C_12
REMARK    6  A    between atoms: N_14  and  C_15
REMARK    7  A    between atoms: C_15  and  C_16
REMARK    8  A    between atoms: C_21  and  C_22
REMARK    9  A    between atoms: C_22  and  N_23
REMARK                            x       y       z     vdW  Elec       q    Type
REMARK                         _______ _______ _______ _____ _____    ______ ____
ROOT
ATOM      1  C   UNL     1       1.523   8.424  20.078  0.00  0.00    +0.000 C 
ATOM      2  O   UNL     1       1.547   8.996  18.993  0.00  0.00    +0.000 OA
ATOM      3  N   UNL     1       2.173   7.240  20.337  0.00  0.00    +0.000 N 
ATOM      4  H   UNL     1       2.119   6.826  21.257  0.00  0.00    +0.000 HD
ENDROOT
BRANCH   1   5
ATOM      5  C   UNL     1       0.753   8.975  21.262  0.00  0.00    +0.000 C 
BRANCH   5   6
ATOM      6  C   UNL     1      -0.391   9.839  20.750  0.00  0.00    +0.000 C 
BRANCH   6  10
ATOM      7  C   UNL     1       0.423  13.287  20.311  0.00  0.00    +0.000 A 
ATOM      8  N   UNL     1       0.894  13.099  21.556  0.00  0.00    +0.000 NA
ATOM      9  O   UNL     1       0.598  11.767  21.830  0.00  0.00    +0.000 OA
ATOM     10  C   UNL     1      -0.031  11.275  20.728  0.00  0.00    +0.000 A 
ATOM     11  N   UNL     1      -0.186  12.166  19.776  0.00  0.00    +0.000 NA
BRANCH   7  16
ATOM     12  C   UNL     1       0.995  18.297  17.470  0.00  0.00    +0.000 C 
ATOM     13  C   UNL     1       0.831  16.989  18.184  0.00  0.00    +0.000 A 
ATOM     14  C   UNL     1      -0.428  16.540  18.587  0.00  0.00    +0.000 A 
ATOM     15  C   UNL     1      -0.564  15.328  19.271  0.00  0.00    +0.000 A 
ATOM     16  C   UNL     1       0.557  14.540  19.571  0.00  0.00    +0.000 A 
ATOM     17  C   UNL     1       1.818  14.993  19.163  0.00  0.00    +0.000 A 
ATOM     18  C   UNL     1       1.957  16.206  18.477  0.00  0.00    +0.000 A 
ENDBRANCH   7  16
ENDBRANCH   6  10
ENDBRANCH   5   6
ENDBRANCH   1   5
BRANCH   3  19
ATOM     19  C   UNL     1       2.932   6.526  19.336  0.00  0.00    +0.000 C 
BRANCH  19  20
ATOM     20  C   UNL     1       2.370   5.138  19.131  0.00  0.00    +0.000 A 
ATOM     21  C   UNL     1       1.555   4.615  20.159  0.00  0.00    +0.000 A 
ATOM     22  C   UNL     1       1.001   3.344  20.060  0.00  0.00    +0.000 A 
ATOM     23  C   UNL     1       1.244   2.575  18.922  0.00  0.00    +0.000 A 
ATOM     24  C   UNL     1       2.082   3.062  17.910  0.00  0.00    +0.000 A 
ATOM     25  C   UNL     1       2.677   4.336  17.999  0.00  0.00    +0.000 A 
BRANCH  25  26
ATOM     26  C   UNL     1       3.807   4.732  17.050  0.00  0.00    +0.000 C 
BRANCH  26  27
ATOM     27  N   UNL     1       5.128   4.088  17.163  0.00  0.00    +0.000 NA
ATOM     28  C   UNL     1       6.015   4.958  17.989  0.00  0.00    +0.000 C 
ATOM     29  C   UNL     1       6.634   6.149  17.233  0.00  0.00    +0.000 C 
ATOM     30  O   UNL     1       7.415   5.680  16.131  0.00  0.00    +0.000 OA
ATOM     31  C   UNL     1       6.588   4.961  15.213  0.00  0.00    +0.000 C 
ATOM     32  C   UNL     1       5.828   3.795  15.894  0.00  0.00    +0.000 C 
ENDBRANCH  26  27
ENDBRANCH  25  26
ENDBRANCH  19  20
ENDBRANCH   3  19
TORSDOF 8
ENDMDL
MODEL 7
REMARK VINA RESULT:      -8.3      2.029      2.461
REMARK  Name = 
REMARK  9 active torsions:
REMARK  status: ('A' for Active; 'I' for Inactive)
REMARK    1  A    between atoms: C_1  and  C_2
REMARK    2  A    between atoms: C_5  and  C_6
REMARK    3  A    between atoms: C_9  and  C_10
REMARK    4  A    between atoms: C_10  and  C_11
REMARK    5  A    between atoms: C_11  and  C_12
REMARK    6  A    between atoms: N_14  and  C_15
REMARK    7  A    between atoms: C_15  and  C_16
REMARK    8  A    between atoms: C_21  and  C_22
REMARK    9  A    between atoms: C_22  and  N_23
REMARK                            x       y       z     vdW  Elec       q    Type
REMARK                         _______ _______ _______ _____ _____    ______ ____
ROOT
ATOM      1  C   UNL     1       2.401   7.747  18.965  0.00  0.00    +0.000 C 
ATOM      2  O   UNL     1       2.964   7.786  17.876  0.00  0.00    +0.000 OA
ATOM      3  N   UNL     1       2.657   6.799  19.928  0.00  0.00    +0.000 N 
ATOM      4  H   UNL     1       2.163   6.830  20.809  0.00  0.00    +0.000 HD
ENDROOT
BRANCH   1   5
ATOM      5  C   UNL     1       1.343   8.757  19.362  0.00  0.00    +0.000 C 
BRANCH   5   6
ATOM      6  C   UNL     1       1.235   9.815  18.273  0.00  0.00    +0.000 C 
BRANCH   6  10
ATOM      7  C   UNL     1      -1.801  11.655  18.645  0.00  0.00    +0.000 A 
ATOM      8  N   UNL     1      -0.915  12.663  18.713  0.00  0.00    +0.000 NA
ATOM      9  O   UNL     1       0.321  12.033  18.598  0.00  0.00    +0.000 OA
ATOM     10  C   UNL     1       0.067  10.701  18.478  0.00  0.00    +0.000 A 
ATOM     11  N   UNL     1      -1.212  10.409  18.523  0.00  0.00    +0.000 NA
BRANCH   7  16
ATOM     12  C   UNL     1      -7.529  12.483  18.668  0.00  0.00    +0.000 C 
ATOM     13  C   UNL     1      -6.048  12.251  18.685  0.00  0.00    +0.000 A 
ATOM     14  C   UNL     1      -5.271  12.627  19.781  0.00  0.00    +0.000 A 
ATOM     15  C   UNL     1      -3.888  12.424  19.774  0.00  0.00    +0.000 A 
ATOM     16  C   UNL     1      -3.250  11.843  18.668  0.00  0.00    +0.000 A 
ATOM     17  C   UNL     1      -4.034  11.463  17.571  0.00  0.00    +0.000 A 
ATOM     18  C   UNL     1      -5.419  11.665  17.575  0.00  0.00    +0.000 A 
ENDBRANCH   7  16
ENDBRANCH   6  10
ENDBRANCH   5   6
ENDBRANCH   1   5
BRANCH   3  19
ATOM     19  C   UNL     1       3.602   5.722  19.738  0.00  0.00    +0.000 C 
BRANCH  19  20
ATOM     20  C   UNL     1       2.903   4.487  19.215  0.00  0.00    +0.000 A 
ATOM     21  C   UNL     1       2.134   3.745  20.137  0.00  0.00    +0.000 A 
ATOM     22  C   UNL     1       1.463   2.591  19.747  0.00  0.00    +0.000 A 
ATOM     23  C   UNL     1       1.541   2.164  18.421  0.00  0.00    +0.000 A 
ATOM     24  C   UNL     1       2.332   2.868  17.502  0.00  0.00    +0.000 A 
ATOM     25  C   UNL     1       3.043   4.025  17.879  0.00  0.00    +0.000 A 
BRANCH  25  26
ATOM     26  C   UNL     1       4.121   4.604  16.964  0.00  0.00    +0.000 C 
BRANCH  26  27
ATOM     27  N   UNL     1       5.424   3.928  16.836  0.00  0.00    +0.000 NA
ATOM     28  C   UNL     1       6.448   4.718  17.581  0.00  0.00    +0.000 C 
ATOM     29  C   UNL     1       6.985   5.949  16.827  0.00  0.00    +0.000 C 
ATOM     30  O   UNL     1       7.584   5.548  15.592  0.00  0.00    +0.000 OA
ATOM     31  C   UNL     1       6.610   4.916  14.758  0.00  0.00    +0.000 C 
ATOM     32  C   UNL     1       5.923   3.717  15.460  0.00  0.00    +0.000 C 
ENDBRANCH  26  27
ENDBRANCH  25  26
ENDBRANCH  19  20
ENDBRANCH   3  19
TORSDOF 8
ENDMDL
MODEL 8
REMARK VINA RESULT:      -8.3      2.088      2.722
REMARK  Name = 
REMARK  9 active torsions:
REMARK  status: ('A' for Active; 'I' for Inactive)
REMARK    1  A    between atoms: C_1  and  C_2
REMARK    2  A    between atoms: C_5  and  C_6
REMARK    3  A    between atoms: C_9  and  C_10
REMARK    4  A    between atoms: C_10  and  C_11
REMARK    5  A    between atoms: C_11  and  C_12
REMARK    6  A    between atoms: N_14  and  C_15
REMARK    7  A    between atoms: C_15  and  C_16
REMARK    8  A    between atoms: C_21  and  C_22
REMARK    9  A    between atoms: C_22  and  N_23
REMARK                            x       y       z     vdW  Elec       q    Type
REMARK                         _______ _______ _______ _____ _____    ______ ____
ROOT
ATOM      1  C   UNL     1       1.819   8.160  19.204  0.00  0.00    +0.000 C 
ATOM      2  O   UNL     1       1.467   8.491  20.332  0.00  0.00    +0.000 OA
ATOM      3  N   UNL     1       2.385   6.943  18.904  0.00  0.00    +0.000 N 
ATOM      4  H   UNL     1       2.645   6.730  17.950  0.00  0.00    +0.000 HD
ENDROOT
BRANCH   1   5
ATOM      5  C   UNL     1       1.667   9.080  18.010  0.00  0.00    +0.000 C 
BRANCH   5   6
ATOM      6  C   UNL     1       1.641  10.522  18.496  0.00  0.00    +0.000 C 
BRANCH   6  10
ATOM      7  C   UNL     1      -1.733  11.518  19.101  0.00  0.00    +0.000 A 
ATOM      8  N   UNL     1      -1.181  11.861  20.277  0.00  0.00    +0.000 NA
ATOM      9  O   UNL     1       0.153  11.485  20.146  0.00  0.00    +0.000 OA
ATOM     10  C   UNL     1       0.281  10.943  18.903  0.00  0.00    +0.000 A 
ATOM     11  N   UNL     1      -0.845  10.917  18.228  0.00  0.00    +0.000 NA
BRANCH   7  16
ATOM     12  C   UNL     1      -7.230  12.619  17.660  0.00  0.00    +0.000 C 
ATOM     13  C   UNL     1      -5.815  12.315  18.054  0.00  0.00    +0.000 A 
ATOM     14  C   UNL     1      -5.342  12.613  19.333  0.00  0.00    +0.000 A 
ATOM     15  C   UNL     1      -4.015  12.344  19.679  0.00  0.00    +0.000 A 
ATOM     16  C   UNL     1      -3.129  11.775  18.752  0.00  0.00    +0.000 A 
ATOM     17  C   UNL     1      -3.608  11.474  17.471  0.00  0.00    +0.000 A 
ATOM     18  C   UNL     1      -4.937  11.742  17.121  0.00  0.00    +0.000 A 
ENDBRANCH   7  16
ENDBRANCH   6  10
ENDBRANCH   5   6
ENDBRANCH   1   5
BRANCH   3  19
ATOM     19  C   UNL     1       2.655   5.934  19.902  0.00  0.00    +0.000 C 
BRANCH  19  20
ATOM     20  C   UNL     1       2.416   4.551  19.339  0.00  0.00    +0.000 A 
ATOM     21  C   UNL     1       1.314   3.831  19.850  0.00  0.00    +0.000 A 
ATOM     22  C   UNL     1       1.023   2.549  19.397  0.00  0.00    +0.000 A 
ATOM     23  C   UNL     1       1.823   1.968  18.413  0.00  0.00    +0.000 A 
ATOM     24  C   UNL     1       2.944   2.654  17.924  0.00  0.00    +0.000 A 
ATOM     25  C   UNL     1       3.276   3.942  18.386  0.00  0.00    +0.000 A 
BRANCH  25  26
ATOM     26  C   UNL     1       4.643   4.549  18.073  0.00  0.00    +0.000 C 
BRANCH  26  27
ATOM     27  N   UNL     1       4.788   5.513  16.967  0.00  0.00    +0.000 NA
ATOM     28  C   UNL     1       5.373   4.807  15.790  0.00  0.00    +0.000 C 
ATOM     29  C   UNL     1       6.899   4.610  15.851  0.00  0.00    +0.000 C 
ATOM     30  O   UNL     1       7.556   5.876  15.947  0.00  0.00    +0.000 OA
ATOM     31  C   UNL     1       7.154   6.548  17.144  0.00  0.00    +0.000 C 
ATOM     32  C   UNL     1       5.615   6.708  17.240  0.00  0.00    +0.000 C 
ENDBRANCH  26  27
ENDBRANCH  25  26
ENDBRANCH  19  20
ENDBRANCH   3  19
TORSDOF 8
ENDMDL
MODEL 9
REMARK VINA RESULT:      -8.3      1.287      1.658
REMARK  Name = 
REMARK  9 active torsions:
REMARK  status: ('A' for Active; 'I' for Inactive)
REMARK    1  A    between atoms: C_1  and  C_2
REMARK    2  A    between atoms: C_5  and  C_6
REMARK    3  A    between atoms: C_9  and  C_10
REMARK    4  A    between atoms: C_10  and  C_11
REMARK    5  A    between atoms: C_11  and  C_12
REMARK    6  A    between atoms: N_14  and  C_15
REMARK    7  A    between atoms: C_15  and  C_16
REMARK    8  A    between atoms: C_21  and  C_22
REMARK    9  A    between atoms: C_22  and  N_23
REMARK                            x       y       z     vdW  Elec       q    Type
REMARK                         _______ _______ _______ _____ _____    ______ ____
ROOT
ATOM      1  C   UNL     1       2.078   8.717  18.161  0.00  0.00    +0.000 C 
ATOM      2  O   UNL     1       2.777   9.393  17.414  0.00  0.00    +0.000 OA
ATOM      3  N   UNL     1       2.310   7.390  18.438  0.00  0.00    +0.000 N 
ATOM      4  H   UNL     1       1.699   6.893  19.071  0.00  0.00    +0.000 HD
ENDROOT
BRANCH   1   5
ATOM      5  C   UNL     1       0.862   9.288  18.862  0.00  0.00    +0.000 C 
BRANCH   5   6
ATOM      6  C   UNL     1       1.118   9.309  20.362  0.00  0.00    +0.000 C 
BRANCH   6  10
ATOM      7  C   UNL     1      -0.702  11.999  21.843  0.00  0.00    +0.000 A 
ATOM      8  N   UNL     1       0.513  12.567  21.758  0.00  0.00    +0.000 NA
ATOM      9  O   UNL     1       1.312  11.571  21.204  0.00  0.00    +0.000 OA
ATOM     10  C   UNL     1       0.507  10.490  21.011  0.00  0.00    +0.000 A 
ATOM     11  N   UNL     1      -0.730  10.687  21.405  0.00  0.00    +0.000 NA
BRANCH   7  16
ATOM     12  C   UNL     1      -5.483  14.691  23.684  0.00  0.00    +0.000 C 
ATOM     13  C   UNL     1      -4.228  14.015  23.219  0.00  0.00    +0.000 A 
ATOM     14  C   UNL     1      -3.383  14.624  22.291  0.00  0.00    +0.000 A 
ATOM     15  C   UNL     1      -2.227  13.973  21.849  0.00  0.00    +0.000 A 
ATOM     16  C   UNL     1      -1.894  12.695  22.324  0.00  0.00    +0.000 A 
ATOM     17  C   UNL     1      -2.743  12.089  23.258  0.00  0.00    +0.000 A 
ATOM     18  C   UNL     1      -3.901  12.739  23.702  0.00  0.00    +0.000 A 
ENDBRANCH   7  16
ENDBRANCH   6  10
ENDBRANCH   5   6
ENDBRANCH   1   5
BRANCH   3  19
ATOM     19  C   UNL     1       3.394   6.642  17.844  0.00  0.00    +0.000 C 
BRANCH  19  20
ATOM     20  C   UNL     1       3.223   5.162  18.102  0.00  0.00    +0.000 A 
ATOM     21  C   UNL     1       1.938   4.616  17.892  0.00  0.00    +0.000 A 
ATOM     22  C   UNL     1       1.687   3.267  18.111  0.00  0.00    +0.000 A 
ATOM     23  C   UNL     1       2.723   2.434  18.535  0.00  0.00    +0.000 A 
ATOM     24  C   UNL     1       3.995   2.967  18.786  0.00  0.00    +0.000 A 
ATOM     25  C   UNL     1       4.268   4.336  18.598  0.00  0.00    +0.000 A 
BRANCH  25  26
ATOM     26  C   UNL     1       5.552   4.953  19.150  0.00  0.00    +0.000 C 
BRANCH  26  27
ATOM     27  N   UNL     1       6.844   4.685  18.494  0.00  0.00    +0.000 NA
ATOM     28  C   UNL     1       7.742   5.856  18.709  0.00  0.00    +0.000 C 
ATOM     29  C   UNL     1       7.484   7.048  17.768  0.00  0.00    +0.000 C 
ATOM     30  O   UNL     1       7.644   6.642  16.406  0.00  0.00    +0.000 OA
ATOM     31  C   UNL     1       6.700   5.618  16.084  0.00  0.00    +0.000 C 
ATOM     32  C   UNL     1       6.799   4.404  17.043  0.00  0.00    +0.000 C 
ENDBRANCH  26  27
ENDBRANCH  25  26
ENDBRANCH  19  20
ENDBRANCH   3  19
TORSDOF 8
ENDMDL
