MODEL 1
REMARK VINA RESULT:      -7.4      0.000      0.000
REMARK  Name = 
REMARK  8 active torsions:
REMARK  status: ('A' for Active; 'I' for Inactive)
REMARK    1  A    between atoms: C_1  and  C_2
REMARK    2  A    between atoms: C_2  and  C_3
REMARK    3  A    between atoms: C_2  and  N_4
REMARK    4  A    between atoms: C_2  and  C_5
REMARK    5  A    between atoms: N_8  and  C_9
REMARK    6  A    between atoms: C_18  and  C_19
REMARK    7  A    between atoms: C_19  and  O_21
REMARK    8  A    between atoms: N_23  and  C_24
REMARK                            x       y       z     vdW  Elec       q    Type
REMARK                         _______ _______ _______ _____ _____    ______ ____
ROOT
ATOM      1  C   UNL     1       1.778   8.484  18.847  0.00  0.00    +0.000 A 
ATOM      2  N   UNL     1       2.116   7.196  19.099  0.00  0.00    +0.000 NA
ATOM      3  C   UNL     1       3.117   6.575  18.416  0.00  0.00    +0.000 A 
ATOM      4  C   UNL     1       3.820   7.272  17.431  0.00  0.00    +0.000 A 
ATOM      5  C   UNL     1       3.513   8.608  17.173  0.00  0.00    +0.000 A 
ATOM      6  C   UNL     1       2.487   9.211  17.888  0.00  0.00    +0.000 A 
ATOM      7  F   UNL     1       2.232  10.507  17.654  0.00  0.00    +0.000 F 
ATOM      8  C   UNL     1       4.875   6.600  16.648  0.00  0.00    +0.000 A 
ATOM      9  O   UNL     1       5.500   7.195  15.773  0.00  0.00    +0.000 OA
ATOM     10  C   UNL     1       5.172   5.192  16.942  0.00  0.00    +0.000 A 
ATOM     11  C   UNL     1       4.459   4.615  17.920  0.00  0.00    +0.000 A 
ATOM     12  N   UNL     1       3.438   5.189  18.678  0.00  0.00    +0.000 N 
ENDROOT
BRANCH  12  13
ATOM     13  C   UNL     1       2.699   4.384  19.623  0.00  0.00    +0.000 A 
ATOM     14  C   UNL     1       3.131   4.237  20.957  0.00  0.00    +0.000 A 
ATOM     15  C   UNL     1       2.394   3.501  21.890  0.00  0.00    +0.000 A 
ATOM     16  C   UNL     1       1.229   2.863  21.495  0.00  0.00    +0.000 A 
ATOM     17  F   UNL     1       0.528   2.155  22.389  0.00  0.00    +0.000 F 
ATOM     18  C   UNL     1       0.781   2.953  20.189  0.00  0.00    +0.000 A 
ATOM     19  C   UNL     1       1.504   3.714  19.274  0.00  0.00    +0.000 A 
ATOM     20  F   UNL     1       0.990   3.825  18.038  0.00  0.00    +0.000 F 
ENDBRANCH  12  13
BRANCH   1  24
ATOM     21  C   UNL     1      -0.096  10.969  20.659  0.00  0.00    +0.000 C 
ATOM     22  C   UNL     1      -0.783  10.776  19.300  0.00  0.00    +0.000 C 
ATOM     23  C   UNL     1      -0.565   9.300  18.994  0.00  0.00    +0.000 C 
ATOM     24  N   UNL     1       0.724   8.979  19.596  0.00  0.00    +0.000 N 
ATOM     25  C   UNL     1       1.119  10.020  20.561  0.00  0.00    +0.000 C 
BRANCH  21  27
ATOM     26  C   UNL     1      -0.522  12.871  22.292  0.00  0.00    +0.000 C 
ATOM     27  C   UNL     1       0.247  12.441  21.031  0.00  0.00    +0.000 C 
ATOM     28  C   UNL     1      -0.120  13.407  19.888  0.00  0.00    +0.000 C 
BRANCH  27  29
ATOM     29  N   UNL     1       1.681  12.599  21.316  0.00  0.00    +0.000 NA
ATOM     30  H   UNL     1       1.812  13.244  22.095  0.00  0.00    +0.000 HD
ATOM     31  H   UNL     1       2.153  13.032  20.523  0.00  0.00    +0.000 HD
ENDBRANCH  27  29
ENDBRANCH  21  27
ENDBRANCH   1  24
BRANCH  10  32
ATOM     32  C   UNL     1       6.193   4.392  16.227  0.00  0.00    +0.000 C 
ATOM     33  O   UNL     1       5.920   3.448  15.504  0.00  0.00    +0.000 OA
BRANCH  32  34
ATOM     34  O   UNL     1       7.466   4.793  16.434  0.00  0.00    +0.000 OA
ATOM     35  H   UNL     1       8.144   4.264  15.951  0.00  0.00    +0.000 HD
ENDBRANCH  32  34
ENDBRANCH  10  32
TORSDOF 6
ENDMDL
MODEL 2
REMARK VINA RESULT:      -7.2      2.981      4.963
REMARK  Name = 
REMARK  8 active torsions:
REMARK  status: ('A' for Active; 'I' for Inactive)
REMARK    1  A    between atoms: C_1  and  C_2
REMARK    2  A    between atoms: C_2  and  C_3
REMARK    3  A    between atoms: C_2  and  N_4
REMARK    4  A    between atoms: C_2  and  C_5
REMARK    5  A    between atoms: N_8  and  C_9
REMARK    6  A    between atoms: C_18  and  C_19
REMARK    7  A    between atoms: C_19  and  O_21
REMARK    8  A    between atoms: N_23  and  C_24
REMARK                            x       y       z     vdW  Elec       q    Type
REMARK                         _______ _______ _______ _____ _____    ______ ____
ROOT
ATOM      1  C   UNL     1       1.981   7.304  20.219  0.00  0.00    +0.000 A 
ATOM      2  N   UNL     1       3.118   6.830  19.652  0.00  0.00    +0.000 NA
ATOM      3  C   UNL     1       3.381   5.496  19.591  0.00  0.00    +0.000 A 
ATOM      4  C   UNL     1       2.465   4.584  20.119  0.00  0.00    +0.000 A 
ATOM      5  C   UNL     1       1.273   5.042  20.680  0.00  0.00    +0.000 A 
ATOM      6  C   UNL     1       1.036   6.410  20.726  0.00  0.00    +0.000 A 
ATOM      7  F   UNL     1      -0.133   6.831  21.233  0.00  0.00    +0.000 F 
ATOM      8  C   UNL     1       2.757   3.137  20.104  0.00  0.00    +0.000 A 
ATOM      9  O   UNL     1       1.965   2.319  20.569  0.00  0.00    +0.000 OA
ATOM     10  C   UNL     1       4.022   2.686  19.509  0.00  0.00    +0.000 A 
ATOM     11  C   UNL     1       4.826   3.635  19.008  0.00  0.00    +0.000 A 
ATOM     12  N   UNL     1       4.617   5.015  19.013  0.00  0.00    +0.000 N 
ENDROOT
BRANCH  12  13
ATOM     13  C   UNL     1       5.645   5.903  18.523  0.00  0.00    +0.000 A 
ATOM     14  C   UNL     1       6.922   5.947  19.119  0.00  0.00    +0.000 A 
ATOM     15  C   UNL     1       7.938   6.767  18.618  0.00  0.00    +0.000 A 
ATOM     16  C   UNL     1       7.682   7.592  17.535  0.00  0.00    +0.000 A 
ATOM     17  F   UNL     1       8.655   8.381  17.061  0.00  0.00    +0.000 F 
ATOM     18  C   UNL     1       6.435   7.607  16.936  0.00  0.00    +0.000 A 
ATOM     19  C   UNL     1       5.439   6.763  17.420  0.00  0.00    +0.000 A 
ATOM     20  F   UNL     1       4.269   6.766  16.761  0.00  0.00    +0.000 F 
ENDBRANCH  12  13
BRANCH   1  24
ATOM     21  C   UNL     1       0.468  10.486  19.476  0.00  0.00    +0.000 C 
ATOM     22  C   UNL     1       0.145  10.155  20.940  0.00  0.00    +0.000 C 
ATOM     23  C   UNL     1       1.377   9.397  21.416  0.00  0.00    +0.000 C 
ATOM     24  N   UNL     1       1.857   8.683  20.238  0.00  0.00    +0.000 N 
ATOM     25  C   UNL     1       1.256   9.241  19.014  0.00  0.00    +0.000 C 
BRANCH  21  27
ATOM     26  C   UNL     1      -1.997  11.112  19.462  0.00  0.00    +0.000 C 
ATOM     27  C   UNL     1      -0.756  10.856  18.589  0.00  0.00    +0.000 C 
ATOM     28  C   UNL     1      -1.089   9.726  17.595  0.00  0.00    +0.000 C 
BRANCH  27  29
ATOM     29  N   UNL     1      -0.504  12.080  17.815  0.00  0.00    +0.000 NA
ATOM     30  H   UNL     1      -0.552  11.877  16.816  0.00  0.00    +0.000 HD
ATOM     31  H   UNL     1       0.446  12.413  17.978  0.00  0.00    +0.000 HD
ENDBRANCH  27  29
ENDBRANCH  21  27
ENDBRANCH   1  24
BRANCH  10  32
ATOM     32  C   UNL     1       4.448   1.270  19.439  0.00  0.00    +0.000 C 
ATOM     33  O   UNL     1       5.174   0.746  20.268  0.00  0.00    +0.000 OA
BRANCH  32  34
ATOM     34  O   UNL     1       3.964   0.591  18.377  0.00  0.00    +0.000 OA
ATOM     35  H   UNL     1       3.244   1.056  17.888  0.00  0.00    +0.000 HD
ENDBRANCH  32  34
ENDBRANCH  10  32
TORSDOF 6
ENDMDL
MODEL 3
REMARK VINA RESULT:      -7.2      3.109      5.101
REMARK  Name = 
REMARK  8 active torsions:
REMARK  status: ('A' for Active; 'I' for Inactive)
REMARK    1  A    between atoms: C_1  and  C_2
REMARK    2  A    between atoms: C_2  and  C_3
REMARK    3  A    between atoms: C_2  and  N_4
REMARK    4  A    between atoms: C_2  and  C_5
REMARK    5  A    between atoms: N_8  and  C_9
REMARK    6  A    between atoms: C_18  and  C_19
REMARK    7  A    between atoms: C_19  and  O_21
REMARK    8  A    between atoms: N_23  and  C_24
REMARK                            x       y       z     vdW  Elec       q    Type
REMARK                         _______ _______ _______ _____ _____    ______ ____
ROOT
ATOM      1  C   UNL     1       2.013   7.370  20.141  0.00  0.00    +0.000 A 
ATOM      2  N   UNL     1       3.148   6.884  19.583  0.00  0.00    +0.000 NA
ATOM      3  C   UNL     1       3.409   5.548  19.548  0.00  0.00    +0.000 A 
ATOM      4  C   UNL     1       2.492   4.648  20.094  0.00  0.00    +0.000 A 
ATOM      5  C   UNL     1       1.302   5.119  20.647  0.00  0.00    +0.000 A 
ATOM      6  C   UNL     1       1.066   6.488  20.666  0.00  0.00    +0.000 A 
ATOM      7  F   UNL     1      -0.102   6.920  21.165  0.00  0.00    +0.000 F 
ATOM      8  C   UNL     1       2.782   3.201  20.108  0.00  0.00    +0.000 A 
ATOM      9  O   UNL     1       1.990   2.394  20.590  0.00  0.00    +0.000 OA
ATOM     10  C   UNL     1       4.046   2.737  19.521  0.00  0.00    +0.000 A 
ATOM     11  C   UNL     1       4.851   3.674  19.002  0.00  0.00    +0.000 A 
ATOM     12  N   UNL     1       4.644   5.054  18.978  0.00  0.00    +0.000 N 
ENDROOT
BRANCH  12  13
ATOM     13  C   UNL     1       5.673   5.931  18.471  0.00  0.00    +0.000 A 
ATOM     14  C   UNL     1       5.439   6.773  17.364  0.00  0.00    +0.000 A 
ATOM     15  C   UNL     1       6.413   7.662  16.899  0.00  0.00    +0.000 A 
ATOM     16  C   UNL     1       7.658   7.695  17.508  0.00  0.00    +0.000 A 
ATOM     17  F   UNL     1       8.591   8.542  17.057  0.00  0.00    +0.000 F 
ATOM     18  C   UNL     1       7.946   6.865  18.577  0.00  0.00    +0.000 A 
ATOM     19  C   UNL     1       6.958   6.006  19.054  0.00  0.00    +0.000 A 
ATOM     20  F   UNL     1       7.265   5.273  20.136  0.00  0.00    +0.000 F 
ENDBRANCH  12  13
BRANCH   1  24
ATOM     21  C   UNL     1       0.476  10.537  19.379  0.00  0.00    +0.000 C 
ATOM     22  C   UNL     1       0.206  10.240  20.861  0.00  0.00    +0.000 C 
ATOM     23  C   UNL     1       1.454   9.491  21.309  0.00  0.00    +0.000 C 
ATOM     24  N   UNL     1       1.890   8.750  20.132  0.00  0.00    +0.000 N 
ATOM     25  C   UNL     1       1.246   9.280  18.917  0.00  0.00    +0.000 C 
BRANCH  21  27
ATOM     26  C   UNL     1      -2.004  11.095  19.434  0.00  0.00    +0.000 C 
ATOM     27  C   UNL     1      -0.779  10.889  18.528  0.00  0.00    +0.000 C 
ATOM     28  C   UNL     1      -1.105   9.767  17.522  0.00  0.00    +0.000 C 
BRANCH  27  29
ATOM     29  N   UNL     1      -0.579  12.133  17.770  0.00  0.00    +0.000 NA
ATOM     30  H   UNL     1      -1.431  12.694  17.790  0.00  0.00    +0.000 HD
ATOM     31  H   UNL     1      -0.415  11.925  16.785  0.00  0.00    +0.000 HD
ENDBRANCH  27  29
ENDBRANCH  21  27
ENDBRANCH   1  24
BRANCH  10  32
ATOM     32  C   UNL     1       4.470   1.319  19.480  0.00  0.00    +0.000 C 
ATOM     33  O   UNL     1       5.216   0.816  20.305  0.00  0.00    +0.000 OA
BRANCH  32  34
ATOM     34  O   UNL     1       3.961   0.611  18.448  0.00  0.00    +0.000 OA
ATOM     35  H   UNL     1       4.569  -0.077  18.085  0.00  0.00    +0.000 HD
ENDBRANCH  32  34
ENDBRANCH  10  32
TORSDOF 6
ENDMDL
MODEL 4
REMARK VINA RESULT:      -6.9      5.713      8.801
REMARK  Name = 
REMARK  8 active torsions:
REMARK  status: ('A' for Active; 'I' for Inactive)
REMARK    1  A    between atoms: C_1  and  C_2
REMARK    2  A    between atoms: C_2  and  C_3
REMARK    3  A    between atoms: C_2  and  N_4
REMARK    4  A    between atoms: C_2  and  C_5
REMARK    5  A    between atoms: N_8  and  C_9
REMARK    6  A    between atoms: C_18  and  C_19
REMARK    7  A    between atoms: C_19  and  O_21
REMARK    8  A    between atoms: N_23  and  C_24
REMARK                            x       y       z     vdW  Elec       q    Type
REMARK                         _______ _______ _______ _____ _____    ______ ____
ROOT
ATOM      1  C   UNL     1      -4.958  12.257  19.358  0.00  0.00    +0.000 A 
ATOM      2  N   UNL     1      -3.759  12.530  19.930  0.00  0.00    +0.000 NA
ATOM      3  C   UNL     1      -2.611  11.945  19.489  0.00  0.00    +0.000 A 
ATOM      4  C   UNL     1      -2.656  11.044  18.424  0.00  0.00    +0.000 A 
ATOM      5  C   UNL     1      -3.872  10.769  17.798  0.00  0.00    +0.000 A 
ATOM      6  C   UNL     1      -5.024  11.383  18.271  0.00  0.00    +0.000 A 
ATOM      7  F   UNL     1      -6.178  11.138  17.631  0.00  0.00    +0.000 F 
ATOM      8  C   UNL     1      -1.428  10.365  17.966  0.00  0.00    +0.000 A 
ATOM      9  O   UNL     1      -1.449   9.564  17.033  0.00  0.00    +0.000 OA
ATOM     10  C   UNL     1      -0.164  10.674  18.648  0.00  0.00    +0.000 A 
ATOM     11  C   UNL     1      -0.219  11.568  19.645  0.00  0.00    +0.000 A 
ATOM     12  N   UNL     1      -1.348  12.224  20.137  0.00  0.00    +0.000 N 
ENDROOT
BRANCH  12  13
ATOM     13  C   UNL     1      -1.239  13.080  21.295  0.00  0.00    +0.000 A 
ATOM     14  C   UNL     1      -0.796  14.415  21.182  0.00  0.00    +0.000 A 
ATOM     15  C   UNL     1      -0.738  15.264  22.291  0.00  0.00    +0.000 A 
ATOM     16  C   UNL     1      -1.081  14.782  23.544  0.00  0.00    +0.000 A 
ATOM     17  F   UNL     1      -1.019  15.597  24.605  0.00  0.00    +0.000 F 
ATOM     18  C   UNL     1      -1.492  13.472  23.710  0.00  0.00    +0.000 A 
ATOM     19  C   UNL     1      -1.579  12.641  22.595  0.00  0.00    +0.000 A 
ATOM     20  F   UNL     1      -2.048  11.400  22.800  0.00  0.00    +0.000 F 
ENDBRANCH  12  13
BRANCH   1  24
ATOM     21  C   UNL     1      -6.843  13.864  21.973  0.00  0.00    +0.000 C 
ATOM     22  C   UNL     1      -6.316  14.966  21.042  0.00  0.00    +0.000 C 
ATOM     23  C   UNL     1      -6.325  14.309  19.668  0.00  0.00    +0.000 C 
ATOM     24  N   UNL     1      -6.046  12.901  19.924  0.00  0.00    +0.000 N 
ATOM     25  C   UNL     1      -6.249  12.582  21.348  0.00  0.00    +0.000 C 
BRANCH  21  27
ATOM     26  C   UNL     1      -7.808  13.880  24.325  0.00  0.00    +0.000 C 
ATOM     27  C   UNL     1      -6.533  14.062  23.485  0.00  0.00    +0.000 C 
ATOM     28  C   UNL     1      -5.970  15.470  23.761  0.00  0.00    +0.000 C 
BRANCH  27  29
ATOM     29  N   UNL     1      -5.549  13.080  23.962  0.00  0.00    +0.000 NA
ATOM     30  H   UNL     1      -6.026  12.241  24.293  0.00  0.00    +0.000 HD
ATOM     31  H   UNL     1      -5.048  13.444  24.772  0.00  0.00    +0.000 HD
ENDBRANCH  27  29
ENDBRANCH  21  27
ENDBRANCH   1  24
BRANCH  10  32
ATOM     32  C   UNL     1       1.137  10.057  18.303  0.00  0.00    +0.000 C 
ATOM     33  O   UNL     1       1.469   8.941  18.667  0.00  0.00    +0.000 OA
BRANCH  32  34
ATOM     34  O   UNL     1       1.939  10.831  17.541  0.00  0.00    +0.000 OA
ATOM     35  H   UNL     1       2.337  11.600  18.016  0.00  0.00    +0.000 HD
ENDBRANCH  32  34
ENDBRANCH  10  32
TORSDOF 6
ENDMDL
MODEL 5
REMARK VINA RESULT:      -6.8      6.843      9.694
REMARK  Name = 
REMARK  8 active torsions:
REMARK  status: ('A' for Active; 'I' for Inactive)
REMARK    1  A    between atoms: C_1  and  C_2
REMARK    2  A    between atoms: C_2  and  C_3
REMARK    3  A    between atoms: C_2  and  N_4
REMARK    4  A    between atoms: C_2  and  C_5
REMARK    5  A    between atoms: N_8  and  C_9
REMARK    6  A    between atoms: C_18  and  C_19
REMARK    7  A    between atoms: C_19  and  O_21
REMARK    8  A    between atoms: N_23  and  C_24
REMARK                            x       y       z     vdW  Elec       q    Type
REMARK                         _______ _______ _______ _____ _____    ______ ____
ROOT
ATOM      1  C   UNL     1       1.183  15.307  22.434  0.00  0.00    +0.000 A 
ATOM      2  N   UNL     1       0.581  14.123  22.162  0.00  0.00    +0.000 NA
ATOM      3  C   UNL     1      -0.633  13.803  22.689  0.00  0.00    +0.000 A 
ATOM      4  C   UNL     1      -1.284  14.709  23.530  0.00  0.00    +0.000 A 
ATOM      5  C   UNL     1      -0.702  15.946  23.801  0.00  0.00    +0.000 A 
ATOM      6  C   UNL     1       0.537  16.241  23.247  0.00  0.00    +0.000 A 
ATOM      7  F   UNL     1       1.063  17.452  23.486  0.00  0.00    +0.000 F 
ATOM      8  C   UNL     1      -2.578  14.358  24.148  0.00  0.00    +0.000 A 
ATOM      9  O   UNL     1      -3.163  15.140  24.895  0.00  0.00    +0.000 OA
ATOM     10  C   UNL     1      -3.163  13.046  23.844  0.00  0.00    +0.000 A 
ATOM     11  C   UNL     1      -2.474  12.255  23.010  0.00  0.00    +0.000 A 
ATOM     12  N   UNL     1      -1.241  12.519  22.414  0.00  0.00    +0.000 N 
ENDROOT
BRANCH  12  13
ATOM     13  C   UNL     1      -0.588  11.503  21.622  0.00  0.00    +0.000 A 
ATOM     14  C   UNL     1      -0.431  11.647  20.228  0.00  0.00    +0.000 A 
ATOM     15  C   UNL     1       0.245  10.692  19.463  0.00  0.00    +0.000 A 
ATOM     16  C   UNL     1       0.743   9.551  20.073  0.00  0.00    +0.000 A 
ATOM     17  F   UNL     1       1.385   8.635  19.337  0.00  0.00    +0.000 F 
ATOM     18  C   UNL     1       0.587   9.350  21.433  0.00  0.00    +0.000 A 
ATOM     19  C   UNL     1      -0.059  10.323  22.193  0.00  0.00    +0.000 A 
ATOM     20  F   UNL     1      -0.124  10.112  23.518  0.00  0.00    +0.000 F 
ENDBRANCH  12  13
BRANCH   1  24
ATOM     21  C   UNL     1       3.616  15.279  19.780  0.00  0.00    +0.000 C 
ATOM     22  C   UNL     1       3.192  16.738  19.999  0.00  0.00    +0.000 C 
ATOM     23  C   UNL     1       2.923  16.812  21.496  0.00  0.00    +0.000 C 
ATOM     24  N   UNL     1       2.427  15.488  21.854  0.00  0.00    +0.000 N 
ATOM     25  C   UNL     1       2.733  14.515  20.791  0.00  0.00    +0.000 C 
BRANCH  21  27
ATOM     26  C   UNL     1       3.204  15.932  17.357  0.00  0.00    +0.000 C 
ATOM     27  C   UNL     1       3.524  14.769  18.311  0.00  0.00    +0.000 C 
ATOM     28  C   UNL     1       2.425  13.700  18.157  0.00  0.00    +0.000 C 
BRANCH  27  29
ATOM     29  N   UNL     1       4.796  14.177  17.871  0.00  0.00    +0.000 NA
ATOM     30  H   UNL     1       5.465  14.915  17.647  0.00  0.00    +0.000 HD
ATOM     31  H   UNL     1       4.664  13.659  17.003  0.00  0.00    +0.000 HD
ENDBRANCH  27  29
ENDBRANCH  21  27
ENDBRANCH   1  24
BRANCH  10  32
ATOM     32  C   UNL     1      -4.445  12.559  24.405  0.00  0.00    +0.000 C 
ATOM     33  O   UNL     1      -5.387  12.202  23.716  0.00  0.00    +0.000 OA
BRANCH  32  34
ATOM     34  O   UNL     1      -4.494  12.537  25.754  0.00  0.00    +0.000 OA
ATOM     35  H   UNL     1      -5.370  12.275  26.127  0.00  0.00    +0.000 HD
ENDBRANCH  32  34
ENDBRANCH  10  32
TORSDOF 6
ENDMDL
MODEL 6
REMARK VINA RESULT:      -6.8      5.799      8.755
REMARK  Name = 
REMARK  8 active torsions:
REMARK  status: ('A' for Active; 'I' for Inactive)
REMARK    1  A    between atoms: C_1  and  C_2
REMARK    2  A    between atoms: C_2  and  C_3
REMARK    3  A    between atoms: C_2  and  N_4
REMARK    4  A    between atoms: C_2  and  C_5
REMARK    5  A    between atoms: N_8  and  C_9
REMARK    6  A    between atoms: C_18  and  C_19
REMARK    7  A    between atoms: C_19  and  O_21
REMARK    8  A    between atoms: N_23  and  C_24
REMARK                            x       y       z     vdW  Elec       q    Type
REMARK                         _______ _______ _______ _____ _____    ______ ____
ROOT
ATOM      1  C   UNL     1      -4.933  12.307  19.087  0.00  0.00    +0.000 A 
ATOM      2  N   UNL     1      -3.779  12.482  19.776  0.00  0.00    +0.000 NA
ATOM      3  C   UNL     1      -2.627  11.858  19.406  0.00  0.00    +0.000 A 
ATOM      4  C   UNL     1      -2.621  11.018  18.290  0.00  0.00    +0.000 A 
ATOM      5  C   UNL     1      -3.787  10.845  17.545  0.00  0.00    +0.000 A 
ATOM      6  C   UNL     1      -4.944  11.497  17.950  0.00  0.00    +0.000 A 
ATOM      7  F   UNL     1      -6.046  11.350  17.197  0.00  0.00    +0.000 F 
ATOM      8  C   UNL     1      -1.393  10.296  17.904  0.00  0.00    +0.000 A 
ATOM      9  O   UNL     1      -1.369   9.548  16.929  0.00  0.00    +0.000 OA
ATOM     10  C   UNL     1      -0.182  10.497  18.711  0.00  0.00    +0.000 A 
ATOM     11  C   UNL     1      -0.281  11.339  19.750  0.00  0.00    +0.000 A 
ATOM     12  N   UNL     1      -1.415  12.031  20.177  0.00  0.00    +0.000 N 
ENDROOT
BRANCH  12  13
ATOM     13  C   UNL     1      -1.369  12.817  21.387  0.00  0.00    +0.000 A 
ATOM     14  C   UNL     1      -1.872  12.318  22.607  0.00  0.00    +0.000 A 
ATOM     15  C   UNL     1      -1.784  13.054  23.793  0.00  0.00    +0.000 A 
ATOM     16  C   UNL     1      -1.227  14.323  23.773  0.00  0.00    +0.000 A 
ATOM     17  F   UNL     1      -1.149  15.027  24.909  0.00  0.00    +0.000 F 
ATOM     18  C   UNL     1      -0.748  14.868  22.595  0.00  0.00    +0.000 A 
ATOM     19  C   UNL     1      -0.810  14.115  21.425  0.00  0.00    +0.000 A 
ATOM     20  F   UNL     1      -0.269  14.662  20.324  0.00  0.00    +0.000 F 
ENDBRANCH  12  13
BRANCH   1  24
ATOM     21  C   UNL     1      -6.918  13.969  21.591  0.00  0.00    +0.000 C 
ATOM     22  C   UNL     1      -6.312  15.054  20.690  0.00  0.00    +0.000 C 
ATOM     23  C   UNL     1      -6.262  14.394  19.318  0.00  0.00    +0.000 C 
ATOM     24  N   UNL     1      -6.034  12.980  19.591  0.00  0.00    +0.000 N 
ATOM     25  C   UNL     1      -6.324  12.670  21.001  0.00  0.00    +0.000 C 
BRANCH  21  27
ATOM     26  C   UNL     1      -7.416  13.068  23.916  0.00  0.00    +0.000 C 
ATOM     27  C   UNL     1      -6.687  14.162  23.118  0.00  0.00    +0.000 C 
ATOM     28  C   UNL     1      -7.207  15.534  23.593  0.00  0.00    +0.000 C 
BRANCH  27  29
ATOM     29  N   UNL     1      -5.259  14.077  23.457  0.00  0.00    +0.000 NA
ATOM     30  H   UNL     1      -4.751  14.848  23.023  0.00  0.00    +0.000 HD
ATOM     31  H   UNL     1      -4.852  13.229  23.064  0.00  0.00    +0.000 HD
ENDBRANCH  27  29
ENDBRANCH  21  27
ENDBRANCH   1  24
BRANCH  10  32
ATOM     32  C   UNL     1       1.112   9.828  18.447  0.00  0.00    +0.000 C 
ATOM     33  O   UNL     1       1.562   8.936  19.148  0.00  0.00    +0.000 OA
BRANCH  32  34
ATOM     34  O   UNL     1       1.765  10.282  17.356  0.00  0.00    +0.000 OA
ATOM     35  H   UNL     1       2.288   9.595  16.877  0.00  0.00    +0.000 HD
ENDBRANCH  32  34
ENDBRANCH  10  32
TORSDOF 6
ENDMDL
MODEL 7
REMARK VINA RESULT:      -6.8      8.724     10.403
REMARK  Name = 
REMARK  8 active torsions:
REMARK  status: ('A' for Active; 'I' for Inactive)
REMARK    1  A    between atoms: C_1  and  C_2
REMARK    2  A    between atoms: C_2  and  C_3
REMARK    3  A    between atoms: C_2  and  N_4
REMARK    4  A    between atoms: C_2  and  C_5
REMARK    5  A    between atoms: N_8  and  C_9
REMARK    6  A    between atoms: C_18  and  C_19
REMARK    7  A    between atoms: C_19  and  O_21
REMARK    8  A    between atoms: N_23  and  C_24
REMARK                            x       y       z     vdW  Elec       q    Type
REMARK                         _______ _______ _______ _____ _____    ______ ____
ROOT
ATOM      1  C   UNL     1       7.664  13.337  22.723  0.00  0.00    +0.000 A 
ATOM      2  N   UNL     1       7.456  13.782  21.459  0.00  0.00    +0.000 NA
ATOM      3  C   UNL     1       8.360  13.555  20.466  0.00  0.00    +0.000 A 
ATOM      4  C   UNL     1       9.532  12.848  20.744  0.00  0.00    +0.000 A 
ATOM      5  C   UNL     1       9.756  12.353  22.028  0.00  0.00    +0.000 A 
ATOM      6  C   UNL     1       8.813  12.601  23.017  0.00  0.00    +0.000 A 
ATOM      7  F   UNL     1       9.027  12.083  24.237  0.00  0.00    +0.000 F 
ATOM      8  C   UNL     1      10.544  12.636  19.691  0.00  0.00    +0.000 A 
ATOM      9  O   UNL     1      11.585  12.021  19.918  0.00  0.00    +0.000 OA
ATOM     10  C   UNL     1      10.279  13.173  18.350  0.00  0.00    +0.000 A 
ATOM     11  C   UNL     1       9.118  13.818  18.176  0.00  0.00    +0.000 A 
ATOM     12  N   UNL     1       8.134  14.070  19.133  0.00  0.00    +0.000 N 
ENDROOT
BRANCH  12  13
ATOM     13  C   UNL     1       6.986  14.878  18.795  0.00  0.00    +0.000 A 
ATOM     14  C   UNL     1       5.901  14.345  18.068  0.00  0.00    +0.000 A 
ATOM     15  C   UNL     1       4.765  15.108  17.782  0.00  0.00    +0.000 A 
ATOM     16  C   UNL     1       4.709  16.434  18.182  0.00  0.00    +0.000 A 
ATOM     17  F   UNL     1       3.622  17.163  17.901  0.00  0.00    +0.000 F 
ATOM     18  C   UNL     1       5.762  17.010  18.871  0.00  0.00    +0.000 A 
ATOM     19  C   UNL     1       6.876  16.234  19.180  0.00  0.00    +0.000 A 
ATOM     20  F   UNL     1       7.839  16.821  19.909  0.00  0.00    +0.000 F 
ENDBRANCH  12  13
BRANCH   1  24
ATOM     21  C   UNL     1       5.528  12.847  25.581  0.00  0.00    +0.000 C 
ATOM     22  C   UNL     1       6.630  13.833  25.994  0.00  0.00    +0.000 C 
ATOM     23  C   UNL     1       6.909  14.614  24.717  0.00  0.00    +0.000 C 
ATOM     24  N   UNL     1       6.676  13.663  23.637  0.00  0.00    +0.000 N 
ATOM     25  C   UNL     1       5.914  12.500  24.126  0.00  0.00    +0.000 C 
BRANCH  21  27
ATOM     26  C   UNL     1       4.319  11.941  27.626  0.00  0.00    +0.000 C 
ATOM     27  C   UNL     1       5.341  11.621  26.521  0.00  0.00    +0.000 C 
ATOM     28  C   UNL     1       6.670  11.223  27.193  0.00  0.00    +0.000 C 
BRANCH  27  29
ATOM     29  N   UNL     1       4.839  10.453  25.783  0.00  0.00    +0.000 NA
ATOM     30  H   UNL     1       4.141  10.747  25.098  0.00  0.00    +0.000 HD
ATOM     31  H   UNL     1       4.349   9.819  26.413  0.00  0.00    +0.000 HD
ENDBRANCH  27  29
ENDBRANCH  21  27
ENDBRANCH   1  24
BRANCH  10  32
ATOM     32  C   UNL     1      11.212  13.046  17.207  0.00  0.00    +0.000 C 
ATOM     33  O   UNL     1      11.367  13.918  16.367  0.00  0.00    +0.000 OA
BRANCH  32  34
ATOM     34  O   UNL     1      11.890  11.879  17.163  0.00  0.00    +0.000 OA
ATOM     35  H   UNL     1      12.282  11.667  16.282  0.00  0.00    +0.000 HD
ENDBRANCH  32  34
ENDBRANCH  10  32
TORSDOF 6
ENDMDL
MODEL 8
REMARK VINA RESULT:      -6.7      8.038      9.941
REMARK  Name = 
REMARK  8 active torsions:
REMARK  status: ('A' for Active; 'I' for Inactive)
REMARK    1  A    between atoms: C_1  and  C_2
REMARK    2  A    between atoms: C_2  and  C_3
REMARK    3  A    between atoms: C_2  and  N_4
REMARK    4  A    between atoms: C_2  and  C_5
REMARK    5  A    between atoms: N_8  and  C_9
REMARK    6  A    between atoms: C_18  and  C_19
REMARK    7  A    between atoms: C_19  and  O_21
REMARK    8  A    between atoms: N_23  and  C_24
REMARK                            x       y       z     vdW  Elec       q    Type
REMARK                         _______ _______ _______ _____ _____    ______ ____
ROOT
ATOM      1  C   UNL     1      -0.821  13.594  20.240  0.00  0.00    +0.000 A 
ATOM      2  N   UNL     1      -1.736  12.915  19.506  0.00  0.00    +0.000 NA
ATOM      3  C   UNL     1      -3.009  12.729  19.951  0.00  0.00    +0.000 A 
ATOM      4  C   UNL     1      -3.394  13.248  21.189  0.00  0.00    +0.000 A 
ATOM      5  C   UNL     1      -2.481  13.978  21.950  0.00  0.00    +0.000 A 
ATOM      6  C   UNL     1      -1.190  14.149  21.466  0.00  0.00    +0.000 A 
ATOM      7  F   UNL     1      -0.337  14.888  22.193  0.00  0.00    +0.000 F 
ATOM      8  C   UNL     1      -4.756  13.014  21.708  0.00  0.00    +0.000 A 
ATOM      9  O   UNL     1      -5.110  13.458  22.799  0.00  0.00    +0.000 OA
ATOM     10  C   UNL     1      -5.693  12.239  20.884  0.00  0.00    +0.000 A 
ATOM     11  C   UNL     1      -5.238  11.802  19.701  0.00  0.00    +0.000 A 
ATOM     12  N   UNL     1      -3.960  11.970  19.167  0.00  0.00    +0.000 N 
ENDROOT
BRANCH  12  13
ATOM     13  C   UNL     1      -3.609  11.336  17.919  0.00  0.00    +0.000 A 
ATOM     14  C   UNL     1      -2.589  10.364  17.850  0.00  0.00    +0.000 A 
ATOM     15  C   UNL     1      -2.279   9.709  16.654  0.00  0.00    +0.000 A 
ATOM     16  C   UNL     1      -2.955  10.045  15.492  0.00  0.00    +0.000 A 
ATOM     17  F   UNL     1      -2.652   9.420  14.348  0.00  0.00    +0.000 F 
ATOM     18  C   UNL     1      -3.943  11.014  15.503  0.00  0.00    +0.000 A 
ATOM     19  C   UNL     1      -4.268  11.638  16.705  0.00  0.00    +0.000 A 
ATOM     20  F   UNL     1      -5.279  12.521  16.674  0.00  0.00    +0.000 F 
ENDBRANCH  12  13
BRANCH   1  24
ATOM     21  C   UNL     1       2.206  15.233  19.179  0.00  0.00    +0.000 C 
ATOM     22  C   UNL     1       2.526  14.470  20.472  0.00  0.00    +0.000 C 
ATOM     23  C   UNL     1       1.634  13.238  20.391  0.00  0.00    +0.000 C 
ATOM     24  N   UNL     1       0.443  13.684  19.678  0.00  0.00    +0.000 N 
ATOM     25  C   UNL     1       0.697  14.961  18.990  0.00  0.00    +0.000 C 
BRANCH  21  27
ATOM     26  C   UNL     1       3.830  16.971  20.078  0.00  0.00    +0.000 C 
ATOM     27  C   UNL     1       2.609  16.736  19.173  0.00  0.00    +0.000 C 
ATOM     28  C   UNL     1       1.456  17.627  19.675  0.00  0.00    +0.000 C 
BRANCH  27  29
ATOM     29  N   UNL     1       2.972  17.186  17.821  0.00  0.00    +0.000 NA
ATOM     30  H   UNL     1       3.907  16.854  17.582  0.00  0.00    +0.000 HD
ATOM     31  H   UNL     1       3.031  18.204  17.790  0.00  0.00    +0.000 HD
ENDBRANCH  27  29
ENDBRANCH  21  27
ENDBRANCH   1  24
BRANCH  10  32
ATOM     32  C   UNL     1      -7.081  11.918  21.286  0.00  0.00    +0.000 C 
ATOM     33  O   UNL     1      -7.499  10.778  21.405  0.00  0.00    +0.000 OA
BRANCH  32  34
ATOM     34  O   UNL     1      -7.861  12.996  21.517  0.00  0.00    +0.000 OA
ATOM     35  H   UNL     1      -8.250  13.032  22.424  0.00  0.00    +0.000 HD
ENDBRANCH  32  34
ENDBRANCH  10  32
TORSDOF 6
ENDMDL
MODEL 9
REMARK VINA RESULT:      -6.7      7.831      9.778
REMARK  Name = 
REMARK  8 active torsions:
REMARK  status: ('A' for Active; 'I' for Inactive)
REMARK    1  A    between atoms: C_1  and  C_2
REMARK    2  A    between atoms: C_2  and  C_3
REMARK    3  A    between atoms: C_2  and  N_4
REMARK    4  A    between atoms: C_2  and  C_5
REMARK    5  A    between atoms: N_8  and  C_9
REMARK    6  A    between atoms: C_18  and  C_19
REMARK    7  A    between atoms: C_19  and  O_21
REMARK    8  A    between atoms: N_23  and  C_24
REMARK                            x       y       z     vdW  Elec       q    Type
REMARK                         _______ _______ _______ _____ _____    ______ ____
ROOT
ATOM      1  C   UNL     1      -0.723  13.473  20.060  0.00  0.00    +0.000 A 
ATOM      2  N   UNL     1      -1.660  12.810  19.338  0.00  0.00    +0.000 NA
ATOM      3  C   UNL     1      -2.928  12.640  19.802  0.00  0.00    +0.000 A 
ATOM      4  C   UNL     1      -3.285  13.158  21.049  0.00  0.00    +0.000 A 
ATOM      5  C   UNL     1      -2.349  13.870  21.799  0.00  0.00    +0.000 A 
ATOM      6  C   UNL     1      -1.064  14.026  21.295  0.00  0.00    +0.000 A 
ATOM      7  F   UNL     1      -0.189  14.749  22.012  0.00  0.00    +0.000 F 
ATOM      8  C   UNL     1      -4.641  12.941  21.589  0.00  0.00    +0.000 A 
ATOM      9  O   UNL     1      -4.972  13.383  22.687  0.00  0.00    +0.000 OA
ATOM     10  C   UNL     1      -5.602  12.183  20.777  0.00  0.00    +0.000 A 
ATOM     11  C   UNL     1      -5.173  11.746  19.584  0.00  0.00    +0.000 A 
ATOM     12  N   UNL     1      -3.902  11.899  19.031  0.00  0.00    +0.000 N 
ENDROOT
BRANCH  12  13
ATOM     13  C   UNL     1      -3.580  11.267  17.773  0.00  0.00    +0.000 A 
ATOM     14  C   UNL     1      -4.199  11.667  16.570  0.00  0.00    +0.000 A 
ATOM     15  C   UNL     1      -3.854  11.094  15.342  0.00  0.00    +0.000 A 
ATOM     16  C   UNL     1      -2.912  10.078  15.299  0.00  0.00    +0.000 A 
ATOM     17  F   UNL     1      -2.589   9.528  14.121  0.00  0.00    +0.000 F 
ATOM     18  C   UNL     1      -2.300   9.631  16.456  0.00  0.00    +0.000 A 
ATOM     19  C   UNL     1      -2.625  10.229  17.671  0.00  0.00    +0.000 A 
ATOM     20  F   UNL     1      -1.953   9.805  18.753  0.00  0.00    +0.000 F 
ENDBRANCH  12  13
BRANCH   1  24
ATOM     21  C   UNL     1       2.343  15.057  19.027  0.00  0.00    +0.000 C 
ATOM     22  C   UNL     1       2.657  14.213  20.271  0.00  0.00    +0.000 C 
ATOM     23  C   UNL     1       1.720  13.020  20.141  0.00  0.00    +0.000 C 
ATOM     24  N   UNL     1       0.532  13.547  19.478  0.00  0.00    +0.000 N 
ATOM     25  C   UNL     1       0.822  14.851  18.856  0.00  0.00    +0.000 C 
BRANCH  21  27
ATOM     26  C   UNL     1       4.185  16.650  19.756  0.00  0.00    +0.000 C 
ATOM     27  C   UNL     1       2.801  16.543  19.095  0.00  0.00    +0.000 C 
ATOM     28  C   UNL     1       1.809  17.398  19.908  0.00  0.00    +0.000 C 
BRANCH  27  29
ATOM     29  N   UNL     1       2.909  17.130  17.751  0.00  0.00    +0.000 NA
ATOM     30  H   UNL     1       3.679  17.799  17.724  0.00  0.00    +0.000 HD
ATOM     31  H   UNL     1       2.073  17.671  17.533  0.00  0.00    +0.000 HD
ENDBRANCH  27  29
ENDBRANCH  21  27
ENDBRANCH   1  24
BRANCH  10  32
ATOM     32  C   UNL     1      -6.988  11.879  21.199  0.00  0.00    +0.000 C 
ATOM     33  O   UNL     1      -7.443  10.748  21.249  0.00  0.00    +0.000 OA
BRANCH  32  34
ATOM     34  O   UNL     1      -7.722  12.962  21.535  0.00  0.00    +0.000 OA
ATOM     35  H   UNL     1      -8.377  13.240  20.850  0.00  0.00    +0.000 HD
ENDBRANCH  32  34
ENDBRANCH  10  32
TORSDOF 6
ENDMDL
