MODEL 1
REMARK VINA RESULT:      -8.5      0.000      0.000
REMARK  Name = 
REMARK  9 active torsions:
REMARK  status: ('A' for Active; 'I' for Inactive)
REMARK    1  A    between atoms: C_1  and  C_2
REMARK    2  A    between atoms: C_7  and  C_8
REMARK    3  A    between atoms: C_8  and  N_9
REMARK    4  A    between atoms: C_12  and  N_13
REMARK    5  A    between atoms: N_16  and  C_17
REMARK    6  A    between atoms: C_22  and  O_23
REMARK    7  A    between atoms: O_23  and  C_24
REMARK    8  A    between atoms: C_24  and  C_25
REMARK    9  A    between atoms: C_24  and  C_26
REMARK                            x       y       z     vdW  Elec       q    Type
REMARK                         _______ _______ _______ _____ _____    ______ ____
ROOT
ATOM      1  N   UNL     1      -1.229  11.849  19.532  0.00  0.00    +0.000 NA
ATOM      2  C   UNL     1      -1.334  10.611  18.758  0.00  0.00    +0.000 C 
ATOM      3  C   UNL     1      -0.012   9.993  18.288  0.00  0.00    +0.000 C 
ATOM      4  C   UNL     1       1.161  10.060  19.280  0.00  0.00    +0.000 C 
ATOM      5  C   UNL     1       1.105  11.239  20.258  0.00  0.00    +0.000 C 
ATOM      6  C   UNL     1      -0.317  11.618  20.668  0.00  0.00    +0.000 C 
ENDROOT
BRANCH   4   7
ATOM      7  N   UNL     1       1.357   8.788  19.980  0.00  0.00    +0.000 N 
ATOM      8  C   UNL     1       2.096   7.778  19.380  0.00  0.00    +0.000 C 
ATOM      9  O   UNL     1       2.611   7.911  18.278  0.00  0.00    +0.000 OA
ATOM     10  N   UNL     1       2.116   6.643  20.163  0.00  0.00    +0.000 N 
ATOM     11  H   UNL     1       1.348   8.805  20.988  0.00  0.00    +0.000 HD
ATOM     12  H   UNL     1       1.515   6.669  20.971  0.00  0.00    +0.000 HD
BRANCH  10  13
ATOM     13  C   UNL     1       2.718   5.402  19.859  0.00  0.00    +0.000 A 
ATOM     14  C   UNL     1       2.041   4.182  19.886  0.00  0.00    +0.000 A 
ATOM     15  C   UNL     1       2.730   2.999  19.632  0.00  0.00    +0.000 A 
ATOM     16  F   UNL     1       2.073   1.832  19.664  0.00  0.00    +0.000 F 
ATOM     17  C   UNL     1       4.087   3.003  19.340  0.00  0.00    +0.000 A 
ATOM     18  C   UNL     1       4.771   4.211  19.279  0.00  0.00    +0.000 A 
ATOM     19  C   UNL     1       4.092   5.405  19.549  0.00  0.00    +0.000 A 
BRANCH  18  20
ATOM     20  O   UNL     1       6.110   4.108  19.036  0.00  0.00    +0.000 OA
BRANCH  20  21
ATOM     21  C   UNL     1       6.745   5.179  18.328  0.00  0.00    +0.000 C 
ATOM     22  C   UNL     1       7.841   5.761  19.214  0.00  0.00    +0.000 C 
ATOM     23  C   UNL     1       7.349   4.577  17.062  0.00  0.00    +0.000 C 
ENDBRANCH  20  21
ENDBRANCH  18  20
ENDBRANCH  10  13
ENDBRANCH   4   7
BRANCH   1  24
ATOM     24  C   UNL     1      -0.817  13.026  18.753  0.00  0.00    +0.000 C 
BRANCH  24  31
ATOM     25  C   UNL     1      -0.269  18.221  16.722  0.00  0.00    +0.000 C 
ATOM     26  C   UNL     1      -0.939  17.961  18.036  0.00  0.00    +0.000 C 
ATOM     27  O   UNL     1      -1.923  18.625  18.373  0.00  0.00    +0.000 OA
ATOM     28  N   UNL     1      -0.453  16.924  18.809  0.00  0.00    +0.000 N 
ATOM     29  C   UNL     1      -1.106  16.630  20.076  0.00  0.00    +0.000 C 
ATOM     30  C   UNL     1      -1.378  15.129  19.992  0.00  0.00    +0.000 C 
ATOM     31  C   UNL     1      -0.438  14.292  19.491  0.00  0.00    +0.000 C 
ATOM     32  C   UNL     1       0.943  14.882  19.359  0.00  0.00    +0.000 C 
ATOM     33  C   UNL     1       0.894  16.322  18.741  0.00  0.00    +0.000 C 
ATOM     34  C   UNL     1       1.803  17.257  19.539  0.00  0.00    +0.000 C 
ATOM     35  C   UNL     1       1.168  17.704  20.874  0.00  0.00    +0.000 C 
ATOM     36  C   UNL     1      -0.236  17.147  21.242  0.00  0.00    +0.000 C 
ENDBRANCH  24  31
ENDBRANCH   1  24
TORSDOF 6
ENDMDL
MODEL 2
REMARK VINA RESULT:      -8.3      3.050      4.253
REMARK  Name = 
REMARK  9 active torsions:
REMARK  status: ('A' for Active; 'I' for Inactive)
REMARK    1  A    between atoms: C_1  and  C_2
REMARK    2  A    between atoms: C_7  and  C_8
REMARK    3  A    between atoms: C_8  and  N_9
REMARK    4  A    between atoms: C_12  and  N_13
REMARK    5  A    between atoms: N_16  and  C_17
REMARK    6  A    between atoms: C_22  and  O_23
REMARK    7  A    between atoms: O_23  and  C_24
REMARK    8  A    between atoms: C_24  and  C_25
REMARK    9  A    between atoms: C_24  and  C_26
REMARK                            x       y       z     vdW  Elec       q    Type
REMARK                         _______ _______ _______ _____ _____    ______ ____
ROOT
ATOM      1  N   UNL     1      -0.952  12.447  19.407  0.00  0.00    +0.000 NA
ATOM      2  C   UNL     1       0.395  12.587  18.850  0.00  0.00    +0.000 C 
ATOM      3  C   UNL     1       1.473  11.678  19.453  0.00  0.00    +0.000 C 
ATOM      4  C   UNL     1       1.040  10.243  19.793  0.00  0.00    +0.000 C 
ATOM      5  C   UNL     1      -0.449  10.086  20.125  0.00  0.00    +0.000 C 
ATOM      6  C   UNL     1      -1.348  11.029  19.328  0.00  0.00    +0.000 C 
ENDROOT
BRANCH   4   7
ATOM      7  N   UNL     1       1.468   9.285  18.770  0.00  0.00    +0.000 N 
ATOM      8  C   UNL     1       1.932   8.032  19.150  0.00  0.00    +0.000 C 
ATOM      9  O   UNL     1       1.986   7.682  20.321  0.00  0.00    +0.000 OA
ATOM     10  N   UNL     1       2.345   7.302  18.055  0.00  0.00    +0.000 N 
ATOM     11  H   UNL     1       1.040   9.353  17.860  0.00  0.00    +0.000 HD
ATOM     12  H   UNL     1       2.361   7.807  17.184  0.00  0.00    +0.000 HD
BRANCH  10  13
ATOM     13  C   UNL     1       2.922   6.013  18.053  0.00  0.00    +0.000 A 
ATOM     14  C   UNL     1       2.217   4.845  17.763  0.00  0.00    +0.000 A 
ATOM     15  C   UNL     1       2.854   3.610  17.845  0.00  0.00    +0.000 A 
ATOM     16  F   UNL     1       2.167   2.494  17.567  0.00  0.00    +0.000 F 
ATOM     17  C   UNL     1       4.190   3.510  18.204  0.00  0.00    +0.000 A 
ATOM     18  C   UNL     1       4.917   4.664  18.470  0.00  0.00    +0.000 A 
ATOM     19  C   UNL     1       4.282   5.911  18.406  0.00  0.00    +0.000 A 
BRANCH  18  20
ATOM     20  O   UNL     1       6.207   4.461  18.865  0.00  0.00    +0.000 OA
BRANCH  20  21
ATOM     21  C   UNL     1       7.249   4.785  17.937  0.00  0.00    +0.000 C 
ATOM     22  C   UNL     1       6.747   4.500  16.527  0.00  0.00    +0.000 C 
ATOM     23  C   UNL     1       7.546   6.273  18.106  0.00  0.00    +0.000 C 
ENDBRANCH  20  21
ENDBRANCH  18  20
ENDBRANCH  10  13
ENDBRANCH   4   7
BRANCH   1  24
ATOM     24  C   UNL     1      -1.107  12.966  20.774  0.00  0.00    +0.000 C 
BRANCH  24  31
ATOM     25  C   UNL     1      -3.015  15.910  25.145  0.00  0.00    +0.000 C 
ATOM     26  C   UNL     1      -3.862  15.670  23.934  0.00  0.00    +0.000 C 
ATOM     27  O   UNL     1      -4.616  16.553  23.519  0.00  0.00    +0.000 OA
ATOM     28  N   UNL     1      -3.718  14.461  23.280  0.00  0.00    +0.000 N 
ATOM     29  C   UNL     1      -4.506  14.213  22.082  0.00  0.00    +0.000 C 
ATOM     30  C   UNL     1      -3.463  13.767  21.060  0.00  0.00    +0.000 C 
ATOM     31  C   UNL     1      -2.474  12.914  21.422  0.00  0.00    +0.000 C 
ATOM     32  C   UNL     1      -2.681  12.212  22.740  0.00  0.00    +0.000 C 
ATOM     33  C   UNL     1      -3.181  13.205  23.845  0.00  0.00    +0.000 C 
ATOM     34  C   UNL     1      -4.340  12.575  24.619  0.00  0.00    +0.000 C 
ATOM     35  C   UNL     1      -5.670  12.624  23.837  0.00  0.00    +0.000 C 
ATOM     36  C   UNL     1      -5.663  13.245  22.412  0.00  0.00    +0.000 C 
ENDBRANCH  24  31
ENDBRANCH   1  24
TORSDOF 6
ENDMDL
MODEL 3
REMARK VINA RESULT:      -8.1      6.585      8.520
REMARK  Name = 
REMARK  9 active torsions:
REMARK  status: ('A' for Active; 'I' for Inactive)
REMARK    1  A    between atoms: C_1  and  C_2
REMARK    2  A    between atoms: C_7  and  C_8
REMARK    3  A    between atoms: C_8  and  N_9
REMARK    4  A    between atoms: C_12  and  N_13
REMARK    5  A    between atoms: N_16  and  C_17
REMARK    6  A    between atoms: C_22  and  O_23
REMARK    7  A    between atoms: O_23  and  C_24
REMARK    8  A    between atoms: C_24  and  C_25
REMARK    9  A    between atoms: C_24  and  C_26
REMARK                            x       y       z     vdW  Elec       q    Type
REMARK                         _______ _______ _______ _____ _____    ______ ____
ROOT
ATOM      1  N   UNL     1      11.457  12.483  19.641  0.00  0.00    +0.000 NA
ATOM      2  C   UNL     1      10.556  11.962  20.670  0.00  0.00    +0.000 C 
ATOM      3  C   UNL     1       9.182  11.483  20.185  0.00  0.00    +0.000 C 
ATOM      4  C   UNL     1       9.157  10.740  18.840  0.00  0.00    +0.000 C 
ATOM      5  C   UNL     1      10.281  11.128  17.873  0.00  0.00    +0.000 C 
ATOM      6  C   UNL     1      11.592  11.470  18.576  0.00  0.00    +0.000 C 
ENDROOT
BRANCH   4   7
ATOM      7  N   UNL     1       9.078   9.287  19.019  0.00  0.00    +0.000 N 
ATOM      8  C   UNL     1       8.194   8.544  18.248  0.00  0.00    +0.000 C 
ATOM      9  O   UNL     1       7.475   9.057  17.401  0.00  0.00    +0.000 OA
ATOM     10  N   UNL     1       8.220   7.213  18.605  0.00  0.00    +0.000 N 
ATOM     11  H   UNL     1       9.906   8.812  19.343  0.00  0.00    +0.000 HD
ATOM     12  H   UNL     1       8.769   6.998  19.423  0.00  0.00    +0.000 HD
BRANCH  10  13
ATOM     13  C   UNL     1       7.424   6.169  18.083  0.00  0.00    +0.000 A 
ATOM     14  C   UNL     1       7.454   5.761  16.749  0.00  0.00    +0.000 A 
ATOM     15  C   UNL     1       6.588   4.763  16.309  0.00  0.00    +0.000 A 
ATOM     16  F   UNL     1       6.622   4.381  15.025  0.00  0.00    +0.000 F 
ATOM     17  C   UNL     1       5.692   4.152  17.173  0.00  0.00    +0.000 A 
ATOM     18  C   UNL     1       5.667   4.526  18.512  0.00  0.00    +0.000 A 
ATOM     19  C   UNL     1       6.522   5.539  18.963  0.00  0.00    +0.000 A 
BRANCH  18  20
ATOM     20  O   UNL     1       4.718   3.905  19.271  0.00  0.00    +0.000 OA
BRANCH  20  21
ATOM     21  C   UNL     1       3.505   3.502  18.626  0.00  0.00    +0.000 C 
ATOM     22  C   UNL     1       3.201   2.062  19.024  0.00  0.00    +0.000 C 
ATOM     23  C   UNL     1       2.405   4.435  19.126  0.00  0.00    +0.000 C 
ENDBRANCH  20  21
ENDBRANCH  18  20
ENDBRANCH  10  13
ENDBRANCH   4   7
BRANCH   1  24
ATOM     24  C   UNL     1      11.065  13.786  19.085  0.00  0.00    +0.000 C 
BRANCH  24  31
ATOM     25  C   UNL     1       7.092  12.960  22.951  0.00  0.00    +0.000 C 
ATOM     26  C   UNL     1       8.260  13.860  23.210  0.00  0.00    +0.000 C 
ATOM     27  O   UNL     1       8.780  13.897  24.327  0.00  0.00    +0.000 OA
ATOM     28  N   UNL     1       8.757  14.587  22.145  0.00  0.00    +0.000 N 
ATOM     29  C   UNL     1       9.912  15.447  22.361  0.00  0.00    +0.000 C 
ATOM     30  C   UNL     1      10.873  15.031  21.249  0.00  0.00    +0.000 C 
ATOM     31  C   UNL     1      10.411  14.801  19.997  0.00  0.00    +0.000 C 
ATOM     32  C   UNL     1       9.014  15.300  19.726  0.00  0.00    +0.000 C 
ATOM     33  C   UNL     1       8.041  14.945  20.902  0.00  0.00    +0.000 C 
ATOM     34  C   UNL     1       7.190  16.164  21.255  0.00  0.00    +0.000 C 
ATOM     35  C   UNL     1       7.967  17.209  22.086  0.00  0.00    +0.000 C 
ATOM     36  C   UNL     1       9.459  16.922  22.416  0.00  0.00    +0.000 C 
ENDBRANCH  24  31
ENDBRANCH   1  24
TORSDOF 6
ENDMDL
MODEL 4
REMARK VINA RESULT:      -7.9      3.697      5.281
REMARK  Name = 
REMARK  9 active torsions:
REMARK  status: ('A' for Active; 'I' for Inactive)
REMARK    1  A    between atoms: C_1  and  C_2
REMARK    2  A    between atoms: C_7  and  C_8
REMARK    3  A    between atoms: C_8  and  N_9
REMARK    4  A    between atoms: C_12  and  N_13
REMARK    5  A    between atoms: N_16  and  C_17
REMARK    6  A    between atoms: C_22  and  O_23
REMARK    7  A    between atoms: O_23  and  C_24
REMARK    8  A    between atoms: C_24  and  C_25
REMARK    9  A    between atoms: C_24  and  C_26
REMARK                            x       y       z     vdW  Elec       q    Type
REMARK                         _______ _______ _______ _____ _____    ______ ____
ROOT
ATOM      1  N   UNL     1      -1.189  12.755  20.267  0.00  0.00    +0.000 NA
ATOM      2  C   UNL     1       0.265  12.914  20.215  0.00  0.00    +0.000 C 
ATOM      3  C   UNL     1       1.094  11.707  20.673  0.00  0.00    +0.000 C 
ATOM      4  C   UNL     1       0.561  10.323  20.268  0.00  0.00    +0.000 C 
ATOM      5  C   UNL     1      -0.958  10.253  20.078  0.00  0.00    +0.000 C 
ATOM      6  C   UNL     1      -1.557  11.540  19.514  0.00  0.00    +0.000 C 
ENDROOT
BRANCH   4   7
ATOM      7  N   UNL     1       1.276   9.780  19.110  0.00  0.00    +0.000 N 
ATOM      8  C   UNL     1       1.842   8.514  19.181  0.00  0.00    +0.000 C 
ATOM      9  O   UNL     1       1.758   7.815  20.181  0.00  0.00    +0.000 OA
ATOM     10  N   UNL     1       2.521   8.207  18.020  0.00  0.00    +0.000 N 
ATOM     11  H   UNL     1       0.993  10.099  18.197  0.00  0.00    +0.000 HD
ATOM     12  H   UNL     1       2.606   8.964  17.360  0.00  0.00    +0.000 HD
BRANCH  10  13
ATOM     13  C   UNL     1       3.265   7.038  17.746  0.00  0.00    +0.000 A 
ATOM     14  C   UNL     1       4.496   7.036  17.089  0.00  0.00    +0.000 A 
ATOM     15  C   UNL     1       5.130   5.829  16.805  0.00  0.00    +0.000 A 
ATOM     16  F   UNL     1       6.310   5.837  16.171  0.00  0.00    +0.000 F 
ATOM     17  C   UNL     1       4.566   4.615  17.171  0.00  0.00    +0.000 A 
ATOM     18  C   UNL     1       3.355   4.598  17.851  0.00  0.00    +0.000 A 
ATOM     19  C   UNL     1       2.700   5.805  18.128  0.00  0.00    +0.000 A 
BRANCH  18  20
ATOM     20  O   UNL     1       2.857   3.357  18.122  0.00  0.00    +0.000 OA
BRANCH  20  21
ATOM     21  C   UNL     1       1.926   3.231  19.202  0.00  0.00    +0.000 C 
ATOM     22  C   UNL     1       0.828   2.259  18.784  0.00  0.00    +0.000 C 
ATOM     23  C   UNL     1       2.702   2.675  20.394  0.00  0.00    +0.000 C 
ENDBRANCH  20  21
ENDBRANCH  18  20
ENDBRANCH  10  13
ENDBRANCH   4   7
BRANCH   1  24
ATOM     24  C   UNL     1      -1.755  12.728  21.624  0.00  0.00    +0.000 C 
BRANCH  24  31
ATOM     25  C   UNL     1      -6.631  11.399  19.199  0.00  0.00    +0.000 C 
ATOM     26  C   UNL     1      -6.538  11.681  20.667  0.00  0.00    +0.000 C 
ATOM     27  O   UNL     1      -7.215  11.032  21.467  0.00  0.00    +0.000 OA
ATOM     28  N   UNL     1      -5.632  12.639  21.080  0.00  0.00    +0.000 N 
ATOM     29  C   UNL     1      -5.499  12.910  22.503  0.00  0.00    +0.000 C 
ATOM     30  C   UNL     1      -3.994  12.802  22.743  0.00  0.00    +0.000 C 
ATOM     31  C   UNL     1      -3.121  13.337  21.856  0.00  0.00    +0.000 C 
ATOM     32  C   UNL     1      -3.724  14.293  20.858  0.00  0.00    +0.000 C 
ATOM     33  C   UNL     1      -5.062  13.732  20.264  0.00  0.00    +0.000 C 
ATOM     34  C   UNL     1      -6.123  14.832  20.254  0.00  0.00    +0.000 C 
ATOM     35  C   UNL     1      -6.734  15.080  21.650  0.00  0.00    +0.000 C 
ATOM     36  C   UNL     1      -6.196  14.244  22.846  0.00  0.00    +0.000 C 
ENDBRANCH  24  31
ENDBRANCH   1  24
TORSDOF 6
ENDMDL
MODEL 5
REMARK VINA RESULT:      -7.9      3.657      5.200
REMARK  Name = 
REMARK  9 active torsions:
REMARK  status: ('A' for Active; 'I' for Inactive)
REMARK    1  A    between atoms: C_1  and  C_2
REMARK    2  A    between atoms: C_7  and  C_8
REMARK    3  A    between atoms: C_8  and  N_9
REMARK    4  A    between atoms: C_12  and  N_13
REMARK    5  A    between atoms: N_16  and  C_17
REMARK    6  A    between atoms: C_22  and  O_23
REMARK    7  A    between atoms: O_23  and  C_24
REMARK    8  A    between atoms: C_24  and  C_25
REMARK    9  A    between atoms: C_24  and  C_26
REMARK                            x       y       z     vdW  Elec       q    Type
REMARK                         _______ _______ _______ _____ _____    ______ ____
ROOT
ATOM      1  N   UNL     1      -1.999  12.210  18.432  0.00  0.00    +0.000 NA
ATOM      2  C   UNL     1      -0.698  12.736  18.016  0.00  0.00    +0.000 C 
ATOM      3  C   UNL     1       0.523  12.199  18.773  0.00  0.00    +0.000 C 
ATOM      4  C   UNL     1       0.495  10.705  19.135  0.00  0.00    +0.000 C 
ATOM      5  C   UNL     1      -0.909  10.116  19.313  0.00  0.00    +0.000 C 
ATOM      6  C   UNL     1      -1.948  10.736  18.380  0.00  0.00    +0.000 C 
ENDROOT
BRANCH   4   7
ATOM      7  N   UNL     1       1.303   9.904  18.211  0.00  0.00    +0.000 N 
ATOM      8  C   UNL     1       1.884   8.722  18.651  0.00  0.00    +0.000 C 
ATOM      9  O   UNL     1       1.738   8.307  19.792  0.00  0.00    +0.000 OA
ATOM     10  N   UNL     1       2.652   8.147  17.660  0.00  0.00    +0.000 N 
ATOM     11  H   UNL     1       1.082   9.962  17.229  0.00  0.00    +0.000 HD
ATOM     12  H   UNL     1       2.773   8.707  16.831  0.00  0.00    +0.000 HD
BRANCH  10  13
ATOM     13  C   UNL     1       3.435   6.975  17.754  0.00  0.00    +0.000 A 
ATOM     14  C   UNL     1       4.725   6.858  17.237  0.00  0.00    +0.000 A 
ATOM     15  C   UNL     1       5.400   5.643  17.321  0.00  0.00    +0.000 A 
ATOM     16  F   UNL     1       6.637   5.539  16.818  0.00  0.00    +0.000 F 
ATOM     17  C   UNL     1       4.819   4.535  17.921  0.00  0.00    +0.000 A 
ATOM     18  C   UNL     1       3.546   4.640  18.468  0.00  0.00    +0.000 A 
ATOM     19  C   UNL     1       2.851   5.853  18.375  0.00  0.00    +0.000 A 
BRANCH  18  20
ATOM     20  O   UNL     1       3.039   3.485  18.989  0.00  0.00    +0.000 OA
BRANCH  20  21
ATOM     21  C   UNL     1       1.708   3.517  19.515  0.00  0.00    +0.000 C 
ATOM     22  C   UNL     1       0.860   2.511  18.746  0.00  0.00    +0.000 C 
ATOM     23  C   UNL     1       1.803   3.117  20.986  0.00  0.00    +0.000 C 
ENDBRANCH  20  21
ENDBRANCH  18  20
ENDBRANCH  10  13
ENDBRANCH   4   7
BRANCH   1  24
ATOM     24  C   UNL     1      -2.458  12.678  19.748  0.00  0.00    +0.000 C 
BRANCH  24  31
ATOM     25  C   UNL     1      -6.437  16.589  20.279  0.00  0.00    +0.000 C 
ATOM     26  C   UNL     1      -6.711  15.280  19.604  0.00  0.00    +0.000 C 
ATOM     27  O   UNL     1      -7.448  15.233  18.617  0.00  0.00    +0.000 OA
ATOM     28  N   UNL     1      -6.065  14.161  20.093  0.00  0.00    +0.000 N 
ATOM     29  C   UNL     1      -6.290  12.881  19.437  0.00  0.00    +0.000 C 
ATOM     30  C   UNL     1      -4.875  12.368  19.172  0.00  0.00    +0.000 C 
ATOM     31  C   UNL     1      -3.914  12.498  20.118  0.00  0.00    +0.000 C 
ATOM     32  C   UNL     1      -4.413  12.849  21.497  0.00  0.00    +0.000 C 
ATOM     33  C   UNL     1      -5.492  13.984  21.443  0.00  0.00    +0.000 C 
ATOM     34  C   UNL     1      -6.672  13.618  22.345  0.00  0.00    +0.000 C 
ATOM     35  C   UNL     1      -7.604  12.567  21.703  0.00  0.00    +0.000 C 
ATOM     36  C   UNL     1      -7.229  12.012  20.300  0.00  0.00    +0.000 C 
ENDBRANCH  24  31
ENDBRANCH   1  24
TORSDOF 6
ENDMDL
MODEL 6
REMARK VINA RESULT:      -7.8      1.392      1.801
REMARK  Name = 
REMARK  9 active torsions:
REMARK  status: ('A' for Active; 'I' for Inactive)
REMARK    1  A    between atoms: C_1  and  C_2
REMARK    2  A    between atoms: C_7  and  C_8
REMARK    3  A    between atoms: C_8  and  N_9
REMARK    4  A    between atoms: C_12  and  N_13
REMARK    5  A    between atoms: N_16  and  C_17
REMARK    6  A    between atoms: C_22  and  O_23
REMARK    7  A    between atoms: O_23  and  C_24
REMARK    8  A    between atoms: C_24  and  C_25
REMARK    9  A    between atoms: C_24  and  C_26
REMARK                            x       y       z     vdW  Elec       q    Type
REMARK                         _______ _______ _______ _____ _____    ______ ____
ROOT
ATOM      1  N   UNL     1      -0.812  12.427  19.955  0.00  0.00    +0.000 NA
ATOM      2  C   UNL     1      -1.366  11.157  19.482  0.00  0.00    +0.000 C 
ATOM      3  C   UNL     1      -0.408  10.252  18.699  0.00  0.00    +0.000 C 
ATOM      4  C   UNL     1       1.043  10.197  19.205  0.00  0.00    +0.000 C 
ATOM      5  C   UNL     1       1.514  11.462  19.931  0.00  0.00    +0.000 C 
ATOM      6  C   UNL     1       0.410  12.147  20.733  0.00  0.00    +0.000 C 
ENDROOT
BRANCH   4   7
ATOM      7  N   UNL     1       1.300   8.992  19.998  0.00  0.00    +0.000 N 
ATOM      8  C   UNL     1       1.955   7.913  19.420  0.00  0.00    +0.000 C 
ATOM      9  O   UNL     1       2.345   7.930  18.260  0.00  0.00    +0.000 OA
ATOM     10  N   UNL     1       2.047   6.857  20.301  0.00  0.00    +0.000 N 
ATOM     11  H   UNL     1       1.404   9.104  20.995  0.00  0.00    +0.000 HD
ATOM     12  H   UNL     1       1.541   6.973  21.165  0.00  0.00    +0.000 HD
BRANCH  10  13
ATOM     13  C   UNL     1       2.595   5.579  20.053  0.00  0.00    +0.000 A 
ATOM     14  C   UNL     1       1.937   4.382  20.338  0.00  0.00    +0.000 A 
ATOM     15  C   UNL     1       2.579   3.166  20.117  0.00  0.00    +0.000 A 
ATOM     16  F   UNL     1       1.941   2.022  20.397  0.00  0.00    +0.000 F 
ATOM     17  C   UNL     1       3.869   3.114  19.608  0.00  0.00    +0.000 A 
ATOM     18  C   UNL     1       4.530   4.294  19.291  0.00  0.00    +0.000 A 
ATOM     19  C   UNL     1       3.899   5.523  19.524  0.00  0.00    +0.000 A 
BRANCH  18  20
ATOM     20  O   UNL     1       5.810   4.142  18.845  0.00  0.00    +0.000 OA
BRANCH  20  21
ATOM     21  C   UNL     1       6.536   5.322  18.481  0.00  0.00    +0.000 C 
ATOM     22  C   UNL     1       7.575   5.604  19.560  0.00  0.00    +0.000 C 
ATOM     23  C   UNL     1       7.220   5.028  17.148  0.00  0.00    +0.000 C 
ENDBRANCH  20  21
ENDBRANCH  18  20
ENDBRANCH  10  13
ENDBRANCH   4   7
BRANCH   1  24
ATOM     24  C   UNL     1      -0.552  13.414  18.897  0.00  0.00    +0.000 C 
BRANCH  24  31
ATOM     25  C   UNL     1       4.402  15.947  18.216  0.00  0.00    +0.000 C 
ATOM     26  C   UNL     1       3.114  16.665  17.958  0.00  0.00    +0.000 C 
ATOM     27  O   UNL     1       3.026  17.465  17.023  0.00  0.00    +0.000 OA
ATOM     28  N   UNL     1       2.033  16.352  18.760  0.00  0.00    +0.000 N 
ATOM     29  C   UNL     1       0.761  17.013  18.511  0.00  0.00    +0.000 C 
ATOM     30  C   UNL     1      -0.227  15.851  18.421  0.00  0.00    +0.000 C 
ATOM     31  C   UNL     1      -0.147  14.818  19.293  0.00  0.00    +0.000 C 
ATOM     32  C   UNL     1       0.719  15.063  20.502  0.00  0.00    +0.000 C 
ATOM     33  C   UNL     1       2.074  15.745  20.107  0.00  0.00    +0.000 C 
ATOM     34  C   UNL     1       2.372  16.897  21.068  0.00  0.00    +0.000 C 
ATOM     35  C   UNL     1       1.536  18.158  20.758  0.00  0.00    +0.000 C 
ATOM     36  C   UNL     1       0.516  18.093  19.586  0.00  0.00    +0.000 C 
ENDBRANCH  24  31
ENDBRANCH   1  24
TORSDOF 6
ENDMDL
MODEL 7
REMARK VINA RESULT:      -7.8      0.934      1.112
REMARK  Name = 
REMARK  9 active torsions:
REMARK  status: ('A' for Active; 'I' for Inactive)
REMARK    1  A    between atoms: C_1  and  C_2
REMARK    2  A    between atoms: C_7  and  C_8
REMARK    3  A    between atoms: C_8  and  N_9
REMARK    4  A    between atoms: C_12  and  N_13
REMARK    5  A    between atoms: N_16  and  C_17
REMARK    6  A    between atoms: C_22  and  O_23
REMARK    7  A    between atoms: O_23  and  C_24
REMARK    8  A    between atoms: C_24  and  C_25
REMARK    9  A    between atoms: C_24  and  C_26
REMARK                            x       y       z     vdW  Elec       q    Type
REMARK                         _______ _______ _______ _____ _____    ______ ____
ROOT
ATOM      1  N   UNL     1      -1.335  11.742  19.788  0.00  0.00    +0.000 NA
ATOM      2  C   UNL     1      -1.522  10.565  18.938  0.00  0.00    +0.000 C 
ATOM      3  C   UNL     1      -0.286  10.085  18.167  0.00  0.00    +0.000 C 
ATOM      4  C   UNL     1       1.054  10.157  18.917  0.00  0.00    +0.000 C 
ATOM      5  C   UNL     1       1.126  11.247  19.992  0.00  0.00    +0.000 C 
ATOM      6  C   UNL     1      -0.205  11.488  20.701  0.00  0.00    +0.000 C 
ENDROOT
BRANCH   4   7
ATOM      7  N   UNL     1       1.455   8.851  19.446  0.00  0.00    +0.000 N 
ATOM      8  C   UNL     1       2.168   7.971  18.641  0.00  0.00    +0.000 C 
ATOM      9  O   UNL     1       2.493   8.250  17.495  0.00  0.00    +0.000 OA
ATOM     10  N   UNL     1       2.397   6.777  19.292  0.00  0.00    +0.000 N 
ATOM     11  H   UNL     1       1.603   8.776  20.440  0.00  0.00    +0.000 HD
ATOM     12  H   UNL     1       1.930   6.675  20.178  0.00  0.00    +0.000 HD
BRANCH  10  13
ATOM     13  C   UNL     1       3.039   5.630  18.776  0.00  0.00    +0.000 A 
ATOM     14  C   UNL     1       2.372   4.594  18.120  0.00  0.00    +0.000 A 
ATOM     15  C   UNL     1       3.077   3.470  17.698  0.00  0.00    +0.000 A 
ATOM     16  F   UNL     1       2.427   2.480  17.073  0.00  0.00    +0.000 F 
ATOM     17  C   UNL     1       4.444   3.356  17.908  0.00  0.00    +0.000 A 
ATOM     18  C   UNL     1       5.131   4.389  18.533  0.00  0.00    +0.000 A 
ATOM     19  C   UNL     1       4.429   5.517  18.976  0.00  0.00    +0.000 A 
BRANCH  18  20
ATOM     20  O   UNL     1       6.460   4.162  18.740  0.00  0.00    +0.000 OA
BRANCH  20  21
ATOM     21  C   UNL     1       7.390   4.758  17.828  0.00  0.00    +0.000 C 
ATOM     22  C   UNL     1       6.808   4.674  16.421  0.00  0.00    +0.000 C 
ATOM     23  C   UNL     1       7.553   6.216  18.249  0.00  0.00    +0.000 C 
ENDBRANCH  20  21
ENDBRANCH  18  20
ENDBRANCH  10  13
ENDBRANCH   4   7
BRANCH   1  24
ATOM     24  C   UNL     1      -1.151  13.004  19.057  0.00  0.00    +0.000 C 
BRANCH  24  31
ATOM     25  C   UNL     1      -0.791  18.293  17.238  0.00  0.00    +0.000 C 
ATOM     26  C   UNL     1      -1.383  17.964  18.574  0.00  0.00    +0.000 C 
ATOM     27  O   UNL     1      -2.355  18.595  18.995  0.00  0.00    +0.000 OA
ATOM     28  N   UNL     1      -0.840  16.901  19.271  0.00  0.00    +0.000 N 
ATOM     29  C   UNL     1      -1.416  16.539  20.557  0.00  0.00    +0.000 C 
ATOM     30  C   UNL     1      -1.671  15.040  20.420  0.00  0.00    +0.000 C 
ATOM     31  C   UNL     1      -0.749  14.242  19.829  0.00  0.00    +0.000 C 
ATOM     32  C   UNL     1       0.614  14.860  19.648  0.00  0.00    +0.000 C 
ATOM     33  C   UNL     1       0.510  16.325  19.100  0.00  0.00    +0.000 C 
ATOM     34  C   UNL     1       1.449  17.238  19.888  0.00  0.00    +0.000 C 
ATOM     35  C   UNL     1       0.884  17.614  21.275  0.00  0.00    +0.000 C 
ATOM     36  C   UNL     1      -0.489  17.018  21.695  0.00  0.00    +0.000 C 
ENDBRANCH  24  31
ENDBRANCH   1  24
TORSDOF 6
ENDMDL
MODEL 8
REMARK VINA RESULT:      -7.8      1.669      2.150
REMARK  Name = 
REMARK  9 active torsions:
REMARK  status: ('A' for Active; 'I' for Inactive)
REMARK    1  A    between atoms: C_1  and  C_2
REMARK    2  A    between atoms: C_7  and  C_8
REMARK    3  A    between atoms: C_8  and  N_9
REMARK    4  A    between atoms: C_12  and  N_13
REMARK    5  A    between atoms: N_16  and  C_17
REMARK    6  A    between atoms: C_22  and  O_23
REMARK    7  A    between atoms: O_23  and  C_24
REMARK    8  A    between atoms: C_24  and  C_25
REMARK    9  A    between atoms: C_24  and  C_26
REMARK                            x       y       z     vdW  Elec       q    Type
REMARK                         _______ _______ _______ _____ _____    ______ ____
ROOT
ATOM      1  N   UNL     1      -0.626  12.777  18.570  0.00  0.00    +0.000 NA
ATOM      2  C   UNL     1       0.811  12.788  18.292  0.00  0.00    +0.000 C 
ATOM      3  C   UNL     1       1.662  11.795  19.093  0.00  0.00    +0.000 C 
ATOM      4  C   UNL     1       1.043  10.409  19.336  0.00  0.00    +0.000 C 
ATOM      5  C   UNL     1      -0.489  10.390  19.366  0.00  0.00    +0.000 C 
ATOM      6  C   UNL     1      -1.126  11.398  18.410  0.00  0.00    +0.000 C 
ENDROOT
BRANCH   4   7
ATOM      7  N   UNL     1       1.577   9.403  18.415  0.00  0.00    +0.000 N 
ATOM      8  C   UNL     1       1.969   8.162  18.902  0.00  0.00    +0.000 C 
ATOM      9  O   UNL     1       1.873   7.864  20.084  0.00  0.00    +0.000 OA
ATOM     10  N   UNL     1       2.500   7.380  17.898  0.00  0.00    +0.000 N 
ATOM     11  H   UNL     1       1.265   9.435  17.457  0.00  0.00    +0.000 HD
ATOM     12  H   UNL     1       2.632   7.846  17.015  0.00  0.00    +0.000 HD
BRANCH  10  13
ATOM     13  C   UNL     1       3.051   6.085  18.022  0.00  0.00    +0.000 A 
ATOM     14  C   UNL     1       2.314   4.909  17.879  0.00  0.00    +0.000 A 
ATOM     15  C   UNL     1       2.928   3.676  18.079  0.00  0.00    +0.000 A 
ATOM     16  F   UNL     1       2.211   2.552  17.944  0.00  0.00    +0.000 F 
ATOM     17  C   UNL     1       4.272   3.584  18.412  0.00  0.00    +0.000 A 
ATOM     18  C   UNL     1       5.029   4.743  18.530  0.00  0.00    +0.000 A 
ATOM     19  C   UNL     1       4.418   5.990  18.347  0.00  0.00    +0.000 A 
BRANCH  18  20
ATOM     20  O   UNL     1       6.326   4.554  18.910  0.00  0.00    +0.000 OA
BRANCH  20  21
ATOM     21  C   UNL     1       7.353   4.862  17.961  0.00  0.00    +0.000 C 
ATOM     22  C   UNL     1       6.859   4.473  16.572  0.00  0.00    +0.000 C 
ATOM     23  C   UNL     1       7.592   6.367  18.038  0.00  0.00    +0.000 C 
ENDBRANCH  20  21
ENDBRANCH  18  20
ENDBRANCH  10  13
ENDBRANCH   4   7
BRANCH   1  24
ATOM     24  C   UNL     1      -1.001  13.327  19.881  0.00  0.00    +0.000 C 
BRANCH  24  31
ATOM     25  C   UNL     1       3.726  15.853  18.244  0.00  0.00    +0.000 C 
ATOM     26  C   UNL     1       2.436  16.605  18.358  0.00  0.00    +0.000 C 
ATOM     27  O   UNL     1       2.154  17.482  17.538  0.00  0.00    +0.000 OA
ATOM     28  N   UNL     1       1.567  16.237  19.367  0.00  0.00    +0.000 N 
ATOM     29  C   UNL     1       0.292  16.930  19.481  0.00  0.00    +0.000 C 
ATOM     30  C   UNL     1      -0.724  15.792  19.537  0.00  0.00    +0.000 C 
ATOM     31  C   UNL     1      -0.472  14.687  20.280  0.00  0.00    +0.000 C 
ATOM     32  C   UNL     1       0.663  14.820  21.264  0.00  0.00    +0.000 C 
ATOM     33  C   UNL     1       1.906  15.518  20.613  0.00  0.00    +0.000 C 
ATOM     34  C   UNL     1       2.457  16.581  21.563  0.00  0.00    +0.000 C 
ATOM     35  C   UNL     1       1.611  17.873  21.563  0.00  0.00    +0.000 C 
ATOM     36  C   UNL     1       0.342  17.919  20.666  0.00  0.00    +0.000 C 
ENDBRANCH  24  31
ENDBRANCH   1  24
TORSDOF 6
ENDMDL
MODEL 9
REMARK VINA RESULT:      -7.8      3.569      4.255
REMARK  Name = 
REMARK  9 active torsions:
REMARK  status: ('A' for Active; 'I' for Inactive)
REMARK    1  A    between atoms: C_1  and  C_2
REMARK    2  A    between atoms: C_7  and  C_8
REMARK    3  A    between atoms: C_8  and  N_9
REMARK    4  A    between atoms: C_12  and  N_13
REMARK    5  A    between atoms: N_16  and  C_17
REMARK    6  A    between atoms: C_22  and  O_23
REMARK    7  A    between atoms: O_23  and  C_24
REMARK    8  A    between atoms: C_24  and  C_25
REMARK    9  A    between atoms: C_24  and  C_26
REMARK                            x       y       z     vdW  Elec       q    Type
REMARK                         _______ _______ _______ _____ _____    ______ ____
ROOT
ATOM      1  N   UNL     1      -0.935  10.165  22.675  0.00  0.00    +0.000 NA
ATOM      2  C   UNL     1      -1.072   9.496  21.380  0.00  0.00    +0.000 C 
ATOM      3  C   UNL     1       0.215   9.340  20.560  0.00  0.00    +0.000 C 
ATOM      4  C   UNL     1       1.488   9.002  21.352  0.00  0.00    +0.000 C 
ATOM      5  C   UNL     1       1.491   9.499  22.801  0.00  0.00    +0.000 C 
ATOM      6  C   UNL     1       0.110   9.473  23.453  0.00  0.00    +0.000 C 
ENDROOT
BRANCH   4   7
ATOM      7  N   UNL     1       1.820   7.577  21.270  0.00  0.00    +0.000 N 
ATOM      8  C   UNL     1       2.257   7.039  20.067  0.00  0.00    +0.000 C 
ATOM      9  O   UNL     1       2.393   7.717  19.058  0.00  0.00    +0.000 OA
ATOM     10  N   UNL     1       2.458   5.679  20.174  0.00  0.00    +0.000 N 
ATOM     11  H   UNL     1       2.141   7.124  22.112  0.00  0.00    +0.000 HD
ATOM     12  H   UNL     1       2.156   5.267  21.042  0.00  0.00    +0.000 HD
BRANCH  10  13
ATOM     13  C   UNL     1       2.847   4.787  19.150  0.00  0.00    +0.000 A 
ATOM     14  C   UNL     1       2.162   3.611  18.841  0.00  0.00    +0.000 A 
ATOM     15  C   UNL     1       2.653   2.759  17.856  0.00  0.00    +0.000 A 
ATOM     16  F   UNL     1       1.990   1.631  17.569  0.00  0.00    +0.000 F 
ATOM     17  C   UNL     1       3.815   3.056  17.159  0.00  0.00    +0.000 A 
ATOM     18  C   UNL     1       4.496   4.237  17.432  0.00  0.00    +0.000 A 
ATOM     19  C   UNL     1       4.020   5.093  18.432  0.00  0.00    +0.000 A 
BRANCH  18  20
ATOM     20  O   UNL     1       5.654   4.416  16.733  0.00  0.00    +0.000 OA
BRANCH  20  21
ATOM     21  C   UNL     1       5.553   4.868  15.378  0.00  0.00    +0.000 C 
ATOM     22  C   UNL     1       5.346   6.378  15.386  0.00  0.00    +0.000 C 
ATOM     23  C   UNL     1       6.871   4.516  14.693  0.00  0.00    +0.000 C 
ENDBRANCH  20  21
ENDBRANCH  18  20
ENDBRANCH  10  13
ENDBRANCH   4   7
BRANCH   1  24
ATOM     24  C   UNL     1      -0.667  11.608  22.595  0.00  0.00    +0.000 C 
BRANCH  24  31
ATOM     25  C   UNL     1      -5.293  12.510  19.560  0.00  0.00    +0.000 C 
ATOM     26  C   UNL     1      -5.340  12.436  21.055  0.00  0.00    +0.000 C 
ATOM     27  O   UNL     1      -6.296  11.900  21.620  0.00  0.00    +0.000 OA
ATOM     28  N   UNL     1      -4.256  12.930  21.756  0.00  0.00    +0.000 N 
ATOM     29  C   UNL     1      -4.262  12.842  23.209  0.00  0.00    +0.000 C 
ATOM     30  C   UNL     1      -2.917  12.192  23.527  0.00  0.00    +0.000 C 
ATOM     31  C   UNL     1      -1.800  12.575  22.865  0.00  0.00    +0.000 C 
ATOM     32  C   UNL     1      -1.922  13.861  22.088  0.00  0.00    +0.000 C 
ATOM     33  C   UNL     1      -3.263  13.914  21.277  0.00  0.00    +0.000 C 
ATOM     34  C   UNL     1      -3.921  15.282  21.455  0.00  0.00    +0.000 C 
ATOM     35  C   UNL     1      -4.629  15.426  22.820  0.00  0.00    +0.000 C 
ATOM     36  C   UNL     1      -4.559  14.231  23.813  0.00  0.00    +0.000 C 
ENDBRANCH  24  31
ENDBRANCH   1  24
TORSDOF 6
ENDMDL
