MODEL 1
REMARK VINA RESULT:      -5.7      0.000      0.000
REMARK  Name = 
REMARK  6 active torsions:
REMARK  status: ('A' for Active; 'I' for Inactive)
REMARK    1  A    between atoms: C_1  and  C_2
REMARK    2  A    between atoms: C_2  and  C_3
REMARK    3  A    between atoms: C_2  and  N_8
REMARK    4  A    between atoms: C_3  and  C_4
REMARK    5  A    between atoms: N_8  and  C_9
REMARK    6  A    between atoms: N_12  and  C_13
REMARK                            x       y       z     vdW  Elec       q    Type
REMARK                         _______ _______ _______ _____ _____    ______ ____
ROOT
ATOM      1  N   UNL     1       6.052   3.947  18.686  0.00  0.00    +0.000 N 
ATOM      2  H   UNL     1       6.841   3.569  19.211  0.00  0.00    +0.000 HD
ENDROOT
BRANCH   1   3
ATOM      3  C   UNL     1       4.831   3.851  19.266  0.00  0.00    +0.000 A 
ATOM      4  C   UNL     1       4.214   2.690  19.778  0.00  0.00    +0.000 A 
ATOM      5  N   UNL     1       3.014   2.947  20.308  0.00  0.00    +0.000 NA
ATOM      6  N   UNL     1       2.863   4.271  20.114  0.00  0.00    +0.000 N 
ATOM      7  C   UNL     1       1.683   4.945  20.594  0.00  0.00    +0.000 C 
ATOM      8  C   UNL     1       3.918   4.853  19.468  0.00  0.00    +0.000 A 
ENDBRANCH   1   3
BRANCH   1  10
ATOM      9  C   UNL     1       7.648   5.773  18.499  0.00  0.00    +0.000 C 
ATOM     10  C   UNL     1       6.421   5.107  17.860  0.00  0.00    +0.000 C 
BRANCH  10  11
ATOM     11  C   UNL     1       6.668   4.617  16.433  0.00  0.00    +0.000 C 
BRANCH  11  12
ATOM     12  C   UNL     1       5.479   4.796  15.515  0.00  0.00    +0.000 C 
ATOM     13  F   UNL     1       4.409   4.057  15.873  0.00  0.00    +0.000 F 
ATOM     14  F   UNL     1       5.090   6.091  15.486  0.00  0.00    +0.000 F 
ATOM     15  F   UNL     1       5.798   4.446  14.247  0.00  0.00    +0.000 F 
ENDBRANCH  11  12
ENDBRANCH  10  11
ENDBRANCH   1  10
TORSDOF 4
ENDMDL
MODEL 2
REMARK VINA RESULT:      -5.7      1.224      1.669
REMARK  Name = 
REMARK  6 active torsions:
REMARK  status: ('A' for Active; 'I' for Inactive)
REMARK    1  A    between atoms: C_1  and  C_2
REMARK    2  A    between atoms: C_2  and  C_3
REMARK    3  A    between atoms: C_2  and  N_8
REMARK    4  A    between atoms: C_3  and  C_4
REMARK    5  A    between atoms: N_8  and  C_9
REMARK    6  A    between atoms: N_12  and  C_13
REMARK                            x       y       z     vdW  Elec       q    Type
REMARK                         _______ _______ _______ _____ _____    ______ ____
ROOT
ATOM      1  N   UNL     1       5.999   3.863  18.758  0.00  0.00    +0.000 N 
ATOM      2  H   UNL     1       6.552   3.491  19.530  0.00  0.00    +0.000 HD
ENDROOT
BRANCH   1   3
ATOM      3  C   UNL     1       4.653   3.744  18.859  0.00  0.00    +0.000 A 
ATOM      4  C   UNL     1       3.677   4.330  18.025  0.00  0.00    +0.000 A 
ATOM      5  N   UNL     1       2.434   3.990  18.385  0.00  0.00    +0.000 NA
ATOM      6  N   UNL     1       2.624   3.202  19.460  0.00  0.00    +0.000 N 
ATOM      7  C   UNL     1       1.498   2.595  20.123  0.00  0.00    +0.000 C 
ATOM      8  C   UNL     1       3.940   3.046  19.799  0.00  0.00    +0.000 A 
ENDBRANCH   1   3
BRANCH   1  10
ATOM      9  C   UNL     1       7.482   5.744  19.184  0.00  0.00    +0.000 C 
ATOM     10  C   UNL     1       6.621   5.038  18.127  0.00  0.00    +0.000 C 
BRANCH  10  11
ATOM     11  C   UNL     1       7.417   4.560  16.913  0.00  0.00    +0.000 C 
BRANCH  11  12
ATOM     12  C   UNL     1       6.635   4.603  15.618  0.00  0.00    +0.000 C 
ATOM     13  F   UNL     1       5.650   5.523  15.617  0.00  0.00    +0.000 F 
ATOM     14  F   UNL     1       7.453   4.879  14.577  0.00  0.00    +0.000 F 
ATOM     15  F   UNL     1       6.060   3.404  15.367  0.00  0.00    +0.000 F 
ENDBRANCH  11  12
ENDBRANCH  10  11
ENDBRANCH   1  10
TORSDOF 4
ENDMDL
MODEL 3
REMARK VINA RESULT:      -5.7      0.731      1.027
REMARK  Name = 
REMARK  6 active torsions:
REMARK  status: ('A' for Active; 'I' for Inactive)
REMARK    1  A    between atoms: C_1  and  C_2
REMARK    2  A    between atoms: C_2  and  C_3
REMARK    3  A    between atoms: C_2  and  N_8
REMARK    4  A    between atoms: C_3  and  C_4
REMARK    5  A    between atoms: N_8  and  C_9
REMARK    6  A    between atoms: N_12  and  C_13
REMARK                            x       y       z     vdW  Elec       q    Type
REMARK                         _______ _______ _______ _____ _____    ______ ____
ROOT
ATOM      1  N   UNL     1       6.008   3.903  18.485  0.00  0.00    +0.000 N 
ATOM      2  H   UNL     1       6.871   3.794  19.016  0.00  0.00    +0.000 HD
ENDROOT
BRANCH   1   3
ATOM      3  C   UNL     1       4.847   3.772  19.172  0.00  0.00    +0.000 A 
ATOM      4  C   UNL     1       4.351   2.610  19.801  0.00  0.00    +0.000 A 
ATOM      5  N   UNL     1       3.184   2.827  20.417  0.00  0.00    +0.000 NA
ATOM      6  N   UNL     1       2.932   4.125  20.161  0.00  0.00    +0.000 N 
ATOM      7  C   UNL     1       1.755   4.756  20.701  0.00  0.00    +0.000 C 
ATOM      8  C   UNL     1       3.891   4.728  19.394  0.00  0.00    +0.000 A 
ENDBRANCH   1   3
BRANCH   1  10
ATOM      9  C   UNL     1       7.359   5.749  17.657  0.00  0.00    +0.000 C 
ATOM     10  C   UNL     1       6.138   4.862  17.375  0.00  0.00    +0.000 C 
BRANCH  10  11
ATOM     11  C   UNL     1       6.248   4.069  16.073  0.00  0.00    +0.000 C 
BRANCH  11  12
ATOM     12  C   UNL     1       5.913   4.878  14.839  0.00  0.00    +0.000 C 
ATOM     13  F   UNL     1       5.258   6.025  15.111  0.00  0.00    +0.000 F 
ATOM     14  F   UNL     1       7.037   5.200  14.161  0.00  0.00    +0.000 F 
ATOM     15  F   UNL     1       5.130   4.163  13.998  0.00  0.00    +0.000 F 
ENDBRANCH  11  12
ENDBRANCH  10  11
ENDBRANCH   1  10
TORSDOF 4
ENDMDL
MODEL 4
REMARK VINA RESULT:      -5.7      2.790      5.161
REMARK  Name = 
REMARK  6 active torsions:
REMARK  status: ('A' for Active; 'I' for Inactive)
REMARK    1  A    between atoms: C_1  and  C_2
REMARK    2  A    between atoms: C_2  and  C_3
REMARK    3  A    between atoms: C_2  and  N_8
REMARK    4  A    between atoms: C_3  and  C_4
REMARK    5  A    between atoms: N_8  and  C_9
REMARK    6  A    between atoms: N_12  and  C_13
REMARK                            x       y       z     vdW  Elec       q    Type
REMARK                         _______ _______ _______ _____ _____    ______ ____
ROOT
ATOM      1  N   UNL     1       5.027   4.379  19.137  0.00  0.00    +0.000 N 
ATOM      2  H   UNL     1       5.540   4.550  20.002  0.00  0.00    +0.000 HD
ENDROOT
BRANCH   1   3
ATOM      3  C   UNL     1       5.743   4.413  17.987  0.00  0.00    +0.000 A 
ATOM      4  C   UNL     1       7.116   4.707  17.840  0.00  0.00    +0.000 A 
ATOM      5  N   UNL     1       7.516   4.628  16.567  0.00  0.00    +0.000 NA
ATOM      6  N   UNL     1       6.390   4.302  15.904  0.00  0.00    +0.000 N 
ATOM      7  C   UNL     1       6.423   4.085  14.480  0.00  0.00    +0.000 C 
ATOM      8  C   UNL     1       5.293   4.187  16.712  0.00  0.00    +0.000 A 
ENDBRANCH   1   3
BRANCH   1  10
ATOM      9  C   UNL     1       4.439   2.189  20.016  0.00  0.00    +0.000 C 
ATOM     10  C   UNL     1       3.904   3.445  19.316  0.00  0.00    +0.000 C 
BRANCH  10  11
ATOM     11  C   UNL     1       2.809   4.164  20.104  0.00  0.00    +0.000 C 
BRANCH  11  12
ATOM     12  C   UNL     1       1.407   3.808  19.660  0.00  0.00    +0.000 C 
ATOM     13  F   UNL     1       1.155   2.484  19.690  0.00  0.00    +0.000 F 
ATOM     14  F   UNL     1       0.490   4.417  20.446  0.00  0.00    +0.000 F 
ATOM     15  F   UNL     1       1.187   4.226  18.392  0.00  0.00    +0.000 F 
ENDBRANCH  11  12
ENDBRANCH  10  11
ENDBRANCH   1  10
TORSDOF 4
ENDMDL
MODEL 5
REMARK VINA RESULT:      -5.7      1.246      1.520
REMARK  Name = 
REMARK  6 active torsions:
REMARK  status: ('A' for Active; 'I' for Inactive)
REMARK    1  A    between atoms: C_1  and  C_2
REMARK    2  A    between atoms: C_2  and  C_3
REMARK    3  A    between atoms: C_2  and  N_8
REMARK    4  A    between atoms: C_3  and  C_4
REMARK    5  A    between atoms: N_8  and  C_9
REMARK    6  A    between atoms: N_12  and  C_13
REMARK                            x       y       z     vdW  Elec       q    Type
REMARK                         _______ _______ _______ _____ _____    ______ ____
ROOT
ATOM      1  N   UNL     1       5.949   3.822  18.679  0.00  0.00    +0.000 N 
ATOM      2  H   UNL     1       6.505   3.413  19.430  0.00  0.00    +0.000 HD
ENDROOT
BRANCH   1   3
ATOM      3  C   UNL     1       4.602   3.716  18.788  0.00  0.00    +0.000 A 
ATOM      4  C   UNL     1       3.627   4.271  17.932  0.00  0.00    +0.000 A 
ATOM      5  N   UNL     1       2.383   3.954  18.310  0.00  0.00    +0.000 NA
ATOM      6  N   UNL     1       2.573   3.212  19.419  0.00  0.00    +0.000 N 
ATOM      7  C   UNL     1       1.445   2.641  20.110  0.00  0.00    +0.000 C 
ATOM      8  C   UNL     1       3.888   3.064  19.760  0.00  0.00    +0.000 A 
ENDBRANCH   1   3
BRANCH   1  10
ATOM      9  C   UNL     1       7.409   5.702  19.181  0.00  0.00    +0.000 C 
ATOM     10  C   UNL     1       6.579   5.014  18.088  0.00  0.00    +0.000 C 
BRANCH  10  11
ATOM     11  C   UNL     1       7.408   4.566  16.884  0.00  0.00    +0.000 C 
BRANCH  11  12
ATOM     12  C   UNL     1       6.631   4.541  15.587  0.00  0.00    +0.000 C 
ATOM     13  F   UNL     1       6.029   3.360  15.344  0.00  0.00    +0.000 F 
ATOM     14  F   UNL     1       5.672   5.496  15.588  0.00  0.00    +0.000 F 
ATOM     15  F   UNL     1       7.446   4.796  14.537  0.00  0.00    +0.000 F 
ENDBRANCH  11  12
ENDBRANCH  10  11
ENDBRANCH   1  10
TORSDOF 4
ENDMDL
MODEL 6
REMARK VINA RESULT:      -5.6      2.711      5.191
REMARK  Name = 
REMARK  6 active torsions:
REMARK  status: ('A' for Active; 'I' for Inactive)
REMARK    1  A    between atoms: C_1  and  C_2
REMARK    2  A    between atoms: C_2  and  C_3
REMARK    3  A    between atoms: C_2  and  N_8
REMARK    4  A    between atoms: C_3  and  C_4
REMARK    5  A    between atoms: N_8  and  C_9
REMARK    6  A    between atoms: N_12  and  C_13
REMARK                            x       y       z     vdW  Elec       q    Type
REMARK                         _______ _______ _______ _____ _____    ______ ____
ROOT
ATOM      1  N   UNL     1       5.320   4.240  19.185  0.00  0.00    +0.000 N 
ATOM      2  H   UNL     1       5.910   4.226  20.017  0.00  0.00    +0.000 HD
ENDROOT
BRANCH   1   3
ATOM      3  C   UNL     1       5.951   4.344  17.991  0.00  0.00    +0.000 A 
ATOM      4  C   UNL     1       7.297   4.701  17.761  0.00  0.00    +0.000 A 
ATOM      5  N   UNL     1       7.610   4.684  16.461  0.00  0.00    +0.000 NA
ATOM      6  N   UNL     1       6.454   4.332  15.865  0.00  0.00    +0.000 N 
ATOM      7  C   UNL     1       6.396   4.166  14.435  0.00  0.00    +0.000 C 
ATOM      8  C   UNL     1       5.422   4.142  16.742  0.00  0.00    +0.000 A 
ENDBRANCH   1   3
BRANCH   1  10
ATOM      9  C   UNL     1       4.463   2.164  20.121  0.00  0.00    +0.000 C 
ATOM     10  C   UNL     1       4.098   3.435  19.341  0.00  0.00    +0.000 C 
BRANCH  10  11
ATOM     11  C   UNL     1       3.046   4.298  20.038  0.00  0.00    +0.000 C 
BRANCH  11  12
ATOM     12  C   UNL     1       1.634   4.037  19.563  0.00  0.00    +0.000 C 
ATOM     13  F   UNL     1       1.381   4.531  18.334  0.00  0.00    +0.000 F 
ATOM     14  F   UNL     1       1.380   2.709  19.530  0.00  0.00    +0.000 F 
ATOM     15  F   UNL     1       0.735   4.594  20.408  0.00  0.00    +0.000 F 
ENDBRANCH  11  12
ENDBRANCH  10  11
ENDBRANCH   1  10
TORSDOF 4
ENDMDL
MODEL 7
REMARK VINA RESULT:      -5.6      0.852      1.331
REMARK  Name = 
REMARK  6 active torsions:
REMARK  status: ('A' for Active; 'I' for Inactive)
REMARK    1  A    between atoms: C_1  and  C_2
REMARK    2  A    between atoms: C_2  and  C_3
REMARK    3  A    between atoms: C_2  and  N_8
REMARK    4  A    between atoms: C_3  and  C_4
REMARK    5  A    between atoms: N_8  and  C_9
REMARK    6  A    between atoms: N_12  and  C_13
REMARK                            x       y       z     vdW  Elec       q    Type
REMARK                         _______ _______ _______ _____ _____    ______ ____
ROOT
ATOM      1  N   UNL     1       5.710   3.792  18.709  0.00  0.00    +0.000 N 
ATOM      2  H   UNL     1       6.451   3.776  19.409  0.00  0.00    +0.000 HD
ENDROOT
BRANCH   1   3
ATOM      3  C   UNL     1       4.448   3.569  19.150  0.00  0.00    +0.000 A 
ATOM      4  C   UNL     1       3.786   2.328  19.262  0.00  0.00    +0.000 A 
ATOM      5  N   UNL     1       2.550   2.457  19.758  0.00  0.00    +0.000 NA
ATOM      6  N   UNL     1       2.424   3.785  19.944  0.00  0.00    +0.000 N 
ATOM      7  C   UNL     1       1.217   4.326  20.514  0.00  0.00    +0.000 C 
ATOM      8  C   UNL     1       3.530   4.497  19.568  0.00  0.00    +0.000 A 
ENDBRANCH   1   3
BRANCH   1  10
ATOM      9  C   UNL     1       7.411   5.269  17.792  0.00  0.00    +0.000 C 
ATOM     10  C   UNL     1       5.985   4.731  17.610  0.00  0.00    +0.000 C 
BRANCH  10  11
ATOM     11  C   UNL     1       5.776   3.992  16.289  0.00  0.00    +0.000 C 
BRANCH  11  12
ATOM     12  C   UNL     1       5.781   4.899  15.078  0.00  0.00    +0.000 C 
ATOM     13  F   UNL     1       7.018   5.173  14.618  0.00  0.00    +0.000 F 
ATOM     14  F   UNL     1       5.081   4.342  14.063  0.00  0.00    +0.000 F 
ATOM     15  F   UNL     1       5.192   6.084  15.366  0.00  0.00    +0.000 F 
ENDBRANCH  11  12
ENDBRANCH  10  11
ENDBRANCH   1  10
TORSDOF 4
ENDMDL
MODEL 8
REMARK VINA RESULT:      -5.6      0.878      1.710
REMARK  Name = 
REMARK  6 active torsions:
REMARK  status: ('A' for Active; 'I' for Inactive)
REMARK    1  A    between atoms: C_1  and  C_2
REMARK    2  A    between atoms: C_2  and  C_3
REMARK    3  A    between atoms: C_2  and  N_8
REMARK    4  A    between atoms: C_3  and  C_4
REMARK    5  A    between atoms: N_8  and  C_9
REMARK    6  A    between atoms: N_12  and  C_13
REMARK                            x       y       z     vdW  Elec       q    Type
REMARK                         _______ _______ _______ _____ _____    ______ ____
ROOT
ATOM      1  N   UNL     1       5.932   3.828  18.420  0.00  0.00    +0.000 N 
ATOM      2  H   UNL     1       6.743   3.405  18.871  0.00  0.00    +0.000 HD
ENDROOT
BRANCH   1   3
ATOM      3  C   UNL     1       4.795   3.900  19.152  0.00  0.00    +0.000 A 
ATOM      4  C   UNL     1       4.030   5.051  19.437  0.00  0.00    +0.000 A 
ATOM      5  N   UNL     1       2.946   4.770  20.169  0.00  0.00    +0.000 NA
ATOM      6  N   UNL     1       3.035   3.441  20.363  0.00  0.00    +0.000 N 
ATOM      7  C   UNL     1       2.007   2.743  21.092  0.00  0.00    +0.000 C 
ATOM      8  C   UNL     1       4.144   2.877  19.793  0.00  0.00    +0.000 A 
ENDBRANCH   1   3
BRANCH   1  10
ATOM      9  C   UNL     1       7.470   5.679  18.064  0.00  0.00    +0.000 C 
ATOM     10  C   UNL     1       6.299   4.888  17.466  0.00  0.00    +0.000 C 
BRANCH  10  11
ATOM     11  C   UNL     1       6.629   4.228  16.127  0.00  0.00    +0.000 C 
BRANCH  11  12
ATOM     12  C   UNL     1       6.031   4.942  14.934  0.00  0.00    +0.000 C 
ATOM     13  F   UNL     1       6.938   5.256  13.987  0.00  0.00    +0.000 F 
ATOM     14  F   UNL     1       5.079   4.179  14.352  0.00  0.00    +0.000 F 
ATOM     15  F   UNL     1       5.438   6.097  15.317  0.00  0.00    +0.000 F 
ENDBRANCH  11  12
ENDBRANCH  10  11
ENDBRANCH   1  10
TORSDOF 4
ENDMDL
MODEL 9
REMARK VINA RESULT:      -5.6      2.794      4.996
REMARK  Name = 
REMARK  6 active torsions:
REMARK  status: ('A' for Active; 'I' for Inactive)
REMARK    1  A    between atoms: C_1  and  C_2
REMARK    2  A    between atoms: C_2  and  C_3
REMARK    3  A    between atoms: C_2  and  N_8
REMARK    4  A    between atoms: C_3  and  C_4
REMARK    5  A    between atoms: N_8  and  C_9
REMARK    6  A    between atoms: N_12  and  C_13
REMARK                            x       y       z     vdW  Elec       q    Type
REMARK                         _______ _______ _______ _____ _____    ______ ____
ROOT
ATOM      1  N   UNL     1       5.379   3.594  18.812  0.00  0.00    +0.000 N 
ATOM      2  H   UNL     1       5.824   2.690  18.969  0.00  0.00    +0.000 HD
ENDROOT
BRANCH   1   3
ATOM      3  C   UNL     1       6.117   4.535  18.174  0.00  0.00    +0.000 A 
ATOM      4  C   UNL     1       6.701   4.442  16.893  0.00  0.00    +0.000 A 
ATOM      5  N   UNL     1       7.345   5.562  16.548  0.00  0.00    +0.000 NA
ATOM      6  N   UNL     1       7.183   6.359  17.621  0.00  0.00    +0.000 N 
ATOM      7  C   UNL     1       7.714   7.699  17.617  0.00  0.00    +0.000 C 
ATOM      8  C   UNL     1       6.474   5.776  18.634  0.00  0.00    +0.000 A 
ENDBRANCH   1   3
BRANCH   1  10
ATOM      9  C   UNL     1       3.636   2.106  17.997  0.00  0.00    +0.000 C 
ATOM     10  C   UNL     1       3.926   3.486  18.604  0.00  0.00    +0.000 C 
BRANCH  10  11
ATOM     11  C   UNL     1       3.235   3.720  19.947  0.00  0.00    +0.000 C 
BRANCH  11  12
ATOM     12  C   UNL     1       1.936   4.488  19.836  0.00  0.00    +0.000 C 
ATOM     13  F   UNL     1       0.928   3.942  20.545  0.00  0.00    +0.000 F 
ATOM     14  F   UNL     1       2.097   5.759  20.267  0.00  0.00    +0.000 F 
ATOM     15  F   UNL     1       1.527   4.551  18.547  0.00  0.00    +0.000 F 
ENDBRANCH  11  12
ENDBRANCH  10  11
ENDBRANCH   1  10
TORSDOF 4
ENDMDL
