MODEL 1
REMARK VINA RESULT:      -7.6      0.000      0.000
REMARK  Name = 
REMARK  7 active torsions:
REMARK  status: ('A' for Active; 'I' for Inactive)
REMARK    1  A    between atoms: C_1  and  O_2
REMARK    2  A    between atoms: O_2  and  C_3
REMARK    3  A    between atoms: C_8  and  C_9
REMARK    4  A    between atoms: C_13  and  C_14
REMARK    5  A    between atoms: C_14  and  C_15
REMARK    6  A    between atoms: C_15  and  N_16
REMARK    7  A    between atoms: C_17  and  C_18
REMARK                            x       y       z     vdW  Elec       q    Type
REMARK                         _______ _______ _______ _____ _____    ______ ____
ROOT
ATOM      1  C   UNL     1       2.290   3.909  20.029  0.00  0.00    +0.000 A 
ATOM      2  C   UNL     1       1.584   3.498  18.907  0.00  0.00    +0.000 A 
ATOM      3  C   UNL     1       2.177   3.606  17.643  0.00  0.00    +0.000 A 
ATOM      4  C   UNL     1       3.459   4.114  17.460  0.00  0.00    +0.000 A 
ATOM      5  N   UNL     1       3.917   4.209  16.207  0.00  0.00    +0.000 NA
ATOM      6  C   UNL     1       5.149   4.706  16.022  0.00  0.00    +0.000 A 
ATOM      7  N   UNL     1       5.954   5.055  17.039  0.00  0.00    +0.000 NA
ATOM      8  C   UNL     1       5.493   4.987  18.305  0.00  0.00    +0.000 A 
ATOM      9  C   UNL     1       4.196   4.515  18.588  0.00  0.00    +0.000 A 
ATOM     10  C   UNL     1       3.584   4.421  19.869  0.00  0.00    +0.000 A 
ENDROOT
BRANCH   6  11
ATOM     11  C   UNL     1       5.686   4.954  14.634  0.00  0.00    +0.000 C 
ATOM     12  C   UNL     1       7.132   4.789  14.239  0.00  0.00    +0.000 C 
ATOM     13  C   UNL     1       6.140   3.732  13.856  0.00  0.00    +0.000 C 
ENDBRANCH   6  11
BRANCH   1  15
ATOM     14  C   UNL     1       1.447   2.636  21.847  0.00  0.00    +0.000 C 
ATOM     15  O   UNL     1       1.811   3.905  21.311  0.00  0.00    +0.000 OA
ENDBRANCH   1  15
BRANCH   8  16
ATOM     16  C   UNL     1       6.510   5.385  19.361  0.00  0.00    +0.000 C 
BRANCH  16  17
ATOM     17  C   UNL     1       7.857   5.819  18.737  0.00  0.00    +0.000 C 
BRANCH  17  18
ATOM     18  N   UNL     1       8.240   7.212  18.965  0.00  0.00    +0.000 N 
ATOM     19  C   UNL     1       8.070   8.169  17.993  0.00  0.00    +0.000 C 
ATOM     20  C   UNL     1       8.697   9.507  18.291  0.00  0.00    +0.000 C 
ATOM     21  O   UNL     1       7.443   7.971  16.952  0.00  0.00    +0.000 OA
ATOM     22  H   UNL     1       8.968   7.372  19.653  0.00  0.00    +0.000 HD
ENDBRANCH  17  18
ENDBRANCH  16  17
ENDBRANCH   8  16
TORSDOF 5
ENDMDL
MODEL 2
REMARK VINA RESULT:      -7.2      3.616      6.401
REMARK  Name = 
REMARK  7 active torsions:
REMARK  status: ('A' for Active; 'I' for Inactive)
REMARK    1  A    between atoms: C_1  and  O_2
REMARK    2  A    between atoms: O_2  and  C_3
REMARK    3  A    between atoms: C_8  and  C_9
REMARK    4  A    between atoms: C_13  and  C_14
REMARK    5  A    between atoms: C_14  and  C_15
REMARK    6  A    between atoms: C_15  and  N_16
REMARK    7  A    between atoms: C_17  and  C_18
REMARK                            x       y       z     vdW  Elec       q    Type
REMARK                         _______ _______ _______ _____ _____    ______ ____
ROOT
ATOM      1  C   UNL     1       5.672   5.282  15.713  0.00  0.00    +0.000 A 
ATOM      2  C   UNL     1       5.527   3.940  16.034  0.00  0.00    +0.000 A 
ATOM      3  C   UNL     1       4.611   3.565  17.025  0.00  0.00    +0.000 A 
ATOM      4  C   UNL     1       3.830   4.490  17.709  0.00  0.00    +0.000 A 
ATOM      5  N   UNL     1       3.013   4.029  18.663  0.00  0.00    +0.000 NA
ATOM      6  C   UNL     1       2.263   4.916  19.333  0.00  0.00    +0.000 A 
ATOM      7  N   UNL     1       2.257   6.229  19.048  0.00  0.00    +0.000 NA
ATOM      8  C   UNL     1       3.096   6.707  18.105  0.00  0.00    +0.000 A 
ATOM      9  C   UNL     1       3.948   5.851  17.380  0.00  0.00    +0.000 A 
ATOM     10  C   UNL     1       4.893   6.232  16.388  0.00  0.00    +0.000 A 
ENDROOT
BRANCH   6  11
ATOM     11  C   UNL     1       1.408   4.486  20.500  0.00  0.00    +0.000 C 
ATOM     12  C   UNL     1       0.981   3.063  20.763  0.00  0.00    +0.000 C 
ATOM     13  C   UNL     1       2.094   3.657  21.572  0.00  0.00    +0.000 C 
ENDBRANCH   6  11
BRANCH   1  15
ATOM     14  C   UNL     1       7.187   4.844  13.938  0.00  0.00    +0.000 C 
ATOM     15  O   UNL     1       6.563   5.787  14.806  0.00  0.00    +0.000 OA
ENDBRANCH   1  15
BRANCH   8  16
ATOM     16  C   UNL     1       2.972   8.202  17.863  0.00  0.00    +0.000 C 
BRANCH  16  17
ATOM     17  C   UNL     1       1.559   8.731  18.198  0.00  0.00    +0.000 C 
BRANCH  17  18
ATOM     18  N   UNL     1       1.307   9.012  19.611  0.00  0.00    +0.000 N 
ATOM     19  C   UNL     1       0.377   9.947  20.001  0.00  0.00    +0.000 C 
ATOM     20  C   UNL     1       0.373  10.278  21.471  0.00  0.00    +0.000 C 
ATOM     21  O   UNL     1      -0.413  10.480  19.220  0.00  0.00    +0.000 OA
ATOM     22  H   UNL     1       2.069   8.820  20.251  0.00  0.00    +0.000 HD
ENDBRANCH  17  18
ENDBRANCH  16  17
ENDBRANCH   8  16
TORSDOF 5
ENDMDL
MODEL 3
REMARK VINA RESULT:      -7.2      3.721      6.571
REMARK  Name = 
REMARK  7 active torsions:
REMARK  status: ('A' for Active; 'I' for Inactive)
REMARK    1  A    between atoms: C_1  and  O_2
REMARK    2  A    between atoms: O_2  and  C_3
REMARK    3  A    between atoms: C_8  and  C_9
REMARK    4  A    between atoms: C_13  and  C_14
REMARK    5  A    between atoms: C_14  and  C_15
REMARK    6  A    between atoms: C_15  and  N_16
REMARK    7  A    between atoms: C_17  and  C_18
REMARK                            x       y       z     vdW  Elec       q    Type
REMARK                         _______ _______ _______ _____ _____    ______ ____
ROOT
ATOM      1  C   UNL     1       5.623   5.324  15.669  0.00  0.00    +0.000 A 
ATOM      2  C   UNL     1       5.503   3.984  16.012  0.00  0.00    +0.000 A 
ATOM      3  C   UNL     1       4.608   3.611  17.023  0.00  0.00    +0.000 A 
ATOM      4  C   UNL     1       3.825   4.535  17.707  0.00  0.00    +0.000 A 
ATOM      5  N   UNL     1       3.030   4.078  18.680  0.00  0.00    +0.000 NA
ATOM      6  C   UNL     1       2.279   4.964  19.350  0.00  0.00    +0.000 A 
ATOM      7  N   UNL     1       2.249   6.271  19.046  0.00  0.00    +0.000 NA
ATOM      8  C   UNL     1       3.066   6.747  18.082  0.00  0.00    +0.000 A 
ATOM      9  C   UNL     1       3.918   5.893  17.356  0.00  0.00    +0.000 A 
ATOM     10  C   UNL     1       4.841   6.272  16.342  0.00  0.00    +0.000 A 
ENDROOT
BRANCH   6  11
ATOM     11  C   UNL     1       1.450   4.539  20.537  0.00  0.00    +0.000 C 
ATOM     12  C   UNL     1       1.000   3.123  20.798  0.00  0.00    +0.000 C 
ATOM     13  C   UNL     1       2.148   3.685  21.580  0.00  0.00    +0.000 C 
ENDBRANCH   6  11
BRANCH   1  15
ATOM     14  C   UNL     1       7.220   4.874  13.970  0.00  0.00    +0.000 C 
ATOM     15  O   UNL     1       6.492   5.827  14.739  0.00  0.00    +0.000 OA
ENDBRANCH   1  15
BRANCH   8  16
ATOM     16  C   UNL     1       2.916   8.236  17.820  0.00  0.00    +0.000 C 
BRANCH  16  17
ATOM     17  C   UNL     1       1.797   8.870  18.678  0.00  0.00    +0.000 C 
BRANCH  17  18
ATOM     18  N   UNL     1       0.755   9.578  17.937  0.00  0.00    +0.000 N 
ATOM     19  C   UNL     1      -0.370  10.059  18.565  0.00  0.00    +0.000 C 
ATOM     20  C   UNL     1      -1.447  10.579  17.648  0.00  0.00    +0.000 C 
ATOM     21  O   UNL     1      -0.502  10.082  19.790  0.00  0.00    +0.000 OA
ATOM     22  H   UNL     1       0.679   9.362  16.949  0.00  0.00    +0.000 HD
ENDBRANCH  17  18
ENDBRANCH  16  17
ENDBRANCH   8  16
TORSDOF 5
ENDMDL
MODEL 4
REMARK VINA RESULT:      -7.1      3.259      5.067
REMARK  Name = 
REMARK  7 active torsions:
REMARK  status: ('A' for Active; 'I' for Inactive)
REMARK    1  A    between atoms: C_1  and  O_2
REMARK    2  A    between atoms: O_2  and  C_3
REMARK    3  A    between atoms: C_8  and  C_9
REMARK    4  A    between atoms: C_13  and  C_14
REMARK    5  A    between atoms: C_14  and  C_15
REMARK    6  A    between atoms: C_15  and  N_16
REMARK    7  A    between atoms: C_17  and  C_18
REMARK                            x       y       z     vdW  Elec       q    Type
REMARK                         _______ _______ _______ _____ _____    ______ ____
ROOT
ATOM      1  C   UNL     1       2.166   9.128  18.289  0.00  0.00    +0.000 A 
ATOM      2  C   UNL     1       1.550   8.939  19.518  0.00  0.00    +0.000 A 
ATOM      3  C   UNL     1       1.664   7.700  20.161  0.00  0.00    +0.000 A 
ATOM      4  C   UNL     1       2.375   6.637  19.614  0.00  0.00    +0.000 A 
ATOM      5  N   UNL     1       2.390   5.484  20.293  0.00  0.00    +0.000 NA
ATOM      6  C   UNL     1       3.067   4.452  19.768  0.00  0.00    +0.000 A 
ATOM      7  N   UNL     1       3.771   4.546  18.628  0.00  0.00    +0.000 NA
ATOM      8  C   UNL     1       3.742   5.697  17.923  0.00  0.00    +0.000 A 
ATOM      9  C   UNL     1       3.023   6.819  18.381  0.00  0.00    +0.000 A 
ATOM     10  C   UNL     1       2.890   8.072  17.720  0.00  0.00    +0.000 A 
ENDROOT
BRANCH   6  11
ATOM     11  C   UNL     1       3.030   3.090  20.415  0.00  0.00    +0.000 C 
ATOM     12  C   UNL     1       2.244   2.760  21.660  0.00  0.00    +0.000 C 
ATOM     13  C   UNL     1       1.717   2.332  20.324  0.00  0.00    +0.000 C 
ENDBRANCH   6  11
BRANCH   1  15
ATOM     14  C   UNL     1       2.089  11.501  18.246  0.00  0.00    +0.000 C 
ATOM     15  O   UNL     1       2.092  10.267  17.534  0.00  0.00    +0.000 OA
ENDBRANCH   1  15
BRANCH   8  16
ATOM     16  C   UNL     1       4.599   5.679  16.669  0.00  0.00    +0.000 C 
BRANCH  16  17
ATOM     17  C   UNL     1       6.110   5.697  16.996  0.00  0.00    +0.000 C 
BRANCH  17  18
ATOM     18  N   UNL     1       6.757   7.007  16.930  0.00  0.00    +0.000 N 
ATOM     19  C   UNL     1       7.653   7.412  17.891  0.00  0.00    +0.000 C 
ATOM     20  C   UNL     1       8.078   8.856  17.808  0.00  0.00    +0.000 C 
ATOM     21  O   UNL     1       8.098   6.660  18.760  0.00  0.00    +0.000 OA
ATOM     22  H   UNL     1       6.257   7.731  16.427  0.00  0.00    +0.000 HD
ENDBRANCH  17  18
ENDBRANCH  16  17
ENDBRANCH   8  16
TORSDOF 5
ENDMDL
MODEL 5
REMARK VINA RESULT:      -7.1      3.350      5.666
REMARK  Name = 
REMARK  7 active torsions:
REMARK  status: ('A' for Active; 'I' for Inactive)
REMARK    1  A    between atoms: C_1  and  O_2
REMARK    2  A    between atoms: O_2  and  C_3
REMARK    3  A    between atoms: C_8  and  C_9
REMARK    4  A    between atoms: C_13  and  C_14
REMARK    5  A    between atoms: C_14  and  C_15
REMARK    6  A    between atoms: C_15  and  N_16
REMARK    7  A    between atoms: C_17  and  C_18
REMARK                            x       y       z     vdW  Elec       q    Type
REMARK                         _______ _______ _______ _____ _____    ______ ____
ROOT
ATOM      1  C   UNL     1       2.118   9.213  18.359  0.00  0.00    +0.000 A 
ATOM      2  C   UNL     1       1.462   9.015  19.566  0.00  0.00    +0.000 A 
ATOM      3  C   UNL     1       1.560   7.772  20.205  0.00  0.00    +0.000 A 
ATOM      4  C   UNL     1       2.295   6.716  19.677  0.00  0.00    +0.000 A 
ATOM      5  N   UNL     1       2.292   5.559  20.349  0.00  0.00    +0.000 NA
ATOM      6  C   UNL     1       2.991   4.534  19.842  0.00  0.00    +0.000 A 
ATOM      7  N   UNL     1       3.733   4.638  18.727  0.00  0.00    +0.000 NA
ATOM      8  C   UNL     1       3.722   5.792  18.028  0.00  0.00    +0.000 A 
ATOM      9  C   UNL     1       2.983   6.908  18.467  0.00  0.00    +0.000 A 
ATOM     10  C   UNL     1       2.867   8.164  17.810  0.00  0.00    +0.000 A 
ENDROOT
BRANCH   6  11
ATOM     11  C   UNL     1       2.938   3.167  20.480  0.00  0.00    +0.000 C 
ATOM     12  C   UNL     1       2.021   2.794  21.618  0.00  0.00    +0.000 C 
ATOM     13  C   UNL     1       1.683   2.350  20.227  0.00  0.00    +0.000 C 
ENDBRANCH   6  11
BRANCH   1  15
ATOM     14  C   UNL     1       2.018  11.586  18.328  0.00  0.00    +0.000 C 
ATOM     15  O   UNL     1       2.065  10.356  17.609  0.00  0.00    +0.000 OA
ENDBRANCH   1  15
BRANCH   8  16
ATOM     16  C   UNL     1       4.622   5.786  16.804  0.00  0.00    +0.000 C 
BRANCH  16  17
ATOM     17  C   UNL     1       5.506   4.519  16.737  0.00  0.00    +0.000 C 
BRANCH  17  18
ATOM     18  N   UNL     1       5.657   3.922  15.411  0.00  0.00    +0.000 N 
ATOM     19  C   UNL     1       6.572   4.407  14.507  0.00  0.00    +0.000 C 
ATOM     20  C   UNL     1       6.471   3.832  13.117  0.00  0.00    +0.000 C 
ATOM     21  O   UNL     1       7.427   5.245  14.794  0.00  0.00    +0.000 OA
ATOM     22  H   UNL     1       4.845   3.441  15.039  0.00  0.00    +0.000 HD
ENDBRANCH  17  18
ENDBRANCH  16  17
ENDBRANCH   8  16
TORSDOF 5
ENDMDL
MODEL 6
REMARK VINA RESULT:      -7.1      3.435      6.197
REMARK  Name = 
REMARK  7 active torsions:
REMARK  status: ('A' for Active; 'I' for Inactive)
REMARK    1  A    between atoms: C_1  and  O_2
REMARK    2  A    between atoms: O_2  and  C_3
REMARK    3  A    between atoms: C_8  and  C_9
REMARK    4  A    between atoms: C_13  and  C_14
REMARK    5  A    between atoms: C_14  and  C_15
REMARK    6  A    between atoms: C_15  and  N_16
REMARK    7  A    between atoms: C_17  and  C_18
REMARK                            x       y       z     vdW  Elec       q    Type
REMARK                         _______ _______ _______ _____ _____    ______ ____
ROOT
ATOM      1  C   UNL     1       6.763   6.284  16.808  0.00  0.00    +0.000 A 
ATOM      2  C   UNL     1       6.826   4.915  16.589  0.00  0.00    +0.000 A 
ATOM      3  C   UNL     1       5.691   4.128  16.821  0.00  0.00    +0.000 A 
ATOM      4  C   UNL     1       4.488   4.665  17.267  0.00  0.00    +0.000 A 
ATOM      5  N   UNL     1       3.475   3.821  17.493  0.00  0.00    +0.000 NA
ATOM      6  C   UNL     1       2.315   4.330  17.932  0.00  0.00    +0.000 A 
ATOM      7  N   UNL     1       2.114   5.648  18.096  0.00  0.00    +0.000 NA
ATOM      8  C   UNL     1       3.136   6.506  17.894  0.00  0.00    +0.000 A 
ATOM      9  C   UNL     1       4.401   6.053  17.472  0.00  0.00    +0.000 A 
ATOM     10  C   UNL     1       5.561   6.847  17.254  0.00  0.00    +0.000 A 
ENDROOT
BRANCH   6  11
ATOM     11  C   UNL     1       1.169   3.429  18.321  0.00  0.00    +0.000 C 
ATOM     12  C   UNL     1       1.333   2.058  18.927  0.00  0.00    +0.000 C 
ATOM     13  C   UNL     1       0.957   3.210  19.808  0.00  0.00    +0.000 C 
ENDBRANCH   6  11
BRANCH   1  15
ATOM     14  C   UNL     1       7.881   8.215  17.620  0.00  0.00    +0.000 C 
ATOM     15  O   UNL     1       7.808   7.156  16.669  0.00  0.00    +0.000 OA
ENDBRANCH   1  15
BRANCH   8  16
ATOM     16  C   UNL     1       2.768   7.968  18.089  0.00  0.00    +0.000 C 
BRANCH  16  17
ATOM     17  C   UNL     1       1.909   8.189  19.356  0.00  0.00    +0.000 C 
BRANCH  17  18
ATOM     18  N   UNL     1       1.038   9.363  19.332  0.00  0.00    +0.000 N 
ATOM     19  C   UNL     1       0.584   9.941  20.494  0.00  0.00    +0.000 C 
ATOM     20  C   UNL     1      -0.465  11.008  20.315  0.00  0.00    +0.000 C 
ATOM     21  O   UNL     1       1.001   9.631  21.611  0.00  0.00    +0.000 OA
ATOM     22  H   UNL     1       0.473   9.489  18.499  0.00  0.00    +0.000 HD
ENDBRANCH  17  18
ENDBRANCH  16  17
ENDBRANCH   8  16
TORSDOF 5
ENDMDL
MODEL 7
REMARK VINA RESULT:      -7.0      3.305      6.272
REMARK  Name = 
REMARK  7 active torsions:
REMARK  status: ('A' for Active; 'I' for Inactive)
REMARK    1  A    between atoms: C_1  and  O_2
REMARK    2  A    between atoms: O_2  and  C_3
REMARK    3  A    between atoms: C_8  and  C_9
REMARK    4  A    between atoms: C_13  and  C_14
REMARK    5  A    between atoms: C_14  and  C_15
REMARK    6  A    between atoms: C_15  and  N_16
REMARK    7  A    between atoms: C_17  and  C_18
REMARK                            x       y       z     vdW  Elec       q    Type
REMARK                         _______ _______ _______ _____ _____    ______ ____
ROOT
ATOM      1  C   UNL     1       6.834   6.543  17.241  0.00  0.00    +0.000 A 
ATOM      2  C   UNL     1       6.998   5.199  17.544  0.00  0.00    +0.000 A 
ATOM      3  C   UNL     1       5.894   4.452  17.975  0.00  0.00    +0.000 A 
ATOM      4  C   UNL     1       4.626   5.005  18.115  0.00  0.00    +0.000 A 
ATOM      5  N   UNL     1       3.649   4.212  18.569  0.00  0.00    +0.000 NA
ATOM      6  C   UNL     1       2.425   4.740  18.714  0.00  0.00    +0.000 A 
ATOM      7  N   UNL     1       2.131   6.005  18.370  0.00  0.00    +0.000 NA
ATOM      8  C   UNL     1       3.114   6.820  17.934  0.00  0.00    +0.000 A 
ATOM      9  C   UNL     1       4.438   6.359  17.790  0.00  0.00    +0.000 A 
ATOM     10  C   UNL     1       5.564   7.121  17.370  0.00  0.00    +0.000 A 
ENDROOT
BRANCH   6  11
ATOM     11  C   UNL     1       1.303   3.943  19.333  0.00  0.00    +0.000 C 
ATOM     12  C   UNL     1       1.454   2.545  19.880  0.00  0.00    +0.000 C 
ATOM     13  C   UNL     1       1.389   3.702  20.830  0.00  0.00    +0.000 C 
ENDBRANCH   6  11
BRANCH   1  15
ATOM     14  C   UNL     1       8.040   8.541  17.683  0.00  0.00    +0.000 C 
ATOM     15  O   UNL     1       7.834   7.396  16.859  0.00  0.00    +0.000 OA
ENDBRANCH   1  15
BRANCH   8  16
ATOM     16  C   UNL     1       2.645   8.214  17.554  0.00  0.00    +0.000 C 
BRANCH  16  17
ATOM     17  C   UNL     1       1.461   8.688  18.428  0.00  0.00    +0.000 C 
BRANCH  17  18
ATOM     18  N   UNL     1       1.615   8.484  19.868  0.00  0.00    +0.000 N 
ATOM     19  C   UNL     1       0.892   9.219  20.777  0.00  0.00    +0.000 C 
ATOM     20  C   UNL     1       1.304   9.049  22.217  0.00  0.00    +0.000 C 
ATOM     21  O   UNL     1      -0.038   9.962  20.458  0.00  0.00    +0.000 OA
ATOM     22  H   UNL     1       2.506   8.109  20.177  0.00  0.00    +0.000 HD
ENDBRANCH  17  18
ENDBRANCH  16  17
ENDBRANCH   8  16
TORSDOF 5
ENDMDL
MODEL 8
REMARK VINA RESULT:      -6.9      3.754      6.184
REMARK  Name = 
REMARK  7 active torsions:
REMARK  status: ('A' for Active; 'I' for Inactive)
REMARK    1  A    between atoms: C_1  and  O_2
REMARK    2  A    between atoms: O_2  and  C_3
REMARK    3  A    between atoms: C_8  and  C_9
REMARK    4  A    between atoms: C_13  and  C_14
REMARK    5  A    between atoms: C_14  and  C_15
REMARK    6  A    between atoms: C_15  and  N_16
REMARK    7  A    between atoms: C_17  and  C_18
REMARK                            x       y       z     vdW  Elec       q    Type
REMARK                         _______ _______ _______ _____ _____    ______ ____
ROOT
ATOM      1  C   UNL     1       6.835   6.289  16.908  0.00  0.00    +0.000 A 
ATOM      2  C   UNL     1       6.875   4.909  16.765  0.00  0.00    +0.000 A 
ATOM      3  C   UNL     1       5.715   4.160  16.997  0.00  0.00    +0.000 A 
ATOM      4  C   UNL     1       4.509   4.745  17.369  0.00  0.00    +0.000 A 
ATOM      5  N   UNL     1       3.471   3.935  17.603  0.00  0.00    +0.000 NA
ATOM      6  C   UNL     1       2.307   4.491  17.970  0.00  0.00    +0.000 A 
ATOM      7  N   UNL     1       2.130   5.820  18.056  0.00  0.00    +0.000 NA
ATOM      8  C   UNL     1       3.177   6.645  17.848  0.00  0.00    +0.000 A 
ATOM      9  C   UNL     1       4.446   6.143  17.497  0.00  0.00    +0.000 A 
ATOM     10  C   UNL     1       5.631   6.900  17.279  0.00  0.00    +0.000 A 
ENDROOT
BRANCH   6  11
ATOM     11  C   UNL     1       1.128   3.637  18.365  0.00  0.00    +0.000 C 
ATOM     12  C   UNL     1       1.232   2.203  18.822  0.00  0.00    +0.000 C 
ATOM     13  C   UNL     1       1.011   3.283  19.837  0.00  0.00    +0.000 C 
ENDBRANCH   6  11
BRANCH   1  15
ATOM     14  C   UNL     1       7.953   8.253  17.639  0.00  0.00    +0.000 C 
ATOM     15  O   UNL     1       7.904   7.131  16.762  0.00  0.00    +0.000 OA
ENDBRANCH   1  15
BRANCH   8  16
ATOM     16  C   UNL     1       2.837   8.122  17.951  0.00  0.00    +0.000 C 
BRANCH  16  17
ATOM     17  C   UNL     1       1.582   8.371  18.820  0.00  0.00    +0.000 C 
BRANCH  17  18
ATOM     18  N   UNL     1       1.310   9.769  19.152  0.00  0.00    +0.000 N 
ATOM     19  C   UNL     1       0.267  10.452  18.572  0.00  0.00    +0.000 C 
ATOM     20  C   UNL     1       0.235  11.933  18.849  0.00  0.00    +0.000 C 
ATOM     21  O   UNL     1      -0.596   9.909  17.881  0.00  0.00    +0.000 OA
ATOM     22  H   UNL     1       2.098  10.316  19.481  0.00  0.00    +0.000 HD
ENDBRANCH  17  18
ENDBRANCH  16  17
ENDBRANCH   8  16
TORSDOF 5
ENDMDL
MODEL 9
REMARK VINA RESULT:      -6.9      2.406      6.538
REMARK  Name = 
REMARK  7 active torsions:
REMARK  status: ('A' for Active; 'I' for Inactive)
REMARK    1  A    between atoms: C_1  and  O_2
REMARK    2  A    between atoms: O_2  and  C_3
REMARK    3  A    between atoms: C_8  and  C_9
REMARK    4  A    between atoms: C_13  and  C_14
REMARK    5  A    between atoms: C_14  and  C_15
REMARK    6  A    between atoms: C_15  and  N_16
REMARK    7  A    between atoms: C_17  and  C_18
REMARK                            x       y       z     vdW  Elec       q    Type
REMARK                         _______ _______ _______ _____ _____    ______ ____
ROOT
ATOM      1  C   UNL     1       5.903   3.437  12.550  0.00  0.00    +0.000 A 
ATOM      2  C   UNL     1       7.067   4.168  12.360  0.00  0.00    +0.000 A 
ATOM      3  C   UNL     1       7.565   4.952  13.408  0.00  0.00    +0.000 A 
ATOM      4  C   UNL     1       6.936   5.032  14.646  0.00  0.00    +0.000 A 
ATOM      5  N   UNL     1       7.474   5.840  15.566  0.00  0.00    +0.000 NA
ATOM      6  C   UNL     1       6.869   5.929  16.759  0.00  0.00    +0.000 A 
ATOM      7  N   UNL     1       5.787   5.202  17.083  0.00  0.00    +0.000 NA
ATOM      8  C   UNL     1       5.222   4.403  16.154  0.00  0.00    +0.000 A 
ATOM      9  C   UNL     1       5.769   4.280  14.862  0.00  0.00    +0.000 A 
ATOM     10  C   UNL     1       5.254   3.499  13.790  0.00  0.00    +0.000 A 
ENDROOT
BRANCH   6  11
ATOM     11  C   UNL     1       7.348   6.908  17.803  0.00  0.00    +0.000 C 
ATOM     12  C   UNL     1       8.236   8.093  17.514  0.00  0.00    +0.000 C 
ATOM     13  C   UNL     1       6.769   8.309  17.733  0.00  0.00    +0.000 C 
ENDBRANCH   6  11
BRANCH   1  15
ATOM     14  C   UNL     1       4.021   3.140  11.133  0.00  0.00    +0.000 C 
ATOM     15  O   UNL     1       5.284   2.674  11.597  0.00  0.00    +0.000 OA
ENDBRANCH   1  15
BRANCH   8  16
ATOM     16  C   UNL     1       4.022   3.618  16.656  0.00  0.00    +0.000 C 
BRANCH  16  17
ATOM     17  C   UNL     1       4.156   3.238  18.149  0.00  0.00    +0.000 C 
BRANCH  17  18
ATOM     18  N   UNL     1       3.223   3.903  19.058  0.00  0.00    +0.000 N 
ATOM     19  C   UNL     1       2.101   3.260  19.527  0.00  0.00    +0.000 C 
ATOM     20  C   UNL     1       1.130   4.131  20.282  0.00  0.00    +0.000 C 
ATOM     21  O   UNL     1       1.892   2.058  19.362  0.00  0.00    +0.000 OA
ATOM     22  H   UNL     1       3.194   4.915  19.012  0.00  0.00    +0.000 HD
ENDBRANCH  17  18
ENDBRANCH  16  17
ENDBRANCH   8  16
TORSDOF 5
ENDMDL
