MODEL 1
REMARK VINA RESULT:      -8.4      0.000      0.000
REMARK  Name = 
REMARK  6 active torsions:
REMARK  status: ('A' for Active; 'I' for Inactive)
REMARK    1  A    between atoms: C_7  and  C_8
REMARK    2  A    between atoms: C_8  and  C_9
REMARK    3  A    between atoms: C_12  and  N_13
REMARK    4  A    between atoms: C_14  and  C_16
REMARK    5  A    between atoms: C_16  and  C_17
REMARK    6  A    between atoms: C_20  and  C_21
REMARK                            x       y       z     vdW  Elec       q    Type
REMARK                         _______ _______ _______ _____ _____    ______ ____
ROOT
ATOM      1  N   UNL     1       0.130  10.847  19.114  0.00  0.00    +0.000 N 
ATOM      2  C   UNL     1      -1.218  10.818  18.779  0.00  0.00    +0.000 C 
ATOM      3  O   UNL     1      -1.875   9.809  18.525  0.00  0.00    +0.000 OA
ATOM      4  H   UNL     1       0.495  11.703  19.510  0.00  0.00    +0.000 HD
ENDROOT
BRANCH   1   8
ATOM      5  C   UNL     1       2.461   7.314  19.224  0.00  0.00    +0.000 A 
ATOM      6  C   UNL     1       2.430   8.097  18.065  0.00  0.00    +0.000 A 
ATOM      7  C   UNL     1       1.694   9.284  18.031  0.00  0.00    +0.000 A 
ATOM      8  C   UNL     1       0.976   9.715  19.148  0.00  0.00    +0.000 A 
ATOM      9  C   UNL     1       1.091   8.994  20.339  0.00  0.00    +0.000 A 
ATOM     10  C   UNL     1       1.818   7.794  20.374  0.00  0.00    +0.000 A 
BRANCH   5  11
ATOM     11  C   UNL     1       3.185   5.981  19.222  0.00  0.00    +0.000 C 
BRANCH  11  18
ATOM     12  C   UNL     1       1.335   3.964  17.716  0.00  0.00    +0.000 C 
ATOM     13  C   UNL     1       1.582   3.951  19.025  0.00  0.00    +0.000 C 
ATOM     14  O   UNL     1       0.999   2.998  19.852  0.00  0.00    +0.000 OA
ATOM     15  C   UNL     1       1.490   3.263  21.099  0.00  0.00    +0.000 C 
ATOM     16  O   UNL     1       1.222   2.641  22.112  0.00  0.00    +0.000 OA
ATOM     17  C   UNL     1       2.391   4.410  21.061  0.00  0.00    +0.000 C 
ATOM     18  C   UNL     1       2.420   4.823  19.794  0.00  0.00    +0.000 C 
ENDBRANCH  11  18
ENDBRANCH   5  11
ENDBRANCH   1   8
BRANCH   2  19
ATOM     19  C   UNL     1      -1.878  12.190  18.722  0.00  0.00    +0.000 C 
BRANCH  19  20
ATOM     20  C   UNL     1      -2.563  12.507  20.028  0.00  0.00    +0.000 A 
ATOM     21  C   UNL     1      -1.809  12.583  21.208  0.00  0.00    +0.000 A 
ATOM     22  C   UNL     1      -2.440  12.721  22.444  0.00  0.00    +0.000 A 
ATOM     23  C   UNL     1      -3.836  12.806  22.519  0.00  0.00    +0.000 A 
ATOM     24  C   UNL     1      -4.583  12.801  21.330  0.00  0.00    +0.000 A 
ATOM     25  C   UNL     1      -3.952  12.656  20.093  0.00  0.00    +0.000 A 
BRANCH  23  26
ATOM     26  C   UNL     1      -4.537  12.869  23.852  0.00  0.00    +0.000 C 
ATOM     27  F   UNL     1      -4.181  11.870  24.707  0.00  0.00    +0.000 F 
ATOM     28  F   UNL     1      -4.294  14.035  24.515  0.00  0.00    +0.000 F 
ATOM     29  F   UNL     1      -5.892  12.786  23.728  0.00  0.00    +0.000 F 
ENDBRANCH  23  26
ENDBRANCH  19  20
ENDBRANCH   2  19
TORSDOF 6
ENDMDL
MODEL 2
REMARK VINA RESULT:      -8.4      5.838     10.252
REMARK  Name = 
REMARK  6 active torsions:
REMARK  status: ('A' for Active; 'I' for Inactive)
REMARK    1  A    between atoms: C_7  and  C_8
REMARK    2  A    between atoms: C_8  and  C_9
REMARK    3  A    between atoms: C_12  and  N_13
REMARK    4  A    between atoms: C_14  and  C_16
REMARK    5  A    between atoms: C_16  and  C_17
REMARK    6  A    between atoms: C_20  and  C_21
REMARK                            x       y       z     vdW  Elec       q    Type
REMARK                         _______ _______ _______ _____ _____    ______ ____
ROOT
ATOM      1  N   UNL     1       2.789   6.438  19.809  0.00  0.00    +0.000 N 
ATOM      2  C   UNL     1       2.256   5.225  20.230  0.00  0.00    +0.000 C 
ATOM      3  O   UNL     1       1.084   5.025  20.544  0.00  0.00    +0.000 OA
ATOM      4  H   UNL     1       3.703   6.422  19.375  0.00  0.00    +0.000 HD
ENDROOT
BRANCH   1   8
ATOM      5  C   UNL     1       0.476   9.967  19.462  0.00  0.00    +0.000 A 
ATOM      6  C   UNL     1       0.535   9.286  20.682  0.00  0.00    +0.000 A 
ATOM      7  C   UNL     1       1.325   8.142  20.818  0.00  0.00    +0.000 A 
ATOM      8  C   UNL     1       2.071   7.653  19.744  0.00  0.00    +0.000 A 
ATOM      9  C   UNL     1       2.100   8.390  18.557  0.00  0.00    +0.000 A 
ATOM     10  C   UNL     1       1.297   9.532  18.412  0.00  0.00    +0.000 A 
BRANCH   5  11
ATOM     11  C   UNL     1      -0.457  11.152  19.297  0.00  0.00    +0.000 C 
BRANCH  11  18
ATOM     12  C   UNL     1      -3.323  12.359  19.593  0.00  0.00    +0.000 C 
ATOM     13  C   UNL     1      -2.938  11.515  18.636  0.00  0.00    +0.000 C 
ATOM     14  O   UNL     1      -3.832  11.087  17.662  0.00  0.00    +0.000 OA
ATOM     15  C   UNL     1      -3.101  10.271  16.845  0.00  0.00    +0.000 C 
ATOM     16  O   UNL     1      -3.524   9.695  15.858  0.00  0.00    +0.000 OA
ATOM     17  C   UNL     1      -1.724  10.173  17.319  0.00  0.00    +0.000 C 
ATOM     18  C   UNL     1      -1.651  10.924  18.418  0.00  0.00    +0.000 C 
ENDBRANCH  11  18
ENDBRANCH   5  11
ENDBRANCH   1   8
BRANCH   2  19
ATOM     19  C   UNL     1       3.268   4.089  20.303  0.00  0.00    +0.000 C 
BRANCH  19  20
ATOM     20  C   UNL     1       4.096   4.030  19.043  0.00  0.00    +0.000 A 
ATOM     21  C   UNL     1       5.435   4.446  19.070  0.00  0.00    +0.000 A 
ATOM     22  C   UNL     1       6.170   4.546  17.890  0.00  0.00    +0.000 A 
ATOM     23  C   UNL     1       5.585   4.212  16.662  0.00  0.00    +0.000 A 
ATOM     24  C   UNL     1       4.267   3.729  16.647  0.00  0.00    +0.000 A 
ATOM     25  C   UNL     1       3.528   3.635  17.828  0.00  0.00    +0.000 A 
BRANCH  23  26
ATOM     26  C   UNL     1       6.338   4.396  15.370  0.00  0.00    +0.000 C 
ATOM     27  F   UNL     1       5.957   5.498  14.665  0.00  0.00    +0.000 F 
ATOM     28  F   UNL     1       7.682   4.520  15.561  0.00  0.00    +0.000 F 
ATOM     29  F   UNL     1       6.178   3.340  14.523  0.00  0.00    +0.000 F 
ENDBRANCH  23  26
ENDBRANCH  19  20
ENDBRANCH   2  19
TORSDOF 6
ENDMDL
MODEL 3
REMARK VINA RESULT:      -8.3      1.297      2.138
REMARK  Name = 
REMARK  6 active torsions:
REMARK  status: ('A' for Active; 'I' for Inactive)
REMARK    1  A    between atoms: C_7  and  C_8
REMARK    2  A    between atoms: C_8  and  C_9
REMARK    3  A    between atoms: C_12  and  N_13
REMARK    4  A    between atoms: C_14  and  C_16
REMARK    5  A    between atoms: C_16  and  C_17
REMARK    6  A    between atoms: C_20  and  C_21
REMARK                            x       y       z     vdW  Elec       q    Type
REMARK                         _______ _______ _______ _____ _____    ______ ____
ROOT
ATOM      1  N   UNL     1       0.803  10.537  19.803  0.00  0.00    +0.000 N 
ATOM      2  C   UNL     1      -0.510  10.945  19.599  0.00  0.00    +0.000 C 
ATOM      3  O   UNL     1      -1.399  10.275  19.077  0.00  0.00    +0.000 OA
ATOM      4  H   UNL     1       1.372  11.088  20.432  0.00  0.00    +0.000 HD
ENDROOT
BRANCH   1   8
ATOM      5  C   UNL     1       2.626   6.946  18.495  0.00  0.00    +0.000 A 
ATOM      6  C   UNL     1       2.166   7.059  19.811  0.00  0.00    +0.000 A 
ATOM      7  C   UNL     1       1.529   8.225  20.242  0.00  0.00    +0.000 A 
ATOM      8  C   UNL     1       1.337   9.301  19.373  0.00  0.00    +0.000 A 
ATOM      9  C   UNL     1       1.697   9.152  18.031  0.00  0.00    +0.000 A 
ATOM     10  C   UNL     1       2.349   7.987  17.597  0.00  0.00    +0.000 A 
BRANCH   5  11
ATOM     11  C   UNL     1       3.399   5.715  18.063  0.00  0.00    +0.000 C 
BRANCH  11  18
ATOM     12  C   UNL     1       4.614   3.200  19.462  0.00  0.00    +0.000 C 
ATOM     13  C   UNL     1       3.375   3.289  18.979  0.00  0.00    +0.000 C 
ATOM     14  O   UNL     1       2.500   2.213  19.062  0.00  0.00    +0.000 OA
ATOM     15  C   UNL     1       1.334   2.661  18.506  0.00  0.00    +0.000 C 
ATOM     16  O   UNL     1       0.309   2.013  18.392  0.00  0.00    +0.000 OA
ATOM     17  C   UNL     1       1.481   4.041  18.055  0.00  0.00    +0.000 C 
ATOM     18  C   UNL     1       2.734   4.398  18.337  0.00  0.00    +0.000 C 
ENDBRANCH  11  18
ENDBRANCH   5  11
ENDBRANCH   1   8
BRANCH   2  19
ATOM     19  C   UNL     1      -0.804  12.363  20.071  0.00  0.00    +0.000 C 
BRANCH  19  20
ATOM     20  C   UNL     1      -1.934  12.369  21.071  0.00  0.00    +0.000 A 
ATOM     21  C   UNL     1      -3.191  12.866  20.697  0.00  0.00    +0.000 A 
ATOM     22  C   UNL     1      -4.201  13.025  21.645  0.00  0.00    +0.000 A 
ATOM     23  C   UNL     1      -3.978  12.668  22.981  0.00  0.00    +0.000 A 
ATOM     24  C   UNL     1      -2.742  12.105  23.338  0.00  0.00    +0.000 A 
ATOM     25  C   UNL     1      -1.728  11.953  22.390  0.00  0.00    +0.000 A 
BRANCH  23  26
ATOM     26  C   UNL     1      -5.029  12.913  24.033  0.00  0.00    +0.000 C 
ATOM     27  F   UNL     1      -6.276  12.501  23.669  0.00  0.00    +0.000 F 
ATOM     28  F   UNL     1      -4.752  12.275  25.206  0.00  0.00    +0.000 F 
ATOM     29  F   UNL     1      -5.151  14.233  24.346  0.00  0.00    +0.000 F 
ENDBRANCH  23  26
ENDBRANCH  19  20
ENDBRANCH   2  19
TORSDOF 6
ENDMDL
MODEL 4
REMARK VINA RESULT:      -8.3      4.191      5.441
REMARK  Name = 
REMARK  6 active torsions:
REMARK  status: ('A' for Active; 'I' for Inactive)
REMARK    1  A    between atoms: C_7  and  C_8
REMARK    2  A    between atoms: C_8  and  C_9
REMARK    3  A    between atoms: C_12  and  N_13
REMARK    4  A    between atoms: C_14  and  C_16
REMARK    5  A    between atoms: C_16  and  C_17
REMARK    6  A    between atoms: C_20  and  C_21
REMARK                            x       y       z     vdW  Elec       q    Type
REMARK                         _______ _______ _______ _____ _____    ______ ____
ROOT
ATOM      1  N   UNL     1       1.728   8.356  19.130  0.00  0.00    +0.000 N 
ATOM      2  C   UNL     1       1.551   9.609  18.557  0.00  0.00    +0.000 C 
ATOM      3  O   UNL     1       1.865   9.927  17.411  0.00  0.00    +0.000 OA
ATOM      4  H   UNL     1       1.235   8.162  19.992  0.00  0.00    +0.000 HD
ENDROOT
BRANCH   1   8
ATOM      5  C   UNL     1       3.813   5.097  17.408  0.00  0.00    +0.000 A 
ATOM      6  C   UNL     1       2.576   4.889  18.029  0.00  0.00    +0.000 A 
ATOM      7  C   UNL     1       1.862   5.962  18.566  0.00  0.00    +0.000 A 
ATOM      8  C   UNL     1       2.364   7.263  18.498  0.00  0.00    +0.000 A 
ATOM      9  C   UNL     1       3.545   7.491  17.786  0.00  0.00    +0.000 A 
ATOM     10  C   UNL     1       4.272   6.413  17.256  0.00  0.00    +0.000 A 
BRANCH   5  11
ATOM     11  C   UNL     1       4.623   3.915  16.912  0.00  0.00    +0.000 C 
BRANCH  11  18
ATOM     12  C   UNL     1       7.610   4.604  17.515  0.00  0.00    +0.000 C 
ATOM     13  C   UNL     1       7.061   4.553  16.301  0.00  0.00    +0.000 C 
ATOM     14  O   UNL     1       7.816   4.825  15.167  0.00  0.00    +0.000 OA
ATOM     15  C   UNL     1       6.954   4.653  14.119  0.00  0.00    +0.000 C 
ATOM     16  O   UNL     1       7.236   4.793  12.942  0.00  0.00    +0.000 OA
ATOM     17  C   UNL     1       5.630   4.276  14.603  0.00  0.00    +0.000 C 
ATOM     18  C   UNL     1       5.713   4.237  15.933  0.00  0.00    +0.000 C 
ENDBRANCH  11  18
ENDBRANCH   5  11
ENDBRANCH   1   8
BRANCH   2  19
ATOM     19  C   UNL     1       0.925  10.639  19.487  0.00  0.00    +0.000 C 
BRANCH  19  20
ATOM     20  C   UNL     1      -0.539  10.823  19.172  0.00  0.00    +0.000 A 
ATOM     21  C   UNL     1      -1.159   9.983  18.236  0.00  0.00    +0.000 A 
ATOM     22  C   UNL     1      -2.465  10.233  17.816  0.00  0.00    +0.000 A 
ATOM     23  C   UNL     1      -3.181  11.315  18.341  0.00  0.00    +0.000 A 
ATOM     24  C   UNL     1      -2.582  12.112  19.330  0.00  0.00    +0.000 A 
ATOM     25  C   UNL     1      -1.272  11.866  19.746  0.00  0.00    +0.000 A 
BRANCH  23  26
ATOM     26  C   UNL     1      -4.561  11.649  17.836  0.00  0.00    +0.000 C 
ATOM     27  F   UNL     1      -5.424  10.595  17.859  0.00  0.00    +0.000 F 
ATOM     28  F   UNL     1      -5.159  12.638  18.560  0.00  0.00    +0.000 F 
ATOM     29  F   UNL     1      -4.547  12.089  16.546  0.00  0.00    +0.000 F 
ENDBRANCH  23  26
ENDBRANCH  19  20
ENDBRANCH   2  19
TORSDOF 6
ENDMDL
MODEL 5
REMARK VINA RESULT:      -8.2      0.313      1.190
REMARK  Name = 
REMARK  6 active torsions:
REMARK  status: ('A' for Active; 'I' for Inactive)
REMARK    1  A    between atoms: C_7  and  C_8
REMARK    2  A    between atoms: C_8  and  C_9
REMARK    3  A    between atoms: C_12  and  N_13
REMARK    4  A    between atoms: C_14  and  C_16
REMARK    5  A    between atoms: C_16  and  C_17
REMARK    6  A    between atoms: C_20  and  C_21
REMARK                            x       y       z     vdW  Elec       q    Type
REMARK                         _______ _______ _______ _____ _____    ______ ____
ROOT
ATOM      1  N   UNL     1      -0.128  10.859  19.457  0.00  0.00    +0.000 N 
ATOM      2  C   UNL     1      -1.348  10.926  18.796  0.00  0.00    +0.000 C 
ATOM      3  O   UNL     1      -1.855  10.027  18.129  0.00  0.00    +0.000 OA
ATOM      4  H   UNL     1       0.073  11.575  20.143  0.00  0.00    +0.000 HD
ENDROOT
BRANCH   1   8
ATOM      5  C   UNL     1       2.323   7.408  19.324  0.00  0.00    +0.000 A 
ATOM      6  C   UNL     1       2.184   8.213  18.188  0.00  0.00    +0.000 A 
ATOM      7  C   UNL     1       1.408   9.374  18.232  0.00  0.00    +0.000 A 
ATOM      8  C   UNL     1       0.756   9.757  19.406  0.00  0.00    +0.000 A 
ATOM      9  C   UNL     1       0.979   9.016  20.569  0.00  0.00    +0.000 A 
ATOM     10  C   UNL     1       1.747   7.842  20.526  0.00  0.00    +0.000 A 
BRANCH   5  11
ATOM     11  C   UNL     1       3.089   6.102  19.240  0.00  0.00    +0.000 C 
BRANCH  11  18
ATOM     12  C   UNL     1       1.284   4.053  17.723  0.00  0.00    +0.000 C 
ATOM     13  C   UNL     1       1.566   4.014  19.024  0.00  0.00    +0.000 C 
ATOM     14  O   UNL     1       1.043   3.015  19.837  0.00  0.00    +0.000 OA
ATOM     15  C   UNL     1       1.556   3.265  21.079  0.00  0.00    +0.000 C 
ATOM     16  O   UNL     1       1.339   2.604  22.080  0.00  0.00    +0.000 OA
ATOM     17  C   UNL     1       2.408   4.449  21.052  0.00  0.00    +0.000 C 
ATOM     18  C   UNL     1       2.388   4.898  19.797  0.00  0.00    +0.000 C 
ENDBRANCH  11  18
ENDBRANCH   5  11
ENDBRANCH   1   8
BRANCH   2  19
ATOM     19  C   UNL     1      -2.061  12.265  18.936  0.00  0.00    +0.000 C 
BRANCH  19  20
ATOM     20  C   UNL     1      -2.780  12.351  20.259  0.00  0.00    +0.000 A 
ATOM     21  C   UNL     1      -4.160  12.603  20.286  0.00  0.00    +0.000 A 
ATOM     22  C   UNL     1      -4.814  12.839  21.494  0.00  0.00    +0.000 A 
ATOM     23  C   UNL     1      -4.103  12.807  22.701  0.00  0.00    +0.000 A 
ATOM     24  C   UNL     1      -2.737  12.484  22.676  0.00  0.00    +0.000 A 
ATOM     25  C   UNL     1      -2.080  12.254  21.465  0.00  0.00    +0.000 A 
BRANCH  23  26
ATOM     26  C   UNL     1      -4.777  13.144  24.006  0.00  0.00    +0.000 C 
ATOM     27  F   UNL     1      -6.138  13.109  23.946  0.00  0.00    +0.000 F 
ATOM     28  F   UNL     1      -4.424  12.293  25.011  0.00  0.00    +0.000 F 
ATOM     29  F   UNL     1      -4.457  14.393  24.445  0.00  0.00    +0.000 F 
ENDBRANCH  23  26
ENDBRANCH  19  20
ENDBRANCH   2  19
TORSDOF 6
ENDMDL
MODEL 6
REMARK VINA RESULT:      -8.2      2.341      2.894
REMARK  Name = 
REMARK  6 active torsions:
REMARK  status: ('A' for Active; 'I' for Inactive)
REMARK    1  A    between atoms: C_7  and  C_8
REMARK    2  A    between atoms: C_8  and  C_9
REMARK    3  A    between atoms: C_12  and  N_13
REMARK    4  A    between atoms: C_14  and  C_16
REMARK    5  A    between atoms: C_16  and  C_17
REMARK    6  A    between atoms: C_20  and  C_21
REMARK                            x       y       z     vdW  Elec       q    Type
REMARK                         _______ _______ _______ _____ _____    ______ ____
ROOT
ATOM      1  N   UNL     1       0.528  10.846  19.361  0.00  0.00    +0.000 N 
ATOM      2  C   UNL     1      -0.810  11.036  19.037  0.00  0.00    +0.000 C 
ATOM      3  O   UNL     1      -1.554  10.197  18.532  0.00  0.00    +0.000 OA
ATOM      4  H   UNL     1       0.965  11.530  19.965  0.00  0.00    +0.000 HD
ENDROOT
BRANCH   1   8
ATOM      5  C   UNL     1       2.512   7.192  18.560  0.00  0.00    +0.000 A 
ATOM      6  C   UNL     1       2.470   8.195  17.586  0.00  0.00    +0.000 A 
ATOM      7  C   UNL     1       1.851   9.418  17.853  0.00  0.00    +0.000 A 
ATOM      8  C   UNL     1       1.262   9.668  19.094  0.00  0.00    +0.000 A 
ATOM      9  C   UNL     1       1.396   8.712  20.105  0.00  0.00    +0.000 A 
ATOM     10  C   UNL     1       2.005   7.477  19.836  0.00  0.00    +0.000 A 
BRANCH   5  11
ATOM     11  C   UNL     1       3.103   5.835  18.229  0.00  0.00    +0.000 C 
BRANCH  11  18
ATOM     12  C   UNL     1       5.166   6.366  15.945  0.00  0.00    +0.000 C 
ATOM     13  C   UNL     1       5.472   5.994  17.187  0.00  0.00    +0.000 C 
ATOM     14  O   UNL     1       6.794   5.799  17.567  0.00  0.00    +0.000 OA
ATOM     15  C   UNL     1       6.736   5.459  18.889  0.00  0.00    +0.000 C 
ATOM     16  O   UNL     1       7.695   5.211  19.599  0.00  0.00    +0.000 OA
ATOM     17  C   UNL     1       5.352   5.428  19.349  0.00  0.00    +0.000 C 
ATOM     18  C   UNL     1       4.598   5.741  18.295  0.00  0.00    +0.000 C 
ENDBRANCH  11  18
ENDBRANCH   5  11
ENDBRANCH   1   8
BRANCH   2  19
ATOM     19  C   UNL     1      -1.335  12.433  19.344  0.00  0.00    +0.000 C 
BRANCH  19  20
ATOM     20  C   UNL     1      -2.247  12.408  20.545  0.00  0.00    +0.000 A 
ATOM     21  C   UNL     1      -3.602  12.740  20.396  0.00  0.00    +0.000 A 
ATOM     22  C   UNL     1      -4.425  12.874  21.513  0.00  0.00    +0.000 A 
ATOM     23  C   UNL     1      -3.913  12.657  22.799  0.00  0.00    +0.000 A 
ATOM     24  C   UNL     1      -2.575  12.256  22.939  0.00  0.00    +0.000 A 
ATOM     25  C   UNL     1      -1.749  12.128  21.821  0.00  0.00    +0.000 A 
BRANCH  23  26
ATOM     26  C   UNL     1      -4.767  12.881  24.020  0.00  0.00    +0.000 C 
ATOM     27  F   UNL     1      -4.368  12.164  25.108  0.00  0.00    +0.000 F 
ATOM     28  F   UNL     1      -4.780  14.186  24.416  0.00  0.00    +0.000 F 
ATOM     29  F   UNL     1      -6.070  12.542  23.809  0.00  0.00    +0.000 F 
ENDBRANCH  23  26
ENDBRANCH  19  20
ENDBRANCH   2  19
TORSDOF 6
ENDMDL
MODEL 7
REMARK VINA RESULT:      -8.2      1.168      1.785
REMARK  Name = 
REMARK  6 active torsions:
REMARK  status: ('A' for Active; 'I' for Inactive)
REMARK    1  A    between atoms: C_7  and  C_8
REMARK    2  A    between atoms: C_8  and  C_9
REMARK    3  A    between atoms: C_12  and  N_13
REMARK    4  A    between atoms: C_14  and  C_16
REMARK    5  A    between atoms: C_16  and  C_17
REMARK    6  A    between atoms: C_20  and  C_21
REMARK                            x       y       z     vdW  Elec       q    Type
REMARK                         _______ _______ _______ _____ _____    ______ ____
ROOT
ATOM      1  N   UNL     1       0.496  10.825  19.521  0.00  0.00    +0.000 N 
ATOM      2  C   UNL     1      -0.816  11.111  19.167  0.00  0.00    +0.000 C 
ATOM      3  O   UNL     1      -1.654  10.293  18.789  0.00  0.00    +0.000 OA
ATOM      4  H   UNL     1       1.013  11.539  20.018  0.00  0.00    +0.000 HD
ENDROOT
BRANCH   1   8
ATOM      5  C   UNL     1       2.507   7.108  19.254  0.00  0.00    +0.000 A 
ATOM      6  C   UNL     1       1.842   7.461  20.433  0.00  0.00    +0.000 A 
ATOM      7  C   UNL     1       1.143   8.668  20.519  0.00  0.00    +0.000 A 
ATOM      8  C   UNL     1       1.094   9.546  19.434  0.00  0.00    +0.000 A 
ATOM      9  C   UNL     1       1.665   9.150  18.222  0.00  0.00    +0.000 A 
ATOM     10  C   UNL     1       2.379   7.944  18.136  0.00  0.00    +0.000 A 
BRANCH   5  11
ATOM     11  C   UNL     1       3.340   5.841  19.202  0.00  0.00    +0.000 C 
BRANCH  11  18
ATOM     12  C   UNL     1       4.154   3.981  16.829  0.00  0.00    +0.000 C 
ATOM     13  C   UNL     1       3.075   3.824  17.595  0.00  0.00    +0.000 C 
ATOM     14  O   UNL     1       2.191   2.775  17.373  0.00  0.00    +0.000 OA
ATOM     15  C   UNL     1       1.238   2.905  18.345  0.00  0.00    +0.000 C 
ATOM     16  O   UNL     1       0.280   2.168  18.498  0.00  0.00    +0.000 OA
ATOM     17  C   UNL     1       1.521   4.062  19.187  0.00  0.00    +0.000 C 
ATOM     18  C   UNL     1       2.633   4.616  18.704  0.00  0.00    +0.000 C 
ENDBRANCH  11  18
ENDBRANCH   5  11
ENDBRANCH   1   8
BRANCH   2  19
ATOM     19  C   UNL     1      -1.182  12.587  19.259  0.00  0.00    +0.000 C 
BRANCH  19  20
ATOM     20  C   UNL     1      -1.951  12.867  20.526  0.00  0.00    +0.000 A 
ATOM     21  C   UNL     1      -1.259  13.189  21.703  0.00  0.00    +0.000 A 
ATOM     22  C   UNL     1      -1.937  13.299  22.916  0.00  0.00    +0.000 A 
ATOM     23  C   UNL     1      -3.324  13.110  22.970  0.00  0.00    +0.000 A 
ATOM     24  C   UNL     1      -4.023  12.858  21.779  0.00  0.00    +0.000 A 
ATOM     25  C   UNL     1      -3.343  12.741  20.565  0.00  0.00    +0.000 A 
BRANCH  23  26
ATOM     26  C   UNL     1      -4.059  13.141  24.285  0.00  0.00    +0.000 C 
ATOM     27  F   UNL     1      -3.420  13.855  25.254  0.00  0.00    +0.000 F 
ATOM     28  F   UNL     1      -5.303  13.689  24.176  0.00  0.00    +0.000 F 
ATOM     29  F   UNL     1      -4.245  11.895  24.804  0.00  0.00    +0.000 F 
ENDBRANCH  23  26
ENDBRANCH  19  20
ENDBRANCH   2  19
TORSDOF 6
ENDMDL
MODEL 8
REMARK VINA RESULT:      -8.1      5.856     10.252
REMARK  Name = 
REMARK  6 active torsions:
REMARK  status: ('A' for Active; 'I' for Inactive)
REMARK    1  A    between atoms: C_7  and  C_8
REMARK    2  A    between atoms: C_8  and  C_9
REMARK    3  A    between atoms: C_12  and  N_13
REMARK    4  A    between atoms: C_14  and  C_16
REMARK    5  A    between atoms: C_16  and  C_17
REMARK    6  A    between atoms: C_20  and  C_21
REMARK                            x       y       z     vdW  Elec       q    Type
REMARK                         _______ _______ _______ _____ _____    ______ ____
ROOT
ATOM      1  N   UNL     1       2.773   6.189  20.087  0.00  0.00    +0.000 N 
ATOM      2  C   UNL     1       2.295   4.907  20.328  0.00  0.00    +0.000 C 
ATOM      3  O   UNL     1       1.127   4.609  20.576  0.00  0.00    +0.000 OA
ATOM      4  H   UNL     1       3.697   6.276  19.683  0.00  0.00    +0.000 HD
ENDROOT
BRANCH   1   8
ATOM      5  C   UNL     1       0.284   9.615  20.137  0.00  0.00    +0.000 A 
ATOM      6  C   UNL     1       0.363   8.789  21.264  0.00  0.00    +0.000 A 
ATOM      7  C   UNL     1       1.209   7.678  21.271  0.00  0.00    +0.000 A 
ATOM      8  C   UNL     1       1.994   7.366  20.160  0.00  0.00    +0.000 A 
ATOM      9  C   UNL     1       2.001   8.247  19.075  0.00  0.00    +0.000 A 
ATOM     10  C   UNL     1       1.142   9.357  19.058  0.00  0.00    +0.000 A 
BRANCH   5  11
ATOM     11  C   UNL     1      -0.706  10.763  20.104  0.00  0.00    +0.000 C 
BRANCH  11  18
ATOM     12  C   UNL     1      -0.586  13.197  18.150  0.00  0.00    +0.000 C 
ATOM     13  C   UNL     1      -1.337  12.110  17.979  0.00  0.00    +0.000 C 
ATOM     14  O   UNL     1      -2.164  11.982  16.870  0.00  0.00    +0.000 OA
ATOM     15  C   UNL     1      -2.750  10.754  17.005  0.00  0.00    +0.000 C 
ATOM     16  O   UNL     1      -3.546  10.261  16.225  0.00  0.00    +0.000 OA
ATOM     17  C   UNL     1      -2.291  10.100  18.225  0.00  0.00    +0.000 C 
ATOM     18  C   UNL     1      -1.445  10.948  18.811  0.00  0.00    +0.000 C 
ENDBRANCH  11  18
ENDBRANCH   5  11
ENDBRANCH   1   8
BRANCH   2  19
ATOM     19  C   UNL     1       3.364   3.822  20.282  0.00  0.00    +0.000 C 
BRANCH  19  20
ATOM     20  C   UNL     1       4.145   3.897  18.994  0.00  0.00    +0.000 A 
ATOM     21  C   UNL     1       5.464   4.372  19.007  0.00  0.00    +0.000 A 
ATOM     22  C   UNL     1       6.149   4.595  17.813  0.00  0.00    +0.000 A 
ATOM     23  C   UNL     1       5.533   4.325  16.584  0.00  0.00    +0.000 A 
ATOM     24  C   UNL     1       4.238   3.783  16.577  0.00  0.00    +0.000 A 
ATOM     25  C   UNL     1       3.549   3.567  17.773  0.00  0.00    +0.000 A 
BRANCH  23  26
ATOM     26  C   UNL     1       6.227   4.641  15.284  0.00  0.00    +0.000 C 
ATOM     27  F   UNL     1       7.335   5.420  15.429  0.00  0.00    +0.000 F 
ATOM     28  F   UNL     1       6.641   3.519  14.627  0.00  0.00    +0.000 F 
ATOM     29  F   UNL     1       5.417   5.305  14.413  0.00  0.00    +0.000 F 
ENDBRANCH  23  26
ENDBRANCH  19  20
ENDBRANCH   2  19
TORSDOF 6
ENDMDL
MODEL 9
REMARK VINA RESULT:      -8.1      2.546      3.321
REMARK  Name = 
REMARK  6 active torsions:
REMARK  status: ('A' for Active; 'I' for Inactive)
REMARK    1  A    between atoms: C_7  and  C_8
REMARK    2  A    between atoms: C_8  and  C_9
REMARK    3  A    between atoms: C_12  and  N_13
REMARK    4  A    between atoms: C_14  and  C_16
REMARK    5  A    between atoms: C_16  and  C_17
REMARK    6  A    between atoms: C_20  and  C_21
REMARK                            x       y       z     vdW  Elec       q    Type
REMARK                         _______ _______ _______ _____ _____    ______ ____
ROOT
ATOM      1  N   UNL     1       1.002  10.313  19.726  0.00  0.00    +0.000 N 
ATOM      2  C   UNL     1      -0.303  10.742  19.519  0.00  0.00    +0.000 C 
ATOM      3  O   UNL     1      -1.210  10.074  19.024  0.00  0.00    +0.000 OA
ATOM      4  H   UNL     1       1.587  10.872  20.334  0.00  0.00    +0.000 HD
ENDROOT
BRANCH   1   8
ATOM      5  C   UNL     1       2.745   6.645  18.528  0.00  0.00    +0.000 A 
ATOM      6  C   UNL     1       2.240   6.791  19.825  0.00  0.00    +0.000 A 
ATOM      7  C   UNL     1       1.629   7.983  20.218  0.00  0.00    +0.000 A 
ATOM      8  C   UNL     1       1.508   9.054  19.331  0.00  0.00    +0.000 A 
ATOM      9  C   UNL     1       1.913   8.876  18.005  0.00  0.00    +0.000 A 
ATOM     10  C   UNL     1       2.540   7.684  17.609  0.00  0.00    +0.000 A 
BRANCH   5  11
ATOM     11  C   UNL     1       3.489   5.382  18.140  0.00  0.00    +0.000 C 
BRANCH  11  18
ATOM     12  C   UNL     1       5.443   6.022  15.788  0.00  0.00    +0.000 C 
ATOM     13  C   UNL     1       5.808   5.760  17.042  0.00  0.00    +0.000 C 
ATOM     14  O   UNL     1       7.150   5.745  17.406  0.00  0.00    +0.000 OA
ATOM     15  C   UNL     1       7.150   5.477  18.746  0.00  0.00    +0.000 C 
ATOM     16  O   UNL     1       8.142   5.385  19.448  0.00  0.00    +0.000 OA
ATOM     17  C   UNL     1       5.786   5.310  19.235  0.00  0.00    +0.000 C 
ATOM     18  C   UNL     1       4.987   5.470  18.180  0.00  0.00    +0.000 C 
ENDBRANCH  11  18
ENDBRANCH   5  11
ENDBRANCH   1   8
BRANCH   2  19
ATOM     19  C   UNL     1      -0.565  12.180  19.950  0.00  0.00    +0.000 C 
BRANCH  19  20
ATOM     20  C   UNL     1      -1.671  12.237  20.975  0.00  0.00    +0.000 A 
ATOM     21  C   UNL     1      -2.906  12.806  20.633  0.00  0.00    +0.000 A 
ATOM     22  C   UNL     1      -3.885  13.009  21.605  0.00  0.00    +0.000 A 
ATOM     23  C   UNL     1      -3.653  12.627  22.933  0.00  0.00    +0.000 A 
ATOM     24  C   UNL     1      -2.443  11.993  23.256  0.00  0.00    +0.000 A 
ATOM     25  C   UNL     1      -1.460  11.796  22.284  0.00  0.00    +0.000 A 
BRANCH  23  26
ATOM     26  C   UNL     1      -4.666  12.917  24.010  0.00  0.00    +0.000 C 
ATOM     27  F   UNL     1      -4.516  14.142  24.588  0.00  0.00    +0.000 F 
ATOM     28  F   UNL     1      -5.948  12.876  23.547  0.00  0.00    +0.000 F 
ATOM     29  F   UNL     1      -4.609  12.015  25.030  0.00  0.00    +0.000 F 
ENDBRANCH  23  26
ENDBRANCH  19  20
ENDBRANCH   2  19
TORSDOF 6
ENDMDL
