MODEL 1
REMARK VINA RESULT:      -7.8      0.000      0.000
REMARK  Name = 
REMARK  6 active torsions:
REMARK  status: ('A' for Active; 'I' for Inactive)
REMARK    1  A    between atoms: C_1  and  O_2
REMARK    2  A    between atoms: O_2  and  C_3
REMARK    3  A    between atoms: C_9  and  C_10
REMARK    4  A    between atoms: C_10  and  C_11
REMARK    5  A    between atoms: C_11  and  N_12
REMARK    6  A    between atoms: C_13  and  C_15
REMARK                            x       y       z     vdW  Elec       q    Type
REMARK                         _______ _______ _______ _____ _____    ______ ____
ROOT
ATOM      1  C   UNL     1       6.106   3.446  12.143  0.00  0.00    +0.000 A 
ATOM      2  C   UNL     1       7.220   4.231  11.851  0.00  0.00    +0.000 A 
ATOM      3  C   UNL     1       7.806   5.041  12.829  0.00  0.00    +0.000 A 
ATOM      4  C   UNL     1       7.234   5.040  14.102  0.00  0.00    +0.000 A 
ATOM      5  N   UNL     1       7.619   5.719  15.230  0.00  0.00    +0.000 N 
ATOM      6  C   UNL     1       6.784   5.419  16.267  0.00  0.00    +0.000 A 
ATOM      7  C   UNL     1       5.810   4.547  15.817  0.00  0.00    +0.000 A 
ATOM      8  C   UNL     1       6.105   4.289  14.433  0.00  0.00    +0.000 A 
ATOM      9  C   UNL     1       5.530   3.484  13.424  0.00  0.00    +0.000 A 
ATOM     10  H   UNL     1       8.418   6.334  15.285  0.00  0.00    +0.000 HD
ENDROOT
BRANCH   1  12
ATOM     11  C   UNL     1       5.941   1.281  11.199  0.00  0.00    +0.000 C 
ATOM     12  O   UNL     1       5.474   2.626  11.243  0.00  0.00    +0.000 OA
ENDBRANCH   1  12
BRANCH   7  13
ATOM     13  C   UNL     1       4.697   3.963  16.643  0.00  0.00    +0.000 C 
BRANCH  13  14
ATOM     14  C   UNL     1       3.853   5.031  17.349  0.00  0.00    +0.000 C 
BRANCH  14  15
ATOM     15  N   UNL     1       3.066   4.510  18.451  0.00  0.00    +0.000 N 
ATOM     16  C   UNL     1       1.755   4.109  18.277  0.00  0.00    +0.000 C 
ATOM     17  O   UNL     1       1.171   4.253  17.202  0.00  0.00    +0.000 OA
ATOM     18  H   UNL     1       3.509   4.398  19.353  0.00  0.00    +0.000 HD
BRANCH  16  19
ATOM     19  C   UNL     1       1.122   3.460  19.538  0.00  0.00    +0.000 C 
ATOM     20  C   UNL     1       1.820   2.200  20.116  0.00  0.00    +0.000 C 
ATOM     21  C   UNL     1       1.438   2.713  21.517  0.00  0.00    +0.000 C 
ATOM     22  C   UNL     1       1.415   4.130  20.911  0.00  0.00    +0.000 C 
ENDBRANCH  16  19
ENDBRANCH  14  15
ENDBRANCH  13  14
ENDBRANCH   7  13
TORSDOF 5
ENDMDL
MODEL 2
REMARK VINA RESULT:      -7.6      1.043      1.097
REMARK  Name = 
REMARK  6 active torsions:
REMARK  status: ('A' for Active; 'I' for Inactive)
REMARK    1  A    between atoms: C_1  and  O_2
REMARK    2  A    between atoms: O_2  and  C_3
REMARK    3  A    between atoms: C_9  and  C_10
REMARK    4  A    between atoms: C_10  and  C_11
REMARK    5  A    between atoms: C_11  and  N_12
REMARK    6  A    between atoms: C_13  and  C_15
REMARK                            x       y       z     vdW  Elec       q    Type
REMARK                         _______ _______ _______ _____ _____    ______ ____
ROOT
ATOM      1  C   UNL     1       5.805   3.319  12.249  0.00  0.00    +0.000 A 
ATOM      2  C   UNL     1       6.985   3.949  11.857  0.00  0.00    +0.000 A 
ATOM      3  C   UNL     1       7.693   4.765  12.745  0.00  0.00    +0.000 A 
ATOM      4  C   UNL     1       7.177   4.931  14.030  0.00  0.00    +0.000 A 
ATOM      5  N   UNL     1       7.678   5.652  15.084  0.00  0.00    +0.000 N 
ATOM      6  C   UNL     1       6.859   5.531  16.169  0.00  0.00    +0.000 A 
ATOM      7  C   UNL     1       5.778   4.738  15.824  0.00  0.00    +0.000 A 
ATOM      8  C   UNL     1       5.988   4.339  14.459  0.00  0.00    +0.000 A 
ATOM      9  C   UNL     1       5.289   3.524  13.540  0.00  0.00    +0.000 A 
ATOM     10  H   UNL     1       8.541   6.177  15.062  0.00  0.00    +0.000 HD
ENDROOT
BRANCH   1  12
ATOM     11  C   UNL     1       3.813   3.049  10.999  0.00  0.00    +0.000 C 
ATOM     12  O   UNL     1       5.052   2.505  11.442  0.00  0.00    +0.000 OA
ENDBRANCH   1  12
BRANCH   7  13
ATOM     13  C   UNL     1       4.643   4.351  16.731  0.00  0.00    +0.000 C 
BRANCH  13  14
ATOM     14  C   UNL     1       4.720   5.025  18.107  0.00  0.00    +0.000 C 
BRANCH  14  15
ATOM     15  N   UNL     1       3.745   4.517  19.053  0.00  0.00    +0.000 N 
ATOM     16  C   UNL     1       2.529   5.145  19.247  0.00  0.00    +0.000 C 
ATOM     17  O   UNL     1       2.253   6.207  18.687  0.00  0.00    +0.000 OA
ATOM     18  H   UNL     1       3.949   3.657  19.545  0.00  0.00    +0.000 HD
BRANCH  16  19
ATOM     19  C   UNL     1       1.569   4.382  20.201  0.00  0.00    +0.000 C 
ATOM     20  C   UNL     1       1.251   2.903  19.855  0.00  0.00    +0.000 C 
ATOM     21  C   UNL     1       1.234   2.623  21.370  0.00  0.00    +0.000 C 
ATOM     22  C   UNL     1       2.167   3.839  21.531  0.00  0.00    +0.000 C 
ENDBRANCH  16  19
ENDBRANCH  14  15
ENDBRANCH  13  14
ENDBRANCH   7  13
TORSDOF 5
ENDMDL
MODEL 3
REMARK VINA RESULT:      -7.5      1.000      1.146
REMARK  Name = 
REMARK  6 active torsions:
REMARK  status: ('A' for Active; 'I' for Inactive)
REMARK    1  A    between atoms: C_1  and  O_2
REMARK    2  A    between atoms: O_2  and  C_3
REMARK    3  A    between atoms: C_9  and  C_10
REMARK    4  A    between atoms: C_10  and  C_11
REMARK    5  A    between atoms: C_11  and  N_12
REMARK    6  A    between atoms: C_13  and  C_15
REMARK                            x       y       z     vdW  Elec       q    Type
REMARK                         _______ _______ _______ _____ _____    ______ ____
ROOT
ATOM      1  C   UNL     1       5.819   3.408  12.305  0.00  0.00    +0.000 A 
ATOM      2  C   UNL     1       7.049   3.980  11.984  0.00  0.00    +0.000 A 
ATOM      3  C   UNL     1       7.736   4.773  12.907  0.00  0.00    +0.000 A 
ATOM      4  C   UNL     1       7.147   4.976  14.156  0.00  0.00    +0.000 A 
ATOM      5  N   UNL     1       7.613   5.686  15.234  0.00  0.00    +0.000 N 
ATOM      6  C   UNL     1       6.722   5.613  16.265  0.00  0.00    +0.000 A 
ATOM      7  C   UNL     1       5.630   4.866  15.859  0.00  0.00    +0.000 A 
ATOM      8  C   UNL     1       5.908   4.443  14.513  0.00  0.00    +0.000 A 
ATOM      9  C   UNL     1       5.232   3.650  13.558  0.00  0.00    +0.000 A 
ATOM     10  H   UNL     1       8.498   6.171  15.262  0.00  0.00    +0.000 HD
ENDROOT
BRANCH   1  12
ATOM     11  C   UNL     1       3.808   3.134  11.085  0.00  0.00    +0.000 C 
ATOM     12  O   UNL     1       5.082   2.618  11.458  0.00  0.00    +0.000 OA
ENDBRANCH   1  12
BRANCH   7  13
ATOM     13  C   UNL     1       4.424   4.539  16.695  0.00  0.00    +0.000 C 
BRANCH  13  14
ATOM     14  C   UNL     1       4.390   3.075  17.150  0.00  0.00    +0.000 C 
BRANCH  14  15
ATOM     15  N   UNL     1       3.718   2.881  18.421  0.00  0.00    +0.000 N 
ATOM     16  C   UNL     1       2.347   2.718  18.496  0.00  0.00    +0.000 C 
ATOM     17  O   UNL     1       1.629   2.812  17.500  0.00  0.00    +0.000 OA
ATOM     18  H   UNL     1       4.277   2.819  19.261  0.00  0.00    +0.000 HD
BRANCH  16  19
ATOM     19  C   UNL     1       1.828   2.394  19.924  0.00  0.00    +0.000 C 
ATOM     20  C   UNL     1       2.813   2.608  21.104  0.00  0.00    +0.000 C 
ATOM     21  C   UNL     1       1.604   3.065  21.942  0.00  0.00    +0.000 C 
ATOM     22  C   UNL     1       0.925   3.456  20.615  0.00  0.00    +0.000 C 
ENDBRANCH  16  19
ENDBRANCH  14  15
ENDBRANCH  13  14
ENDBRANCH   7  13
TORSDOF 5
ENDMDL
MODEL 4
REMARK VINA RESULT:      -7.2      3.914      7.185
REMARK  Name = 
REMARK  6 active torsions:
REMARK  status: ('A' for Active; 'I' for Inactive)
REMARK    1  A    between atoms: C_1  and  O_2
REMARK    2  A    between atoms: O_2  and  C_3
REMARK    3  A    between atoms: C_9  and  C_10
REMARK    4  A    between atoms: C_10  and  C_11
REMARK    5  A    between atoms: C_11  and  N_12
REMARK    6  A    between atoms: C_13  and  C_15
REMARK                            x       y       z     vdW  Elec       q    Type
REMARK                         _______ _______ _______ _____ _____    ______ ____
ROOT
ATOM      1  C   UNL     1       2.353   7.362  18.738  0.00  0.00    +0.000 A 
ATOM      2  C   UNL     1       1.931   7.598  20.045  0.00  0.00    +0.000 A 
ATOM      3  C   UNL     1       1.551   6.543  20.880  0.00  0.00    +0.000 A 
ATOM      4  C   UNL     1       1.603   5.250  20.359  0.00  0.00    +0.000 A 
ATOM      5  N   UNL     1       1.306   4.054  20.963  0.00  0.00    +0.000 N 
ATOM      6  C   UNL     1       1.508   3.024  20.092  0.00  0.00    +0.000 A 
ATOM      7  C   UNL     1       1.918   3.543  18.876  0.00  0.00    +0.000 A 
ATOM      8  C   UNL     1       1.996   4.968  19.050  0.00  0.00    +0.000 A 
ATOM      9  C   UNL     1       2.369   6.053  18.226  0.00  0.00    +0.000 A 
ATOM     10  H   UNL     1       1.004   3.955  21.922  0.00  0.00    +0.000 HD
ENDROOT
BRANCH   1  12
ATOM     11  C   UNL     1       1.959   9.528  17.868  0.00  0.00    +0.000 C 
ATOM     12  O   UNL     1       2.742   8.338  17.856  0.00  0.00    +0.000 OA
ENDBRANCH   1  12
BRANCH   7  13
ATOM     13  C   UNL     1       2.253   2.747  17.645  0.00  0.00    +0.000 C 
BRANCH  13  14
ATOM     14  C   UNL     1       3.731   2.339  17.580  0.00  0.00    +0.000 C 
BRANCH  14  15
ATOM     15  N   UNL     1       4.641   3.469  17.573  0.00  0.00    +0.000 N 
ATOM     16  C   UNL     1       5.361   3.824  18.699  0.00  0.00    +0.000 C 
ATOM     17  O   UNL     1       5.202   3.251  19.777  0.00  0.00    +0.000 OA
ATOM     18  H   UNL     1       4.780   3.974  16.709  0.00  0.00    +0.000 HD
BRANCH  16  19
ATOM     19  C   UNL     1       6.377   4.975  18.460  0.00  0.00    +0.000 C 
ATOM     20  C   UNL     1       7.442   4.765  17.351  0.00  0.00    +0.000 C 
ATOM     21  C   UNL     1       7.315   6.268  17.037  0.00  0.00    +0.000 C 
ATOM     22  C   UNL     1       5.892   6.195  17.625  0.00  0.00    +0.000 C 
ENDBRANCH  16  19
ENDBRANCH  14  15
ENDBRANCH  13  14
ENDBRANCH   7  13
TORSDOF 5
ENDMDL
MODEL 5
REMARK VINA RESULT:      -7.2      2.075      7.142
REMARK  Name = 
REMARK  6 active torsions:
REMARK  status: ('A' for Active; 'I' for Inactive)
REMARK    1  A    between atoms: C_1  and  O_2
REMARK    2  A    between atoms: O_2  and  C_3
REMARK    3  A    between atoms: C_9  and  C_10
REMARK    4  A    between atoms: C_10  and  C_11
REMARK    5  A    between atoms: C_11  and  N_12
REMARK    6  A    between atoms: C_13  and  C_15
REMARK                            x       y       z     vdW  Elec       q    Type
REMARK                         _______ _______ _______ _____ _____    ______ ____
ROOT
ATOM      1  C   UNL     1       3.163   3.803  19.625  0.00  0.00    +0.000 A 
ATOM      2  C   UNL     1       2.069   4.530  19.159  0.00  0.00    +0.000 A 
ATOM      3  C   UNL     1       2.247   5.675  18.376  0.00  0.00    +0.000 A 
ATOM      4  C   UNL     1       3.553   6.065  18.082  0.00  0.00    +0.000 A 
ATOM      5  N   UNL     1       3.999   7.123  17.330  0.00  0.00    +0.000 N 
ATOM      6  C   UNL     1       5.363   7.130  17.289  0.00  0.00    +0.000 A 
ATOM      7  C   UNL     1       5.836   6.076  18.050  0.00  0.00    +0.000 A 
ATOM      8  C   UNL     1       4.679   5.382  18.546  0.00  0.00    +0.000 A 
ATOM      9  C   UNL     1       4.470   4.232  19.341  0.00  0.00    +0.000 A 
ATOM     10  H   UNL     1       3.399   7.785  16.859  0.00  0.00    +0.000 HD
ENDROOT
BRANCH   1  12
ATOM     11  C   UNL     1       2.283   2.788  21.574  0.00  0.00    +0.000 C 
ATOM     12  O   UNL     1       3.075   2.672  20.396  0.00  0.00    +0.000 OA
ENDBRANCH   1  12
BRANCH   7  13
ATOM     13  C   UNL     1       7.282   5.722  18.264  0.00  0.00    +0.000 C 
BRANCH  13  14
ATOM     14  C   UNL     1       7.735   4.522  17.422  0.00  0.00    +0.000 C 
BRANCH  14  15
ATOM     15  N   UNL     1       7.553   4.716  15.996  0.00  0.00    +0.000 N 
ATOM     16  C   UNL     1       6.488   4.152  15.320  0.00  0.00    +0.000 C 
ATOM     17  O   UNL     1       5.693   3.395  15.879  0.00  0.00    +0.000 OA
ATOM     18  H   UNL     1       8.200   5.316  15.503  0.00  0.00    +0.000 HD
BRANCH  16  19
ATOM     19  C   UNL     1       6.391   4.578  13.829  0.00  0.00    +0.000 C 
ATOM     20  C   UNL     1       7.709   4.987  13.120  0.00  0.00    +0.000 C 
ATOM     21  C   UNL     1       7.147   4.331  11.844  0.00  0.00    +0.000 C 
ATOM     22  C   UNL     1       6.287   3.446  12.767  0.00  0.00    +0.000 C 
ENDBRANCH  16  19
ENDBRANCH  14  15
ENDBRANCH  13  14
ENDBRANCH   7  13
TORSDOF 5
ENDMDL
MODEL 6
REMARK VINA RESULT:      -7.1      3.483      7.428
REMARK  Name = 
REMARK  6 active torsions:
REMARK  status: ('A' for Active; 'I' for Inactive)
REMARK    1  A    between atoms: C_1  and  O_2
REMARK    2  A    between atoms: O_2  and  C_3
REMARK    3  A    between atoms: C_9  and  C_10
REMARK    4  A    between atoms: C_10  and  C_11
REMARK    5  A    between atoms: C_11  and  N_12
REMARK    6  A    between atoms: C_13  and  C_15
REMARK                            x       y       z     vdW  Elec       q    Type
REMARK                         _______ _______ _______ _____ _____    ______ ____
ROOT
ATOM      1  C   UNL     1       2.028   8.538  18.455  0.00  0.00    +0.000 A 
ATOM      2  C   UNL     1       1.687   8.745  19.790  0.00  0.00    +0.000 A 
ATOM      3  C   UNL     1       1.683   7.687  20.704  0.00  0.00    +0.000 A 
ATOM      4  C   UNL     1       2.026   6.420  20.233  0.00  0.00    +0.000 A 
ATOM      5  N   UNL     1       2.117   5.232  20.914  0.00  0.00    +0.000 N 
ATOM      6  C   UNL     1       2.500   4.233  20.068  0.00  0.00    +0.000 A 
ATOM      7  C   UNL     1       2.639   4.756  18.794  0.00  0.00    +0.000 A 
ATOM      8  C   UNL     1       2.351   6.161  18.900  0.00  0.00    +0.000 A 
ATOM      9  C   UNL     1       2.342   7.247  17.997  0.00  0.00    +0.000 A 
ATOM     10  H   UNL     1       1.947   5.123  21.904  0.00  0.00    +0.000 HD
ENDROOT
BRANCH   1  12
ATOM     11  C   UNL     1       2.034  10.859  17.985  0.00  0.00    +0.000 C 
ATOM     12  O   UNL     1       2.057   9.520  17.497  0.00  0.00    +0.000 OA
ENDBRANCH   1  12
BRANCH   7  13
ATOM     13  C   UNL     1       3.052   3.993  17.567  0.00  0.00    +0.000 C 
BRANCH  13  14
ATOM     14  C   UNL     1       4.294   3.121  17.794  0.00  0.00    +0.000 C 
BRANCH  14  15
ATOM     15  N   UNL     1       5.498   3.888  18.053  0.00  0.00    +0.000 N 
ATOM     16  C   UNL     1       6.287   4.364  17.023  0.00  0.00    +0.000 C 
ATOM     17  O   UNL     1       6.050   4.091  15.846  0.00  0.00    +0.000 OA
ATOM     18  H   UNL     1       5.733   4.112  19.010  0.00  0.00    +0.000 HD
BRANCH  16  19
ATOM     19  C   UNL     1       7.458   5.271  17.494  0.00  0.00    +0.000 C 
ATOM     20  C   UNL     1       7.347   6.789  17.192  0.00  0.00    +0.000 C 
ATOM     21  C   UNL     1       8.040   7.040  18.545  0.00  0.00    +0.000 C 
ATOM     22  C   UNL     1       7.490   5.673  18.996  0.00  0.00    +0.000 C 
ENDBRANCH  16  19
ENDBRANCH  14  15
ENDBRANCH  13  14
ENDBRANCH   7  13
TORSDOF 5
ENDMDL
MODEL 7
REMARK VINA RESULT:      -7.1      2.603      7.219
REMARK  Name = 
REMARK  6 active torsions:
REMARK  status: ('A' for Active; 'I' for Inactive)
REMARK    1  A    between atoms: C_1  and  O_2
REMARK    2  A    between atoms: O_2  and  C_3
REMARK    3  A    between atoms: C_9  and  C_10
REMARK    4  A    between atoms: C_10  and  C_11
REMARK    5  A    between atoms: C_11  and  N_12
REMARK    6  A    between atoms: C_13  and  C_15
REMARK                            x       y       z     vdW  Elec       q    Type
REMARK                         _______ _______ _______ _____ _____    ______ ____
ROOT
ATOM      1  C   UNL     1       3.407   3.016  19.758  0.00  0.00    +0.000 A 
ATOM      2  C   UNL     1       2.708   3.084  20.962  0.00  0.00    +0.000 A 
ATOM      3  C   UNL     1       2.124   4.280  21.389  0.00  0.00    +0.000 A 
ATOM      4  C   UNL     1       2.269   5.402  20.572  0.00  0.00    +0.000 A 
ATOM      5  N   UNL     1       1.785   6.674  20.745  0.00  0.00    +0.000 N 
ATOM      6  C   UNL     1       2.152   7.464  19.695  0.00  0.00    +0.000 A 
ATOM      7  C   UNL     1       2.916   6.713  18.819  0.00  0.00    +0.000 A 
ATOM      8  C   UNL     1       2.980   5.387  19.371  0.00  0.00    +0.000 A 
ATOM      9  C   UNL     1       3.565   4.166  18.967  0.00  0.00    +0.000 A 
ATOM     10  H   UNL     1       1.222   6.972  21.529  0.00  0.00    +0.000 HD
ENDROOT
BRANCH   1  12
ATOM     11  C   UNL     1       3.541   1.437  18.000  0.00  0.00    +0.000 C 
ATOM     12  O   UNL     1       4.008   1.884  19.269  0.00  0.00    +0.000 OA
ENDBRANCH   1  12
BRANCH   7  13
ATOM     13  C   UNL     1       3.515   7.201  17.529  0.00  0.00    +0.000 C 
BRANCH  13  14
ATOM     14  C   UNL     1       5.025   6.949  17.437  0.00  0.00    +0.000 C 
BRANCH  14  15
ATOM     15  N   UNL     1       5.393   6.027  16.379  0.00  0.00    +0.000 N 
ATOM     16  C   UNL     1       6.676   5.523  16.273  0.00  0.00    +0.000 C 
ATOM     17  O   UNL     1       7.582   5.895  17.020  0.00  0.00    +0.000 OA
ATOM     18  H   UNL     1       4.677   5.717  15.736  0.00  0.00    +0.000 HD
BRANCH  16  19
ATOM     19  C   UNL     1       6.842   4.453  15.158  0.00  0.00    +0.000 C 
ATOM     20  C   UNL     1       5.547   3.888  14.517  0.00  0.00    +0.000 C 
ATOM     21  C   UNL     1       6.313   3.832  13.181  0.00  0.00    +0.000 C 
ATOM     22  C   UNL     1       7.209   4.958  13.733  0.00  0.00    +0.000 C 
ENDBRANCH  16  19
ENDBRANCH  14  15
ENDBRANCH  13  14
ENDBRANCH   7  13
TORSDOF 5
ENDMDL
MODEL 8
REMARK VINA RESULT:      -7.0      5.016      7.692
REMARK  Name = 
REMARK  6 active torsions:
REMARK  status: ('A' for Active; 'I' for Inactive)
REMARK    1  A    between atoms: C_1  and  O_2
REMARK    2  A    between atoms: O_2  and  C_3
REMARK    3  A    between atoms: C_9  and  C_10
REMARK    4  A    between atoms: C_10  and  C_11
REMARK    5  A    between atoms: C_11  and  N_12
REMARK    6  A    between atoms: C_13  and  C_15
REMARK                            x       y       z     vdW  Elec       q    Type
REMARK                         _______ _______ _______ _____ _____    ______ ____
ROOT
ATOM      1  C   UNL     1       2.234   3.712  18.621  0.00  0.00    +0.000 A 
ATOM      2  C   UNL     1       1.926   3.424  19.949  0.00  0.00    +0.000 A 
ATOM      3  C   UNL     1       1.726   4.448  20.880  0.00  0.00    +0.000 A 
ATOM      4  C   UNL     1       1.849   5.764  20.434  0.00  0.00    +0.000 A 
ATOM      5  N   UNL     1       1.687   6.938  21.127  0.00  0.00    +0.000 N 
ATOM      6  C   UNL     1       1.889   8.004  20.301  0.00  0.00    +0.000 A 
ATOM      7  C   UNL     1       2.220   7.535  19.041  0.00  0.00    +0.000 A 
ATOM      8  C   UNL     1       2.179   6.100  19.120  0.00  0.00    +0.000 A 
ATOM      9  C   UNL     1       2.382   5.045  18.202  0.00  0.00    +0.000 A 
ATOM     10  H   UNL     1       1.433   6.997  22.103  0.00  0.00    +0.000 HD
ENDROOT
BRANCH   1  12
ATOM     11  C   UNL     1       3.413   1.769  17.956  0.00  0.00    +0.000 C 
ATOM     12  O   UNL     1       2.445   2.768  17.648  0.00  0.00    +0.000 OA
ENDBRANCH   1  12
BRANCH   7  13
ATOM     13  C   UNL     1       2.516   8.381  17.834  0.00  0.00    +0.000 C 
BRANCH  13  14
ATOM     14  C   UNL     1       1.822   9.749  17.877  0.00  0.00    +0.000 C 
BRANCH  14  15
ATOM     15  N   UNL     1       0.388   9.675  17.669  0.00  0.00    +0.000 N 
ATOM     16  C   UNL     1      -0.500  10.286  18.535  0.00  0.00    +0.000 C 
ATOM     17  O   UNL     1      -0.120  10.848  19.562  0.00  0.00    +0.000 OA
ATOM     18  H   UNL     1       0.042   9.203  16.845  0.00  0.00    +0.000 HD
BRANCH  16  19
ATOM     19  C   UNL     1      -1.982  10.207  18.076  0.00  0.00    +0.000 C 
ATOM     20  C   UNL     1      -2.732  11.548  17.863  0.00  0.00    +0.000 C 
ATOM     21  C   UNL     1      -3.463  10.876  16.685  0.00  0.00    +0.000 C 
ATOM     22  C   UNL     1      -2.250   9.932  16.568  0.00  0.00    +0.000 C 
ENDBRANCH  16  19
ENDBRANCH  14  15
ENDBRANCH  13  14
ENDBRANCH   7  13
TORSDOF 5
ENDMDL
MODEL 9
REMARK VINA RESULT:      -7.0      4.697      8.065
REMARK  Name = 
REMARK  6 active torsions:
REMARK  status: ('A' for Active; 'I' for Inactive)
REMARK    1  A    between atoms: C_1  and  O_2
REMARK    2  A    between atoms: O_2  and  C_3
REMARK    3  A    between atoms: C_9  and  C_10
REMARK    4  A    between atoms: C_10  and  C_11
REMARK    5  A    between atoms: C_11  and  N_12
REMARK    6  A    between atoms: C_13  and  C_15
REMARK                            x       y       z     vdW  Elec       q    Type
REMARK                         _______ _______ _______ _____ _____    ______ ____
ROOT
ATOM      1  C   UNL     1       3.271   4.769  19.270  0.00  0.00    +0.000 A 
ATOM      2  C   UNL     1       2.828   3.949  18.233  0.00  0.00    +0.000 A 
ATOM      3  C   UNL     1       3.684   3.584  17.190  0.00  0.00    +0.000 A 
ATOM      4  C   UNL     1       4.991   4.071  17.219  0.00  0.00    +0.000 A 
ATOM      5  N   UNL     1       6.022   3.852  16.341  0.00  0.00    +0.000 N 
ATOM      6  C   UNL     1       7.141   4.513  16.756  0.00  0.00    +0.000 A 
ATOM      7  C   UNL     1       6.844   5.207  17.916  0.00  0.00    +0.000 A 
ATOM      8  C   UNL     1       5.471   4.913  18.223  0.00  0.00    +0.000 A 
ATOM      9  C   UNL     1       4.583   5.271  19.263  0.00  0.00    +0.000 A 
ATOM     10  H   UNL     1       5.962   3.267  15.520  0.00  0.00    +0.000 HD
ENDROOT
BRANCH   1  12
ATOM     11  C   UNL     1       2.094   4.142  21.226  0.00  0.00    +0.000 C 
ATOM     12  O   UNL     1       2.498   5.172  20.329  0.00  0.00    +0.000 OA
ENDBRANCH   1  12
BRANCH   7  13
ATOM     13  C   UNL     1       7.800   6.060  18.703  0.00  0.00    +0.000 C 
BRANCH  13  14
ATOM     14  C   UNL     1       7.848   7.514  18.214  0.00  0.00    +0.000 C 
BRANCH  14  15
ATOM     15  N   UNL     1       8.796   8.337  18.941  0.00  0.00    +0.000 N 
ATOM     16  C   UNL     1       8.888   9.698  18.721  0.00  0.00    +0.000 C 
ATOM     17  O   UNL     1       8.231  10.259  17.843  0.00  0.00    +0.000 OA
ATOM     18  H   UNL     1       9.366   7.904  19.654  0.00  0.00    +0.000 HD
BRANCH  16  19
ATOM     19  C   UNL     1       9.866  10.427  19.684  0.00  0.00    +0.000 C 
ATOM     20  C   UNL     1      10.571  11.702  19.150  0.00  0.00    +0.000 C 
ATOM     21  C   UNL     1      10.452  12.282  20.572  0.00  0.00    +0.000 C 
ATOM     22  C   UNL     1       9.243  11.347  20.773  0.00  0.00    +0.000 C 
ENDBRANCH  16  19
ENDBRANCH  14  15
ENDBRANCH  13  14
ENDBRANCH   7  13
TORSDOF 5
ENDMDL
