MODEL 1
REMARK VINA RESULT:      -7.4      0.000      0.000
REMARK  Name = 
REMARK  15 active torsions:
REMARK  status: ('A' for Active; 'I' for Inactive)
REMARK    1  A    between atoms: C_1  and  O_2
REMARK    2  A    between atoms: O_2  and  C_3
REMARK    3  A    between atoms: C_3  and  C_5
REMARK    4  A    between atoms: C_5  and  N_6
REMARK    5  A    between atoms: C_5  and  C_22
REMARK    6  A    between atoms: N_6  and  C_7
REMARK    7  A    between atoms: C_7  and  C_8
REMARK    8  A    between atoms: C_8  and  N_9
REMARK    9  A    between atoms: N_9  and  C_10
REMARK   10  A    between atoms: C_10  and  C_11
REMARK   11  A    between atoms: C_10  and  C_15
REMARK   12  A    between atoms: C_11  and  O_13
REMARK   13  A    between atoms: O_13  and  C_14
REMARK   14  A    between atoms: C_20  and  O_21
REMARK   15  A    between atoms: C_27  and  O_28
REMARK                            x       y       z     vdW  Elec       q    Type
REMARK                         _______ _______ _______ _____ _____    ______ ____
ROOT
ATOM      1  C   UNL     1       4.138   3.781  18.466  0.00  0.00    +0.000 C 
ENDROOT
BRANCH   1   2
ATOM      2  N   UNL     1       3.835   5.215  18.400  0.00  0.00    +0.000 NA
ATOM      3  H   UNL     1       4.711   5.736  18.338  0.00  0.00    +0.000 HD
BRANCH   2   4
ATOM      4  C   UNL     1       3.122   5.712  19.614  0.00  0.00    +0.000 C 
BRANCH   4   5
ATOM      5  C   UNL     1       2.490   7.067  19.315  0.00  0.00    +0.000 A 
ATOM      6  C   UNL     1       2.564   7.596  18.010  0.00  0.00    +0.000 A 
ATOM      7  C   UNL     1       1.916   8.784  17.675  0.00  0.00    +0.000 A 
ATOM      8  C   UNL     1       1.193   9.474  18.643  0.00  0.00    +0.000 A 
ATOM      9  C   UNL     1       1.140   8.991  19.950  0.00  0.00    +0.000 A 
ATOM     10  C   UNL     1       1.789   7.797  20.279  0.00  0.00    +0.000 A 
BRANCH  10  11
ATOM     11  O   UNL     1       1.740   7.333  21.563  0.00  0.00    +0.000 OA
ATOM     12  H   UNL     1       0.843   7.473  21.910  0.00  0.00    +0.000 HD
ENDBRANCH  10  11
ENDBRANCH   4   5
BRANCH   4  13
ATOM     13  C   UNL     1       2.012   4.735  20.080  0.00  0.00    +0.000 C 
ATOM     14  O   UNL     1       1.080   4.326  19.390  0.00  0.00    +0.000 OA
BRANCH  13  16
ATOM     15  C   UNL     1       1.984   3.015  21.670  0.00  0.00    +0.000 C 
ATOM     16  O   UNL     1       2.184   4.404  21.396  0.00  0.00    +0.000 OA
ENDBRANCH  13  16
ENDBRANCH   4  13
ENDBRANCH   2   4
ENDBRANCH   1   2
BRANCH   1  17
ATOM     17  C   UNL     1       4.207   3.176  17.045  0.00  0.00    +0.000 C 
BRANCH  17  18
ATOM     18  N   UNL     1       4.692   4.180  16.093  0.00  0.00    +0.000 NA
ATOM     19  H   UNL     1       4.472   5.109  16.454  0.00  0.00    +0.000 HD
BRANCH  18  20
ATOM     20  C   UNL     1       6.171   4.136  15.901  0.00  0.00    +0.000 C 
BRANCH  20  21
ATOM     21  C   UNL     1       6.840   5.085  16.891  0.00  0.00    +0.000 A 
ATOM     22  C   UNL     1       7.678   4.562  17.895  0.00  0.00    +0.000 A 
ATOM     23  C   UNL     1       8.247   5.387  18.867  0.00  0.00    +0.000 A 
ATOM     24  C   UNL     1       8.006   6.756  18.838  0.00  0.00    +0.000 A 
ATOM     25  C   UNL     1       7.210   7.301  17.830  0.00  0.00    +0.000 A 
ATOM     26  C   UNL     1       6.632   6.468  16.868  0.00  0.00    +0.000 A 
BRANCH  26  27
ATOM     27  O   UNL     1       5.849   7.012  15.888  0.00  0.00    +0.000 OA
ATOM     28  H   UNL     1       6.172   7.907  15.692  0.00  0.00    +0.000 HD
ENDBRANCH  26  27
ENDBRANCH  20  21
BRANCH  20  29
ATOM     29  C   UNL     1       6.567   4.532  14.454  0.00  0.00    +0.000 C 
ATOM     30  O   UNL     1       7.601   5.109  14.126  0.00  0.00    +0.000 OA
BRANCH  29  31
ATOM     31  O   UNL     1       5.588   4.171  13.567  0.00  0.00    +0.000 OA
ATOM     32  C   UNL     1       6.048   3.301  12.532  0.00  0.00    +0.000 C 
ENDBRANCH  29  31
ENDBRANCH  20  29
ENDBRANCH  18  20
ENDBRANCH  17  18
ENDBRANCH   1  17
TORSDOF 13
ENDMDL
MODEL 2
REMARK VINA RESULT:      -7.3      1.683      7.071
REMARK  Name = 
REMARK  15 active torsions:
REMARK  status: ('A' for Active; 'I' for Inactive)
REMARK    1  A    between atoms: C_1  and  O_2
REMARK    2  A    between atoms: O_2  and  C_3
REMARK    3  A    between atoms: C_3  and  C_5
REMARK    4  A    between atoms: C_5  and  N_6
REMARK    5  A    between atoms: C_5  and  C_22
REMARK    6  A    between atoms: N_6  and  C_7
REMARK    7  A    between atoms: C_7  and  C_8
REMARK    8  A    between atoms: C_8  and  N_9
REMARK    9  A    between atoms: N_9  and  C_10
REMARK   10  A    between atoms: C_10  and  C_11
REMARK   11  A    between atoms: C_10  and  C_15
REMARK   12  A    between atoms: C_11  and  O_13
REMARK   13  A    between atoms: O_13  and  C_14
REMARK   14  A    between atoms: C_20  and  O_21
REMARK   15  A    between atoms: C_27  and  O_28
REMARK                            x       y       z     vdW  Elec       q    Type
REMARK                         _______ _______ _______ _____ _____    ______ ____
ROOT
ATOM      1  C   UNL     1       6.560   4.354  18.484  0.00  0.00    +0.000 C 
ENDROOT
BRANCH   1   2
ATOM      2  N   UNL     1       6.185   4.151  17.080  0.00  0.00    +0.000 NA
ATOM      3  H   UNL     1       6.336   3.172  16.835  0.00  0.00    +0.000 HD
BRANCH   2   4
ATOM      4  C   UNL     1       7.010   4.964  16.138  0.00  0.00    +0.000 C 
BRANCH   4   5
ATOM      5  C   UNL     1       6.736   4.519  14.705  0.00  0.00    +0.000 A 
ATOM      6  C   UNL     1       5.668   3.636  14.445  0.00  0.00    +0.000 A 
ATOM      7  C   UNL     1       5.327   3.283  13.140  0.00  0.00    +0.000 A 
ATOM      8  C   UNL     1       6.055   3.795  12.071  0.00  0.00    +0.000 A 
ATOM      9  C   UNL     1       7.141   4.638  12.308  0.00  0.00    +0.000 A 
ATOM     10  C   UNL     1       7.477   4.991  13.618  0.00  0.00    +0.000 A 
BRANCH  10  11
ATOM     11  O   UNL     1       8.546   5.811  13.845  0.00  0.00    +0.000 OA
ATOM     12  H   UNL     1       9.355   5.353  13.559  0.00  0.00    +0.000 HD
ENDBRANCH  10  11
ENDBRANCH   4   5
BRANCH   4  13
ATOM     13  C   UNL     1       6.708   6.480  16.256  0.00  0.00    +0.000 C 
ATOM     14  O   UNL     1       5.615   7.011  16.068  0.00  0.00    +0.000 OA
BRANCH  13  16
ATOM     15  C   UNL     1       7.669   8.109  17.638  0.00  0.00    +0.000 C 
ATOM     16  O   UNL     1       7.844   7.174  16.571  0.00  0.00    +0.000 OA
ENDBRANCH  13  16
ENDBRANCH   4  13
ENDBRANCH   2   4
ENDBRANCH   1   2
BRANCH   1  17
ATOM     17  C   UNL     1       5.314   4.695  19.333  0.00  0.00    +0.000 C 
BRANCH  17  18
ATOM     18  N   UNL     1       4.592   5.824  18.738  0.00  0.00    +0.000 NA
ATOM     19  H   UNL     1       4.367   5.596  17.769  0.00  0.00    +0.000 HD
BRANCH  18  20
ATOM     20  C   UNL     1       3.298   6.115  19.421  0.00  0.00    +0.000 C 
BRANCH  20  21
ATOM     21  C   UNL     1       2.405   4.878  19.362  0.00  0.00    +0.000 A 
ATOM     22  C   UNL     1       1.692   4.482  20.511  0.00  0.00    +0.000 A 
ATOM     23  C   UNL     1       0.926   3.316  20.522  0.00  0.00    +0.000 A 
ATOM     24  C   UNL     1       0.839   2.535  19.375  0.00  0.00    +0.000 A 
ATOM     25  C   UNL     1       1.506   2.928  18.214  0.00  0.00    +0.000 A 
ATOM     26  C   UNL     1       2.283   4.090  18.212  0.00  0.00    +0.000 A 
BRANCH  26  27
ATOM     27  O   UNL     1       2.936   4.464  17.071  0.00  0.00    +0.000 OA
ATOM     28  H   UNL     1       2.854   3.750  16.418  0.00  0.00    +0.000 HD
ENDBRANCH  26  27
ENDBRANCH  20  21
BRANCH  20  29
ATOM     29  C   UNL     1       2.567   7.315  18.763  0.00  0.00    +0.000 C 
ATOM     30  O   UNL     1       2.607   7.613  17.572  0.00  0.00    +0.000 OA
BRANCH  29  31
ATOM     31  O   UNL     1       1.869   8.030  19.699  0.00  0.00    +0.000 OA
ATOM     32  C   UNL     1       1.309   9.241  19.191  0.00  0.00    +0.000 C 
ENDBRANCH  29  31
ENDBRANCH  20  29
ENDBRANCH  18  20
ENDBRANCH  17  18
ENDBRANCH   1  17
TORSDOF 13
ENDMDL
MODEL 3
REMARK VINA RESULT:      -7.3      1.505      7.178
REMARK  Name = 
REMARK  15 active torsions:
REMARK  status: ('A' for Active; 'I' for Inactive)
REMARK    1  A    between atoms: C_1  and  O_2
REMARK    2  A    between atoms: O_2  and  C_3
REMARK    3  A    between atoms: C_3  and  C_5
REMARK    4  A    between atoms: C_5  and  N_6
REMARK    5  A    between atoms: C_5  and  C_22
REMARK    6  A    between atoms: N_6  and  C_7
REMARK    7  A    between atoms: C_7  and  C_8
REMARK    8  A    between atoms: C_8  and  N_9
REMARK    9  A    between atoms: N_9  and  C_10
REMARK   10  A    between atoms: C_10  and  C_11
REMARK   11  A    between atoms: C_10  and  C_15
REMARK   12  A    between atoms: C_11  and  O_13
REMARK   13  A    between atoms: O_13  and  C_14
REMARK   14  A    between atoms: C_20  and  O_21
REMARK   15  A    between atoms: C_27  and  O_28
REMARK                            x       y       z     vdW  Elec       q    Type
REMARK                         _______ _______ _______ _____ _____    ______ ____
ROOT
ATOM      1  C   UNL     1       6.576   4.276  18.378  0.00  0.00    +0.000 C 
ENDROOT
BRANCH   1   2
ATOM      2  N   UNL     1       6.260   4.020  16.969  0.00  0.00    +0.000 NA
ATOM      3  H   UNL     1       6.517   3.059  16.742  0.00  0.00    +0.000 HD
BRANCH   2   4
ATOM      4  C   UNL     1       7.019   4.902  16.035  0.00  0.00    +0.000 C 
BRANCH   4   5
ATOM      5  C   UNL     1       6.736   4.486  14.596  0.00  0.00    +0.000 A 
ATOM      6  C   UNL     1       5.640   3.643  14.319  0.00  0.00    +0.000 A 
ATOM      7  C   UNL     1       5.292   3.320  13.008  0.00  0.00    +0.000 A 
ATOM      8  C   UNL     1       6.042   3.821  11.950  0.00  0.00    +0.000 A 
ATOM      9  C   UNL     1       7.154   4.624  12.202  0.00  0.00    +0.000 A 
ATOM     10  C   UNL     1       7.497   4.948  13.518  0.00  0.00    +0.000 A 
BRANCH  10  11
ATOM     11  O   UNL     1       8.592   5.728  13.759  0.00  0.00    +0.000 OA
ATOM     12  H   UNL     1       8.605   6.454  13.113  0.00  0.00    +0.000 HD
ENDBRANCH  10  11
ENDBRANCH   4   5
BRANCH   4  13
ATOM     13  C   UNL     1       6.642   6.396  16.207  0.00  0.00    +0.000 C 
ATOM     14  O   UNL     1       5.514   6.870  16.082  0.00  0.00    +0.000 OA
BRANCH  13  16
ATOM     15  C   UNL     1       7.728   7.743  17.786  0.00  0.00    +0.000 C 
ATOM     16  O   UNL     1       7.752   7.144  16.488  0.00  0.00    +0.000 OA
ENDBRANCH  13  16
ENDBRANCH   4  13
ENDBRANCH   2   4
ENDBRANCH   1   2
BRANCH   1  17
ATOM     17  C   UNL     1       5.281   4.359  19.218  0.00  0.00    +0.000 C 
BRANCH  17  18
ATOM     18  N   UNL     1       4.579   5.616  18.940  0.00  0.00    +0.000 NA
ATOM     19  H   UNL     1       4.292   5.622  17.960  0.00  0.00    +0.000 HD
BRANCH  18  20
ATOM     20  C   UNL     1       3.339   5.785  19.751  0.00  0.00    +0.000 C 
BRANCH  20  21
ATOM     21  C   UNL     1       2.415   4.592  19.518  0.00  0.00    +0.000 A 
ATOM     22  C   UNL     1       2.016   4.270  18.206  0.00  0.00    +0.000 A 
ATOM     23  C   UNL     1       1.112   3.236  17.956  0.00  0.00    +0.000 A 
ATOM     24  C   UNL     1       0.607   2.489  19.015  0.00  0.00    +0.000 A 
ATOM     25  C   UNL     1       1.018   2.766  20.319  0.00  0.00    +0.000 A 
ATOM     26  C   UNL     1       1.913   3.811  20.564  0.00  0.00    +0.000 A 
BRANCH  26  27
ATOM     27  O   UNL     1       2.305   4.077  21.846  0.00  0.00    +0.000 OA
ATOM     28  H   UNL     1       2.233   5.033  22.002  0.00  0.00    +0.000 HD
ENDBRANCH  26  27
ENDBRANCH  20  21
BRANCH  20  29
ATOM     29  C   UNL     1       2.595   7.096  19.385  0.00  0.00    +0.000 C 
ATOM     30  O   UNL     1       1.776   7.678  20.092  0.00  0.00    +0.000 OA
BRANCH  29  31
ATOM     31  O   UNL     1       2.958   7.526  18.136  0.00  0.00    +0.000 OA
ATOM     32  C   UNL     1       2.236   8.677  17.697  0.00  0.00    +0.000 C 
ENDBRANCH  29  31
ENDBRANCH  20  29
ENDBRANCH  18  20
ENDBRANCH  17  18
ENDBRANCH   1  17
TORSDOF 13
ENDMDL
MODEL 4
REMARK VINA RESULT:      -7.3      3.185      6.098
REMARK  Name = 
REMARK  15 active torsions:
REMARK  status: ('A' for Active; 'I' for Inactive)
REMARK    1  A    between atoms: C_1  and  O_2
REMARK    2  A    between atoms: O_2  and  C_3
REMARK    3  A    between atoms: C_3  and  C_5
REMARK    4  A    between atoms: C_5  and  N_6
REMARK    5  A    between atoms: C_5  and  C_22
REMARK    6  A    between atoms: N_6  and  C_7
REMARK    7  A    between atoms: C_7  and  C_8
REMARK    8  A    between atoms: C_8  and  N_9
REMARK    9  A    between atoms: N_9  and  C_10
REMARK   10  A    between atoms: C_10  and  C_11
REMARK   11  A    between atoms: C_10  and  C_15
REMARK   12  A    between atoms: C_11  and  O_13
REMARK   13  A    between atoms: O_13  and  C_14
REMARK   14  A    between atoms: C_20  and  O_21
REMARK   15  A    between atoms: C_27  and  O_28
REMARK                            x       y       z     vdW  Elec       q    Type
REMARK                         _______ _______ _______ _____ _____    ______ ____
ROOT
ATOM      1  C   UNL     1       2.156   9.989  18.046  0.00  0.00    +0.000 C 
ENDROOT
BRANCH   1   2
ATOM      2  N   UNL     1       1.090  10.895  18.490  0.00  0.00    +0.000 NA
ATOM      3  H   UNL     1       1.417  11.416  19.303  0.00  0.00    +0.000 HD
BRANCH   2   4
ATOM      4  C   UNL     1      -0.147  10.172  18.908  0.00  0.00    +0.000 C 
BRANCH   4   5
ATOM      5  C   UNL     1      -0.396  10.403  20.394  0.00  0.00    +0.000 A 
ATOM      6  C   UNL     1      -1.031  11.589  20.815  0.00  0.00    +0.000 A 
ATOM      7  C   UNL     1      -1.362  11.793  22.155  0.00  0.00    +0.000 A 
ATOM      8  C   UNL     1      -1.052  10.821  23.100  0.00  0.00    +0.000 A 
ATOM      9  C   UNL     1      -0.387   9.658  22.711  0.00  0.00    +0.000 A 
ATOM     10  C   UNL     1      -0.060   9.457  21.367  0.00  0.00    +0.000 A 
BRANCH  10  11
ATOM     11  O   UNL     1       0.598   8.320  20.993  0.00  0.00    +0.000 OA
ATOM     12  H   UNL     1       0.998   8.465  20.120  0.00  0.00    +0.000 HD
ENDBRANCH  10  11
ENDBRANCH   4   5
BRANCH   4  13
ATOM     13  C   UNL     1      -1.393  10.639  18.114  0.00  0.00    +0.000 C 
ATOM     14  O   UNL     1      -1.524  11.729  17.559  0.00  0.00    +0.000 OA
BRANCH  13  16
ATOM     15  C   UNL     1      -3.591  10.086  17.519  0.00  0.00    +0.000 C 
ATOM     16  O   UNL     1      -2.367   9.678  18.136  0.00  0.00    +0.000 OA
ENDBRANCH  13  16
ENDBRANCH   4  13
ENDBRANCH   2   4
ENDBRANCH   1   2
BRANCH   1  17
ATOM     17  C   UNL     1       1.606   8.557  17.855  0.00  0.00    +0.000 C 
BRANCH  17  18
ATOM     18  N   UNL     1       2.354   7.614  18.692  0.00  0.00    +0.000 NA
ATOM     19  H   UNL     1       1.762   7.326  19.472  0.00  0.00    +0.000 HD
BRANCH  18  20
ATOM     20  C   UNL     1       2.741   6.369  17.965  0.00  0.00    +0.000 C 
BRANCH  20  21
ATOM     21  C   UNL     1       2.117   5.162  18.661  0.00  0.00    +0.000 A 
ATOM     22  C   UNL     1       1.685   4.064  17.891  0.00  0.00    +0.000 A 
ATOM     23  C   UNL     1       1.040   2.975  18.479  0.00  0.00    +0.000 A 
ATOM     24  C   UNL     1       0.836   2.953  19.855  0.00  0.00    +0.000 A 
ATOM     25  C   UNL     1       1.290   4.012  20.642  0.00  0.00    +0.000 A 
ATOM     26  C   UNL     1       1.923   5.106  20.046  0.00  0.00    +0.000 A 
BRANCH  26  27
ATOM     27  O   UNL     1       2.359   6.141  20.825  0.00  0.00    +0.000 OA
ATOM     28  H   UNL     1       2.534   5.804  21.719  0.00  0.00    +0.000 HD
ENDBRANCH  26  27
ENDBRANCH  20  21
BRANCH  20  29
ATOM     29  C   UNL     1       4.282   6.198  17.913  0.00  0.00    +0.000 C 
ATOM     30  O   UNL     1       4.982   6.308  16.910  0.00  0.00    +0.000 OA
BRANCH  29  31
ATOM     31  O   UNL     1       4.776   5.881  19.150  0.00  0.00    +0.000 OA
ATOM     32  C   UNL     1       6.014   5.170  19.105  0.00  0.00    +0.000 C 
ENDBRANCH  29  31
ENDBRANCH  20  29
ENDBRANCH  18  20
ENDBRANCH  17  18
ENDBRANCH   1  17
TORSDOF 13
ENDMDL
MODEL 5
REMARK VINA RESULT:      -7.2      1.011      1.375
REMARK  Name = 
REMARK  15 active torsions:
REMARK  status: ('A' for Active; 'I' for Inactive)
REMARK    1  A    between atoms: C_1  and  O_2
REMARK    2  A    between atoms: O_2  and  C_3
REMARK    3  A    between atoms: C_3  and  C_5
REMARK    4  A    between atoms: C_5  and  N_6
REMARK    5  A    between atoms: C_5  and  C_22
REMARK    6  A    between atoms: N_6  and  C_7
REMARK    7  A    between atoms: C_7  and  C_8
REMARK    8  A    between atoms: C_8  and  N_9
REMARK    9  A    between atoms: N_9  and  C_10
REMARK   10  A    between atoms: C_10  and  C_11
REMARK   11  A    between atoms: C_10  and  C_15
REMARK   12  A    between atoms: C_11  and  O_13
REMARK   13  A    between atoms: O_13  and  C_14
REMARK   14  A    between atoms: C_20  and  O_21
REMARK   15  A    between atoms: C_27  and  O_28
REMARK                            x       y       z     vdW  Elec       q    Type
REMARK                         _______ _______ _______ _____ _____    ______ ____
ROOT
ATOM      1  C   UNL     1       4.447   4.060  18.577  0.00  0.00    +0.000 C 
ENDROOT
BRANCH   1   2
ATOM      2  N   UNL     1       3.962   5.444  18.520  0.00  0.00    +0.000 NA
ATOM      3  H   UNL     1       4.738   6.074  18.723  0.00  0.00    +0.000 HD
BRANCH   2   4
ATOM      4  C   UNL     1       2.900   5.727  19.530  0.00  0.00    +0.000 C 
BRANCH   4   5
ATOM      5  C   UNL     1       2.352   7.133  19.314  0.00  0.00    +0.000 A 
ATOM      6  C   UNL     1       2.458   7.732  18.042  0.00  0.00    +0.000 A 
ATOM      7  C   UNL     1       1.884   8.975  17.780  0.00  0.00    +0.000 A 
ATOM      8  C   UNL     1       1.204   9.650  18.789  0.00  0.00    +0.000 A 
ATOM      9  C   UNL     1       1.121   9.094  20.065  0.00  0.00    +0.000 A 
ATOM     10  C   UNL     1       1.696   7.846  20.322  0.00  0.00    +0.000 A 
BRANCH  10  11
ATOM     11  O   UNL     1       1.619   7.311  21.576  0.00  0.00    +0.000 OA
ATOM     12  H   UNL     1       2.442   6.826  21.759  0.00  0.00    +0.000 HD
ENDBRANCH  10  11
ENDBRANCH   4   5
BRANCH   4  13
ATOM     13  C   UNL     1       1.729   4.715  19.446  0.00  0.00    +0.000 C 
ATOM     14  O   UNL     1       1.266   4.239  18.411  0.00  0.00    +0.000 OA
BRANCH  13  16
ATOM     15  C   UNL     1       2.145   3.689  21.511  0.00  0.00    +0.000 C 
ATOM     16  O   UNL     1       1.241   4.438  20.694  0.00  0.00    +0.000 OA
ENDBRANCH  13  16
ENDBRANCH   4  13
ENDBRANCH   2   4
ENDBRANCH   1   2
BRANCH   1  17
ATOM     17  C   UNL     1       4.396   3.411  17.175  0.00  0.00    +0.000 C 
BRANCH  17  18
ATOM     18  N   UNL     1       4.897   4.350  16.166  0.00  0.00    +0.000 NA
ATOM     19  H   UNL     1       4.584   5.291  16.409  0.00  0.00    +0.000 HD
BRANCH  18  20
ATOM     20  C   UNL     1       6.386   4.397  16.100  0.00  0.00    +0.000 C 
BRANCH  20  21
ATOM     21  C   UNL     1       6.891   5.597  16.896  0.00  0.00    +0.000 A 
ATOM     22  C   UNL     1       6.529   6.898  16.495  0.00  0.00    +0.000 A 
ATOM     23  C   UNL     1       7.030   8.025  17.148  0.00  0.00    +0.000 A 
ATOM     24  C   UNL     1       7.888   7.870  18.232  0.00  0.00    +0.000 A 
ATOM     25  C   UNL     1       8.230   6.591  18.671  0.00  0.00    +0.000 A 
ATOM     26  C   UNL     1       7.736   5.466  18.004  0.00  0.00    +0.000 A 
BRANCH  26  27
ATOM     27  O   UNL     1       8.081   4.218  18.439  0.00  0.00    +0.000 OA
ATOM     28  H   UNL     1       9.032   4.088  18.290  0.00  0.00    +0.000 HD
ENDBRANCH  26  27
ENDBRANCH  20  21
BRANCH  20  29
ATOM     29  C   UNL     1       6.886   4.498  14.635  0.00  0.00    +0.000 C 
ATOM     30  O   UNL     1       7.682   5.330  14.205  0.00  0.00    +0.000 OA
BRANCH  29  31
ATOM     31  O   UNL     1       6.301   3.536  13.856  0.00  0.00    +0.000 OA
ATOM     32  C   UNL     1       6.454   3.766  12.455  0.00  0.00    +0.000 C 
ENDBRANCH  29  31
ENDBRANCH  20  29
ENDBRANCH  18  20
ENDBRANCH  17  18
ENDBRANCH   1  17
TORSDOF 13
ENDMDL
MODEL 6
REMARK VINA RESULT:      -7.1      1.531      6.968
REMARK  Name = 
REMARK  15 active torsions:
REMARK  status: ('A' for Active; 'I' for Inactive)
REMARK    1  A    between atoms: C_1  and  O_2
REMARK    2  A    between atoms: O_2  and  C_3
REMARK    3  A    between atoms: C_3  and  C_5
REMARK    4  A    between atoms: C_5  and  N_6
REMARK    5  A    between atoms: C_5  and  C_22
REMARK    6  A    between atoms: N_6  and  C_7
REMARK    7  A    between atoms: C_7  and  C_8
REMARK    8  A    between atoms: C_8  and  N_9
REMARK    9  A    between atoms: N_9  and  C_10
REMARK   10  A    between atoms: C_10  and  C_11
REMARK   11  A    between atoms: C_10  and  C_15
REMARK   12  A    between atoms: C_11  and  O_13
REMARK   13  A    between atoms: O_13  and  C_14
REMARK   14  A    between atoms: C_20  and  O_21
REMARK   15  A    between atoms: C_27  and  O_28
REMARK                            x       y       z     vdW  Elec       q    Type
REMARK                         _______ _______ _______ _____ _____    ______ ____
ROOT
ATOM      1  C   UNL     1       5.211   3.456  17.720  0.00  0.00    +0.000 C 
ENDROOT
BRANCH   1   2
ATOM      2  N   UNL     1       4.750   4.266  16.587  0.00  0.00    +0.000 NA
ATOM      3  H   UNL     1       4.385   3.646  15.864  0.00  0.00    +0.000 HD
BRANCH   2   4
ATOM      4  C   UNL     1       5.846   5.063  15.962  0.00  0.00    +0.000 C 
BRANCH   4   5
ATOM      5  C   UNL     1       6.114   4.544  14.553  0.00  0.00    +0.000 A 
ATOM      6  C   UNL     1       5.173   3.694  13.936  0.00  0.00    +0.000 A 
ATOM      7  C   UNL     1       5.336   3.278  12.615  0.00  0.00    +0.000 A 
ATOM      8  C   UNL     1       6.448   3.692  11.890  0.00  0.00    +0.000 A 
ATOM      9  C   UNL     1       7.412   4.500  12.494  0.00  0.00    +0.000 A 
ATOM     10  C   UNL     1       7.243   4.917  13.818  0.00  0.00    +0.000 A 
BRANCH  10  11
ATOM     11  O   UNL     1       8.193   5.702  14.407  0.00  0.00    +0.000 OA
ATOM     12  H   UNL     1       8.732   5.147  14.996  0.00  0.00    +0.000 HD
ENDBRANCH  10  11
ENDBRANCH   4   5
BRANCH   4  13
ATOM     13  C   UNL     1       5.500   6.571  15.881  0.00  0.00    +0.000 C 
ATOM     14  O   UNL     1       4.979   7.138  14.921  0.00  0.00    +0.000 OA
BRANCH  13  16
ATOM     15  C   UNL     1       7.259   7.011  17.365  0.00  0.00    +0.000 C 
ATOM     16  O   UNL     1       5.885   7.216  17.025  0.00  0.00    +0.000 OA
ENDBRANCH  13  16
ENDBRANCH   4  13
ENDBRANCH   2   4
ENDBRANCH   1   2
BRANCH   1  17
ATOM     17  C   UNL     1       5.042   4.232  19.046  0.00  0.00    +0.000 C 
BRANCH  17  18
ATOM     18  N   UNL     1       4.335   5.494  18.805  0.00  0.00    +0.000 NA
ATOM     19  H   UNL     1       3.862   5.438  17.902  0.00  0.00    +0.000 HD
BRANCH  18  20
ATOM     20  C   UNL     1       3.282   5.777  19.824  0.00  0.00    +0.000 C 
BRANCH  20  21
ATOM     21  C   UNL     1       2.325   4.590  19.907  0.00  0.00    +0.000 A 
ATOM     22  C   UNL     1       2.068   3.994  21.157  0.00  0.00    +0.000 A 
ATOM     23  C   UNL     1       1.261   2.861  21.267  0.00  0.00    +0.000 A 
ATOM     24  C   UNL     1       0.677   2.315  20.128  0.00  0.00    +0.000 A 
ATOM     25  C   UNL     1       0.887   2.912  18.885  0.00  0.00    +0.000 A 
ATOM     26  C   UNL     1       1.708   4.039  18.779  0.00  0.00    +0.000 A 
BRANCH  26  27
ATOM     27  O   UNL     1       1.911   4.613  17.556  0.00  0.00    +0.000 OA
ATOM     28  H   UNL     1       1.196   5.247  17.386  0.00  0.00    +0.000 HD
ENDBRANCH  26  27
ENDBRANCH  20  21
BRANCH  20  29
ATOM     29  C   UNL     1       2.485   7.062  19.473  0.00  0.00    +0.000 C 
ATOM     30  O   UNL     1       1.765   7.691  20.245  0.00  0.00    +0.000 OA
BRANCH  29  31
ATOM     31  O   UNL     1       2.672   7.404  18.161  0.00  0.00    +0.000 OA
ATOM     32  C   UNL     1       2.100   8.666  17.814  0.00  0.00    +0.000 C 
ENDBRANCH  29  31
ENDBRANCH  20  29
ENDBRANCH  18  20
ENDBRANCH  17  18
ENDBRANCH   1  17
TORSDOF 13
ENDMDL
MODEL 7
REMARK VINA RESULT:      -7.0      3.185      5.857
REMARK  Name = 
REMARK  15 active torsions:
REMARK  status: ('A' for Active; 'I' for Inactive)
REMARK    1  A    between atoms: C_1  and  O_2
REMARK    2  A    between atoms: O_2  and  C_3
REMARK    3  A    between atoms: C_3  and  C_5
REMARK    4  A    between atoms: C_5  and  N_6
REMARK    5  A    between atoms: C_5  and  C_22
REMARK    6  A    between atoms: N_6  and  C_7
REMARK    7  A    between atoms: C_7  and  C_8
REMARK    8  A    between atoms: C_8  and  N_9
REMARK    9  A    between atoms: N_9  and  C_10
REMARK   10  A    between atoms: C_10  and  C_11
REMARK   11  A    between atoms: C_10  and  C_15
REMARK   12  A    between atoms: C_11  and  O_13
REMARK   13  A    between atoms: O_13  and  C_14
REMARK   14  A    between atoms: C_20  and  O_21
REMARK   15  A    between atoms: C_27  and  O_28
REMARK                            x       y       z     vdW  Elec       q    Type
REMARK                         _______ _______ _______ _____ _____    ______ ____
ROOT
ATOM      1  C   UNL     1       2.203   9.550  18.222  0.00  0.00    +0.000 C 
ENDROOT
BRANCH   1   2
ATOM      2  N   UNL     1       0.823   9.807  17.792  0.00  0.00    +0.000 NA
ATOM      3  H   UNL     1       0.838  10.181  16.843  0.00  0.00    +0.000 HD
BRANCH   2   4
ATOM      4  C   UNL     1       0.130  10.817  18.644  0.00  0.00    +0.000 C 
BRANCH   4   5
ATOM      5  C   UNL     1      -1.355  10.844  18.298  0.00  0.00    +0.000 A 
ATOM      6  C   UNL     1      -1.877   9.886  17.406  0.00  0.00    +0.000 A 
ATOM      7  C   UNL     1      -3.244   9.818  17.141  0.00  0.00    +0.000 A 
ATOM      8  C   UNL     1      -4.113  10.715  17.752  0.00  0.00    +0.000 A 
ATOM      9  C   UNL     1      -3.613  11.697  18.607  0.00  0.00    +0.000 A 
ATOM     10  C   UNL     1      -2.242  11.759  18.872  0.00  0.00    +0.000 A 
BRANCH  10  11
ATOM     11  O   UNL     1      -1.757  12.728  19.704  0.00  0.00    +0.000 OA
ATOM     12  H   UNL     1      -1.735  13.571  19.220  0.00  0.00    +0.000 HD
ENDBRANCH  10  11
ENDBRANCH   4   5
BRANCH   4  13
ATOM     13  C   UNL     1       0.286  10.511  20.156  0.00  0.00    +0.000 C 
ATOM     14  O   UNL     1       0.820  11.246  20.985  0.00  0.00    +0.000 OA
BRANCH  13  16
ATOM     15  C   UNL     1      -0.220   8.975  21.851  0.00  0.00    +0.000 C 
ATOM     16  O   UNL     1      -0.228   9.279  20.454  0.00  0.00    +0.000 OA
ENDBRANCH  13  16
ENDBRANCH   4  13
ENDBRANCH   2   4
ENDBRANCH   1   2
BRANCH   1  17
ATOM     17  C   UNL     1       2.723   8.229  17.612  0.00  0.00    +0.000 C 
BRANCH  17  18
ATOM     18  N   UNL     1       2.662   7.154  18.608  0.00  0.00    +0.000 NA
ATOM     19  H   UNL     1       1.701   7.071  18.942  0.00  0.00    +0.000 HD
BRANCH  18  20
ATOM     20  C   UNL     1       3.038   5.821  18.053  0.00  0.00    +0.000 C 
BRANCH  20  21
ATOM     21  C   UNL     1       2.255   4.730  18.778  0.00  0.00    +0.000 A 
ATOM     22  C   UNL     1       1.681   3.679  18.037  0.00  0.00    +0.000 A 
ATOM     23  C   UNL     1       0.893   2.705  18.651  0.00  0.00    +0.000 A 
ATOM     24  C   UNL     1       0.684   2.751  20.025  0.00  0.00    +0.000 A 
ATOM     25  C   UNL     1       1.274   3.760  20.785  0.00  0.00    +0.000 A 
ATOM     26  C   UNL     1       2.051   4.742  20.162  0.00  0.00    +0.000 A 
BRANCH  26  27
ATOM     27  O   UNL     1       2.621   5.730  20.916  0.00  0.00    +0.000 OA
ATOM     28  H   UNL     1       2.111   6.547  20.794  0.00  0.00    +0.000 HD
ENDBRANCH  26  27
ENDBRANCH  20  21
BRANCH  20  29
ATOM     29  C   UNL     1       4.560   5.555  18.203  0.00  0.00    +0.000 C 
ATOM     30  O   UNL     1       5.205   5.653  19.244  0.00  0.00    +0.000 OA
BRANCH  29  31
ATOM     31  O   UNL     1       5.112   5.208  16.999  0.00  0.00    +0.000 OA
ATOM     32  C   UNL     1       6.466   4.766  17.098  0.00  0.00    +0.000 C 
ENDBRANCH  29  31
ENDBRANCH  20  29
ENDBRANCH  18  20
ENDBRANCH  17  18
ENDBRANCH   1  17
TORSDOF 13
ENDMDL
MODEL 8
REMARK VINA RESULT:      -6.9      1.441      6.996
REMARK  Name = 
REMARK  15 active torsions:
REMARK  status: ('A' for Active; 'I' for Inactive)
REMARK    1  A    between atoms: C_1  and  O_2
REMARK    2  A    between atoms: O_2  and  C_3
REMARK    3  A    between atoms: C_3  and  C_5
REMARK    4  A    between atoms: C_5  and  N_6
REMARK    5  A    between atoms: C_5  and  C_22
REMARK    6  A    between atoms: N_6  and  C_7
REMARK    7  A    between atoms: C_7  and  C_8
REMARK    8  A    between atoms: C_8  and  N_9
REMARK    9  A    between atoms: N_9  and  C_10
REMARK   10  A    between atoms: C_10  and  C_11
REMARK   11  A    between atoms: C_10  and  C_15
REMARK   12  A    between atoms: C_11  and  O_13
REMARK   13  A    between atoms: O_13  and  C_14
REMARK   14  A    between atoms: C_20  and  O_21
REMARK   15  A    between atoms: C_27  and  O_28
REMARK                            x       y       z     vdW  Elec       q    Type
REMARK                         _______ _______ _______ _____ _____    ______ ____
ROOT
ATOM      1  C   UNL     1       6.561   4.507  18.360  0.00  0.00    +0.000 C 
ENDROOT
BRANCH   1   2
ATOM      2  N   UNL     1       6.519   4.050  16.966  0.00  0.00    +0.000 NA
ATOM      3  H   UNL     1       6.999   3.151  16.899  0.00  0.00    +0.000 HD
BRANCH   2   4
ATOM      4  C   UNL     1       7.213   4.982  16.029  0.00  0.00    +0.000 C 
BRANCH   4   5
ATOM      5  C   UNL     1       6.919   4.572  14.590  0.00  0.00    +0.000 A 
ATOM      6  C   UNL     1       5.850   3.691  14.324  0.00  0.00    +0.000 A 
ATOM      7  C   UNL     1       5.490   3.370  13.015  0.00  0.00    +0.000 A 
ATOM      8  C   UNL     1       6.201   3.912  11.949  0.00  0.00    +0.000 A 
ATOM      9  C   UNL     1       7.287   4.753  12.191  0.00  0.00    +0.000 A 
ATOM     10  C   UNL     1       7.641   5.074  13.504  0.00  0.00    +0.000 A 
BRANCH  10  11
ATOM     11  O   UNL     1       8.711   5.892  13.735  0.00  0.00    +0.000 OA
ATOM     12  H   UNL     1       9.465   5.574  13.210  0.00  0.00    +0.000 HD
ENDBRANCH  10  11
ENDBRANCH   4   5
BRANCH   4  13
ATOM     13  C   UNL     1       6.766   6.452  16.231  0.00  0.00    +0.000 C 
ATOM     14  O   UNL     1       5.618   6.876  16.113  0.00  0.00    +0.000 OA
BRANCH  13  16
ATOM     15  C   UNL     1       7.674   8.010  17.728  0.00  0.00    +0.000 C 
ATOM     16  O   UNL     1       7.840   7.245  16.531  0.00  0.00    +0.000 OA
ENDBRANCH  13  16
ENDBRANCH   4  13
ENDBRANCH   2   4
ENDBRANCH   1   2
BRANCH   1  17
ATOM     17  C   UNL     1       5.152   4.449  18.992  0.00  0.00    +0.000 C 
BRANCH  17  18
ATOM     18  N   UNL     1       4.522   5.772  18.942  0.00  0.00    +0.000 NA
ATOM     19  H   UNL     1       4.890   6.281  18.137  0.00  0.00    +0.000 HD
BRANCH  18  20
ATOM     20  C   UNL     1       3.042   5.708  18.767  0.00  0.00    +0.000 C 
BRANCH  20  21
ATOM     21  C   UNL     1       2.442   7.091  19.005  0.00  0.00    +0.000 A 
ATOM     22  C   UNL     1       1.827   7.377  20.240  0.00  0.00    +0.000 A 
ATOM     23  C   UNL     1       1.200   8.602  20.471  0.00  0.00    +0.000 A 
ATOM     24  C   UNL     1       1.196   9.574  19.477  0.00  0.00    +0.000 A 
ATOM     25  C   UNL     1       1.832   9.327  18.260  0.00  0.00    +0.000 A 
ATOM     26  C   UNL     1       2.447   8.093  18.029  0.00  0.00    +0.000 A 
BRANCH  26  27
ATOM     27  O   UNL     1       3.062   7.860  16.831  0.00  0.00    +0.000 OA
ATOM     28  H   UNL     1       3.924   7.444  17.000  0.00  0.00    +0.000 HD
ENDBRANCH  26  27
ENDBRANCH  20  21
BRANCH  20  29
ATOM     29  C   UNL     1       2.399   4.688  19.744  0.00  0.00    +0.000 C 
ATOM     30  O   UNL     1       2.544   4.676  20.964  0.00  0.00    +0.000 OA
BRANCH  29  31
ATOM     31  O   UNL     1       1.649   3.769  19.061  0.00  0.00    +0.000 OA
ATOM     32  C   UNL     1       0.696   3.088  19.879  0.00  0.00    +0.000 C 
ENDBRANCH  29  31
ENDBRANCH  20  29
ENDBRANCH  18  20
ENDBRANCH  17  18
ENDBRANCH   1  17
TORSDOF 13
ENDMDL
MODEL 9
REMARK VINA RESULT:      -6.8      3.016      5.649
REMARK  Name = 
REMARK  15 active torsions:
REMARK  status: ('A' for Active; 'I' for Inactive)
REMARK    1  A    between atoms: C_1  and  O_2
REMARK    2  A    between atoms: O_2  and  C_3
REMARK    3  A    between atoms: C_3  and  C_5
REMARK    4  A    between atoms: C_5  and  N_6
REMARK    5  A    between atoms: C_5  and  C_22
REMARK    6  A    between atoms: N_6  and  C_7
REMARK    7  A    between atoms: C_7  and  C_8
REMARK    8  A    between atoms: C_8  and  N_9
REMARK    9  A    between atoms: N_9  and  C_10
REMARK   10  A    between atoms: C_10  and  C_11
REMARK   11  A    between atoms: C_10  and  C_15
REMARK   12  A    between atoms: C_11  and  O_13
REMARK   13  A    between atoms: O_13  and  C_14
REMARK   14  A    between atoms: C_20  and  O_21
REMARK   15  A    between atoms: C_27  and  O_28
REMARK                            x       y       z     vdW  Elec       q    Type
REMARK                         _______ _______ _______ _____ _____    ______ ____
ROOT
ATOM      1  C   UNL     1       2.311   9.728  18.181  0.00  0.00    +0.000 C 
ENDROOT
BRANCH   1   2
ATOM      2  N   UNL     1       0.936   9.834  18.685  0.00  0.00    +0.000 NA
ATOM      3  H   UNL     1       0.396  10.422  18.050  0.00  0.00    +0.000 HD
BRANCH   2   4
ATOM      4  C   UNL     1       0.862  10.469  20.033  0.00  0.00    +0.000 C 
BRANCH   4   5
ATOM      5  C   UNL     1      -0.348  11.396  20.094  0.00  0.00    +0.000 A 
ATOM      6  C   UNL     1      -1.480  11.112  19.304  0.00  0.00    +0.000 A 
ATOM      7  C   UNL     1      -2.640  11.879  19.404  0.00  0.00    +0.000 A 
ATOM      8  C   UNL     1      -2.685  12.953  20.287  0.00  0.00    +0.000 A 
ATOM      9  C   UNL     1      -1.563  13.276  21.049  0.00  0.00    +0.000 A 
ATOM     10  C   UNL     1      -0.404  12.502  20.947  0.00  0.00    +0.000 A 
BRANCH  10  11
ATOM     11  O   UNL     1       0.695  12.828  21.690  0.00  0.00    +0.000 OA
ATOM     12  H   UNL     1       0.865  13.780  21.593  0.00  0.00    +0.000 HD
ENDBRANCH  10  11
ENDBRANCH   4   5
BRANCH   4  13
ATOM     13  C   UNL     1       0.746   9.420  21.168  0.00  0.00    +0.000 C 
ATOM     14  O   UNL     1       0.558   8.214  21.015  0.00  0.00    +0.000 OA
BRANCH  13  16
ATOM     15  C   UNL     1      -0.140   9.585  23.331  0.00  0.00    +0.000 C 
ATOM     16  O   UNL     1       0.847  10.022  22.393  0.00  0.00    +0.000 OA
ENDBRANCH  13  16
ENDBRANCH   4  13
ENDBRANCH   2   4
ENDBRANCH   1   2
BRANCH   1  17
ATOM     17  C   UNL     1       2.527   8.368  17.480  0.00  0.00    +0.000 C 
BRANCH  17  18
ATOM     18  N   UNL     1       2.360   7.272  18.440  0.00  0.00    +0.000 NA
ATOM     19  H   UNL     1       1.377   7.221  18.712  0.00  0.00    +0.000 HD
BRANCH  18  20
ATOM     20  C   UNL     1       2.718   5.939  17.874  0.00  0.00    +0.000 C 
BRANCH  20  21
ATOM     21  C   UNL     1       2.096   4.840  18.732  0.00  0.00    +0.000 A 
ATOM     22  C   UNL     1       1.556   3.697  18.110  0.00  0.00    +0.000 A 
ATOM     23  C   UNL     1       0.910   2.706  18.850  0.00  0.00    +0.000 A 
ATOM     24  C   UNL     1       0.813   2.829  20.232  0.00  0.00    +0.000 A 
ATOM     25  C   UNL     1       1.374   3.934  20.873  0.00  0.00    +0.000 A 
ATOM     26  C   UNL     1       2.008   4.930  20.125  0.00  0.00    +0.000 A 
BRANCH  26  27
ATOM     27  O   UNL     1       2.550   6.011  20.762  0.00  0.00    +0.000 OA
ATOM     28  H   UNL     1       3.280   5.706  21.326  0.00  0.00    +0.000 HD
ENDBRANCH  26  27
ENDBRANCH  20  21
BRANCH  20  29
ATOM     29  C   UNL     1       4.256   5.743  17.814  0.00  0.00    +0.000 C 
ATOM     30  O   UNL     1       5.028   5.839  18.765  0.00  0.00    +0.000 OA
BRANCH  29  31
ATOM     31  O   UNL     1       4.659   5.463  16.536  0.00  0.00    +0.000 OA
ATOM     32  C   UNL     1       5.245   4.168  16.393  0.00  0.00    +0.000 C 
ENDBRANCH  29  31
ENDBRANCH  20  29
ENDBRANCH  18  20
ENDBRANCH  17  18
ENDBRANCH   1  17
TORSDOF 13
ENDMDL
