MODEL 1
REMARK VINA RESULT:      -7.1      0.000      0.000
REMARK  Name = 
REMARK  3 active torsions:
REMARK  status: ('A' for Active; 'I' for Inactive)
REMARK    1  A    between atoms: C_1  and  N_2
REMARK    2  A    between atoms: N_2  and  C_3
REMARK    3  A    between atoms: N_2  and  C_4
REMARK                            x       y       z     vdW  Elec       q    Type
REMARK                         _______ _______ _______ _____ _____    ______ ____
ROOT
ATOM      1  C   UNL     1       6.521   5.592  17.479  0.00  0.00    +0.000 A 
ATOM      2  C   UNL     1       6.726   5.129  16.225  0.00  0.00    +0.000 A 
ATOM      3  C   UNL     1       5.805   4.303  15.466  0.00  0.00    +0.000 A 
ATOM      4 CL   UNL     1       6.270   3.830  13.872  0.00  0.00    +0.000 Cl
ATOM      5  C   UNL     1       4.624   3.917  15.966  0.00  0.00    +0.000 A 
ATOM      6  C   UNL     1       4.290   4.336  17.287  0.00  0.00    +0.000 A 
ATOM      7  C   UNL     1       3.241   4.168  18.093  0.00  0.00    +0.000 A 
ATOM      8  C   UNL     1       1.988   3.463  17.891  0.00  0.00    +0.000 A 
ATOM      9  C   UNL     1       1.118   3.490  18.922  0.00  0.00    +0.000 A 
ATOM     10  N   UNL     1       1.394   4.141  20.114  0.00  0.00    +0.000 N 
ATOM     11  C   UNL     1       2.587   4.820  20.311  0.00  0.00    +0.000 A 
ATOM     12  C   UNL     1       3.519   4.859  19.347  0.00  0.00    +0.000 A 
ATOM     13  N   UNL     1       4.742   5.463  19.307  0.00  0.00    +0.000 NA
ATOM     14  C   UNL     1       5.201   5.175  18.117  0.00  0.00    +0.000 A 
ATOM     15  H   UNL     1       0.696   4.153  20.851  0.00  0.00    +0.000 HD
ENDROOT
BRANCH   1  17
ATOM     16  C   UNL     1       8.156   5.936  19.359  0.00  0.00    +0.000 C 
ATOM     17  N   UNL     1       7.430   6.411  18.180  0.00  0.00    +0.000 N 
ATOM     18  C   UNL     1       7.768   7.769  17.744  0.00  0.00    +0.000 C 
ENDBRANCH   1  17
TORSDOF 1
ENDMDL
MODEL 2
REMARK VINA RESULT:      -7.1      2.600      3.231
REMARK  Name = 
REMARK  3 active torsions:
REMARK  status: ('A' for Active; 'I' for Inactive)
REMARK    1  A    between atoms: C_1  and  N_2
REMARK    2  A    between atoms: N_2  and  C_3
REMARK    3  A    between atoms: N_2  and  C_4
REMARK                            x       y       z     vdW  Elec       q    Type
REMARK                         _______ _______ _______ _____ _____    ______ ____
ROOT
ATOM      1  C   UNL     1       4.999   6.256  17.270  0.00  0.00    +0.000 A 
ATOM      2  C   UNL     1       4.348   7.439  17.347  0.00  0.00    +0.000 A 
ATOM      3  C   UNL     1       2.970   7.621  17.763  0.00  0.00    +0.000 A 
ATOM      4 CL   UNL     1       2.342   9.229  17.795  0.00  0.00    +0.000 Cl
ATOM      5  C   UNL     1       2.198   6.589  18.124  0.00  0.00    +0.000 A 
ATOM      6  C   UNL     1       2.766   5.283  18.081  0.00  0.00    +0.000 A 
ATOM      7  C   UNL     1       2.332   4.054  18.365  0.00  0.00    +0.000 A 
ATOM      8  C   UNL     1       1.048   3.589  18.858  0.00  0.00    +0.000 A 
ATOM      9  C   UNL     1       0.933   2.258  19.051  0.00  0.00    +0.000 A 
ATOM     10  N   UNL     1       1.967   1.374  18.789  0.00  0.00    +0.000 N 
ATOM     11  C   UNL     1       3.197   1.813  18.323  0.00  0.00    +0.000 A 
ATOM     12  C   UNL     1       3.418   3.117  18.102  0.00  0.00    +0.000 A 
ATOM     13  N   UNL     1       4.530   3.776  17.664  0.00  0.00    +0.000 NA
ATOM     14  C   UNL     1       4.172   5.033  17.651  0.00  0.00    +0.000 A 
ATOM     15  H   UNL     1       1.839   0.385  18.974  0.00  0.00    +0.000 HD
ENDROOT
BRANCH   1  17
ATOM     16  C   UNL     1       7.449   6.631  17.694  0.00  0.00    +0.000 C 
ATOM     17  N   UNL     1       6.347   6.117  16.881  0.00  0.00    +0.000 N 
ATOM     18  C   UNL     1       6.749   5.390  15.672  0.00  0.00    +0.000 C 
ENDBRANCH   1  17
TORSDOF 1
ENDMDL
MODEL 3
REMARK VINA RESULT:      -7.0      2.706      3.531
REMARK  Name = 
REMARK  3 active torsions:
REMARK  status: ('A' for Active; 'I' for Inactive)
REMARK    1  A    between atoms: C_1  and  N_2
REMARK    2  A    between atoms: N_2  and  C_3
REMARK    3  A    between atoms: N_2  and  C_4
REMARK                            x       y       z     vdW  Elec       q    Type
REMARK                         _______ _______ _______ _____ _____    ______ ____
ROOT
ATOM      1  C   UNL     1       4.664   6.346  17.324  0.00  0.00    +0.000 A 
ATOM      2  C   UNL     1       3.948   7.491  17.248  0.00  0.00    +0.000 A 
ATOM      3  C   UNL     1       2.791   7.821  18.060  0.00  0.00    +0.000 A 
ATOM      4 CL   UNL     1       2.031   9.349  17.799  0.00  0.00    +0.000 Cl
ATOM      5  C   UNL     1       2.321   6.985  18.994  0.00  0.00    +0.000 A 
ATOM      6  C   UNL     1       2.987   5.737  19.170  0.00  0.00    +0.000 A 
ATOM      7  C   UNL     1       2.826   4.686  19.974  0.00  0.00    +0.000 A 
ATOM      8  C   UNL     1       1.860   4.433  21.028  0.00  0.00    +0.000 A 
ATOM      9  C   UNL     1       1.976   3.252  21.670  0.00  0.00    +0.000 A 
ATOM     10  N   UNL     1       2.949   2.320  21.347  0.00  0.00    +0.000 N 
ATOM     11  C   UNL     1       3.877   2.558  20.344  0.00  0.00    +0.000 A 
ATOM     12  C   UNL     1       3.853   3.704  19.648  0.00  0.00    +0.000 A 
ATOM     13  N   UNL     1       4.656   4.159  18.643  0.00  0.00    +0.000 NA
ATOM     14  C   UNL     1       4.172   5.339  18.357  0.00  0.00    +0.000 A 
ATOM     15  H   UNL     1       3.010   1.456  21.876  0.00  0.00    +0.000 HD
ENDROOT
BRANCH   1  17
ATOM     16  C   UNL     1       7.157   6.359  16.988  0.00  0.00    +0.000 C 
ATOM     17  N   UNL     1       5.797   6.066  16.532  0.00  0.00    +0.000 N 
ATOM     18  C   UNL     1       5.705   5.400  15.229  0.00  0.00    +0.000 C 
ENDBRANCH   1  17
TORSDOF 1
ENDMDL
MODEL 4
REMARK VINA RESULT:      -6.8      2.681      5.076
REMARK  Name = 
REMARK  3 active torsions:
REMARK  status: ('A' for Active; 'I' for Inactive)
REMARK    1  A    between atoms: C_1  and  N_2
REMARK    2  A    between atoms: N_2  and  C_3
REMARK    3  A    between atoms: N_2  and  C_4
REMARK                            x       y       z     vdW  Elec       q    Type
REMARK                         _______ _______ _______ _____ _____    ______ ____
ROOT
ATOM      1  C   UNL     1       6.375   5.669  17.592  0.00  0.00    +0.000 A 
ATOM      2  C   UNL     1       5.243   5.250  18.202  0.00  0.00    +0.000 A 
ATOM      3  C   UNL     1       4.194   4.458  17.586  0.00  0.00    +0.000 A 
ATOM      4 CL   UNL     1       2.833   4.026  18.557  0.00  0.00    +0.000 Cl
ATOM      5  C   UNL     1       4.267   4.056  16.311  0.00  0.00    +0.000 A 
ATOM      6  C   UNL     1       5.413   4.438  15.555  0.00  0.00    +0.000 A 
ATOM      7  C   UNL     1       5.833   4.230  14.307  0.00  0.00    +0.000 A 
ATOM      8  C   UNL     1       5.237   3.483  13.214  0.00  0.00    +0.000 A 
ATOM      9  C   UNL     1       5.934   3.460  12.059  0.00  0.00    +0.000 A 
ATOM     10  N   UNL     1       7.146   4.115  11.907  0.00  0.00    +0.000 N 
ATOM     11  C   UNL     1       7.723   4.826  12.949  0.00  0.00    +0.000 A 
ATOM     12  C   UNL     1       7.114   4.907  14.141  0.00  0.00    +0.000 A 
ATOM     13  N   UNL     1       7.486   5.528  15.297  0.00  0.00    +0.000 NA
ATOM     14  C   UNL     1       6.515   5.262  16.130  0.00  0.00    +0.000 A 
ATOM     15  H   UNL     1       7.644   4.047  11.026  0.00  0.00    +0.000 HD
ENDROOT
BRANCH   1  17
ATOM     16  C   UNL     1       7.731   7.777  17.797  0.00  0.00    +0.000 C 
ATOM     17  N   UNL     1       7.384   6.423  18.227  0.00  0.00    +0.000 N 
ATOM     18  C   UNL     1       8.111   5.935  19.404  0.00  0.00    +0.000 C 
ENDBRANCH   1  17
TORSDOF 1
ENDMDL
MODEL 5
REMARK VINA RESULT:      -6.6      3.029      5.632
REMARK  Name = 
REMARK  3 active torsions:
REMARK  status: ('A' for Active; 'I' for Inactive)
REMARK    1  A    between atoms: C_1  and  N_2
REMARK    2  A    between atoms: N_2  and  C_3
REMARK    3  A    between atoms: N_2  and  C_4
REMARK                            x       y       z     vdW  Elec       q    Type
REMARK                         _______ _______ _______ _____ _____    ______ ____
ROOT
ATOM      1  C   UNL     1       2.374   4.379  19.687  0.00  0.00    +0.000 A 
ATOM      2  C   UNL     1       1.927   5.573  20.138  0.00  0.00    +0.000 A 
ATOM      3  C   UNL     1       2.279   6.870  19.590  0.00  0.00    +0.000 A 
ATOM      4 CL   UNL     1       1.582   8.271  20.321  0.00  0.00    +0.000 Cl
ATOM      5  C   UNL     1       3.106   6.996  18.545  0.00  0.00    +0.000 A 
ATOM      6  C   UNL     1       3.652   5.808  17.979  0.00  0.00    +0.000 A 
ATOM      7  C   UNL     1       4.474   5.536  16.965  0.00  0.00    +0.000 A 
ATOM      8  C   UNL     1       5.134   6.412  16.014  0.00  0.00    +0.000 A 
ATOM      9  C   UNL     1       5.909   5.809  15.088  0.00  0.00    +0.000 A 
ATOM     10  N   UNL     1       6.080   4.435  15.040  0.00  0.00    +0.000 N 
ATOM     11  C   UNL     1       5.449   3.593  15.942  0.00  0.00    +0.000 A 
ATOM     12  C   UNL     1       4.653   4.090  16.900  0.00  0.00    +0.000 A 
ATOM     13  N   UNL     1       3.928   3.470  17.875  0.00  0.00    +0.000 NA
ATOM     14  C   UNL     1       3.337   4.449  18.507  0.00  0.00    +0.000 A 
ATOM     15  H   UNL     1       6.654   4.028  14.309  0.00  0.00    +0.000 HD
ENDROOT
BRANCH   1  17
ATOM     16  C   UNL     1       2.425   2.704  21.562  0.00  0.00    +0.000 C 
ATOM     17  N   UNL     1       1.996   3.134  20.231  0.00  0.00    +0.000 N 
ATOM     18  C   UNL     1       1.092   2.211  19.537  0.00  0.00    +0.000 C 
ENDBRANCH   1  17
TORSDOF 1
ENDMDL
MODEL 6
REMARK VINA RESULT:      -6.5      2.444      3.185
REMARK  Name = 
REMARK  3 active torsions:
REMARK  status: ('A' for Active; 'I' for Inactive)
REMARK    1  A    between atoms: C_1  and  N_2
REMARK    2  A    between atoms: N_2  and  C_3
REMARK    3  A    between atoms: N_2  and  C_4
REMARK                            x       y       z     vdW  Elec       q    Type
REMARK                         _______ _______ _______ _____ _____    ______ ____
ROOT
ATOM      1  C   UNL     1       5.245   5.729  17.976  0.00  0.00    +0.000 A 
ATOM      2  C   UNL     1       4.572   6.834  17.585  0.00  0.00    +0.000 A 
ATOM      3  C   UNL     1       3.228   7.196  17.996  0.00  0.00    +0.000 A 
ATOM      4 CL   UNL     1       2.561   8.664  17.378  0.00  0.00    +0.000 Cl
ATOM      5  C   UNL     1       2.516   6.434  18.836  0.00  0.00    +0.000 A 
ATOM      6  C   UNL     1       3.113   5.233  19.318  0.00  0.00    +0.000 A 
ATOM      7  C   UNL     1       2.737   4.257  20.144  0.00  0.00    +0.000 A 
ATOM      8  C   UNL     1       1.511   4.068  20.898  0.00  0.00    +0.000 A 
ATOM      9  C   UNL     1       1.447   2.956  21.661  0.00  0.00    +0.000 A 
ATOM     10  N   UNL     1       2.480   2.035  21.723  0.00  0.00    +0.000 N 
ATOM     11  C   UNL     1       3.655   2.212  21.008  0.00  0.00    +0.000 A 
ATOM     12  C   UNL     1       3.823   3.286  20.224  0.00  0.00    +0.000 A 
ATOM     13  N   UNL     1       4.876   3.675  19.449  0.00  0.00    +0.000 NA
ATOM     14  C   UNL     1       4.486   4.805  18.921  0.00  0.00    +0.000 A 
ATOM     15  H   UNL     1       2.394   1.227  22.331  0.00  0.00    +0.000 HD
ENDROOT
BRANCH   1  17
ATOM     16  C   UNL     1       6.843   4.687  16.337  0.00  0.00    +0.000 C 
ATOM     17  N   UNL     1       6.560   5.418  17.573  0.00  0.00    +0.000 N 
ATOM     18  C   UNL     1       7.741   5.862  18.320  0.00  0.00    +0.000 C 
ENDBRANCH   1  17
TORSDOF 1
ENDMDL
MODEL 7
REMARK VINA RESULT:      -6.5      2.643      5.100
REMARK  Name = 
REMARK  3 active torsions:
REMARK  status: ('A' for Active; 'I' for Inactive)
REMARK    1  A    between atoms: C_1  and  N_2
REMARK    2  A    between atoms: N_2  and  C_3
REMARK    3  A    between atoms: N_2  and  C_4
REMARK                            x       y       z     vdW  Elec       q    Type
REMARK                         _______ _______ _______ _____ _____    ______ ____
ROOT
ATOM      1  C   UNL     1       2.390   6.035  18.710  0.00  0.00    +0.000 A 
ATOM      2  C   UNL     1       1.629   4.927  18.866  0.00  0.00    +0.000 A 
ATOM      3  C   UNL     1       1.904   3.624  18.291  0.00  0.00    +0.000 A 
ATOM      4 CL   UNL     1       0.797   2.342  18.628  0.00  0.00    +0.000 Cl
ATOM      5  C   UNL     1       2.982   3.400  17.529  0.00  0.00    +0.000 A 
ATOM      6  C   UNL     1       3.865   4.492  17.283  0.00  0.00    +0.000 A 
ATOM      7  C   UNL     1       5.003   4.652  16.608  0.00  0.00    +0.000 A 
ATOM      8  C   UNL     1       5.800   3.707  15.847  0.00  0.00    +0.000 A 
ATOM      9  C   UNL     1       6.923   4.195  15.281  0.00  0.00    +0.000 A 
ATOM     10  N   UNL     1       7.302   5.523  15.403  0.00  0.00    +0.000 N 
ATOM     11  C   UNL     1       6.548   6.429  16.132  0.00  0.00    +0.000 A 
ATOM     12  C   UNL     1       5.416   6.045  16.739  0.00  0.00    +0.000 A 
ATOM     13  N   UNL     1       4.530   6.741  17.508  0.00  0.00    +0.000 NA
ATOM     14  C   UNL     1       3.627   5.856  17.837  0.00  0.00    +0.000 A 
ATOM     15  H   UNL     1       8.169   5.836  14.979  0.00  0.00    +0.000 HD
ENDROOT
BRANCH   1  17
ATOM     16  C   UNL     1       2.005   8.512  18.513  0.00  0.00    +0.000 C 
ATOM     17  N   UNL     1       2.103   7.283  19.300  0.00  0.00    +0.000 N 
ATOM     18  C   UNL     1       1.814   7.432  20.730  0.00  0.00    +0.000 C 
ENDBRANCH   1  17
TORSDOF 1
ENDMDL
MODEL 8
REMARK VINA RESULT:      -6.4      3.150      5.371
REMARK  Name = 
REMARK  3 active torsions:
REMARK  status: ('A' for Active; 'I' for Inactive)
REMARK    1  A    between atoms: C_1  and  N_2
REMARK    2  A    between atoms: N_2  and  C_3
REMARK    3  A    between atoms: N_2  and  C_4
REMARK                            x       y       z     vdW  Elec       q    Type
REMARK                         _______ _______ _______ _____ _____    ______ ____
ROOT
ATOM      1  C   UNL     1       2.145   6.666  19.819  0.00  0.00    +0.000 A 
ATOM      2  C   UNL     1       1.767   5.603  20.565  0.00  0.00    +0.000 A 
ATOM      3  C   UNL     1       2.186   4.229  20.354  0.00  0.00    +0.000 A 
ATOM      4 CL   UNL     1       1.584   3.026  21.437  0.00  0.00    +0.000 Cl
ATOM      5  C   UNL     1       3.020   3.888  19.364  0.00  0.00    +0.000 A 
ATOM      6  C   UNL     1       3.489   4.920  18.500  0.00  0.00    +0.000 A 
ATOM      7  C   UNL     1       4.307   4.972  17.449  0.00  0.00    +0.000 A 
ATOM      8  C   UNL     1       5.063   3.930  16.778  0.00  0.00    +0.000 A 
ATOM      9  C   UNL     1       5.815   4.322  15.729  0.00  0.00    +0.000 A 
ATOM     10  N   UNL     1       5.865   5.639  15.298  0.00  0.00    +0.000 N 
ATOM     11  C   UNL     1       5.149   6.639  15.937  0.00  0.00    +0.000 A 
ATOM     12  C   UNL     1       4.374   6.356  16.994  0.00  0.00    +0.000 A 
ATOM     13  N   UNL     1       3.599   7.161  17.779  0.00  0.00    +0.000 NA
ATOM     14  C   UNL     1       3.083   6.346  18.661  0.00  0.00    +0.000 A 
ATOM     15  H   UNL     1       6.465   5.887  14.519  0.00  0.00    +0.000 HD
ENDROOT
BRANCH   1  17
ATOM     16  C   UNL     1       1.563   8.966  18.986  0.00  0.00    +0.000 C 
ATOM     17  N   UNL     1       1.735   7.992  20.065  0.00  0.00    +0.000 N 
ATOM     18  C   UNL     1       1.383   8.475  21.404  0.00  0.00    +0.000 C 
ENDBRANCH   1  17
TORSDOF 1
ENDMDL
MODEL 9
REMARK VINA RESULT:      -6.1      2.805      5.768
REMARK  Name = 
REMARK  3 active torsions:
REMARK  status: ('A' for Active; 'I' for Inactive)
REMARK    1  A    between atoms: C_1  and  N_2
REMARK    2  A    between atoms: N_2  and  C_3
REMARK    3  A    between atoms: N_2  and  C_4
REMARK                            x       y       z     vdW  Elec       q    Type
REMARK                         _______ _______ _______ _____ _____    ______ ____
ROOT
ATOM      1  C   UNL     1       2.447   4.354  19.860  0.00  0.00    +0.000 A 
ATOM      2  C   UNL     1       1.810   5.476  20.264  0.00  0.00    +0.000 A 
ATOM      3  C   UNL     1       2.187   6.834  19.921  0.00  0.00    +0.000 A 
ATOM      4 CL   UNL     1       1.223   8.123  20.545  0.00  0.00    +0.000 Cl
ATOM      5  C   UNL     1       3.240   7.099  19.137  0.00  0.00    +0.000 A 
ATOM      6  C   UNL     1       4.002   5.999  18.647  0.00  0.00    +0.000 A 
ATOM      7  C   UNL     1       5.072   5.865  17.863  0.00  0.00    +0.000 A 
ATOM      8  C   UNL     1       5.882   6.858  17.181  0.00  0.00    +0.000 A 
ATOM      9  C   UNL     1       6.909   6.385  16.445  0.00  0.00    +0.000 A 
ATOM     10  N   UNL     1       7.193   5.032  16.345  0.00  0.00    +0.000 N 
ATOM     11  C   UNL     1       6.420   4.078  16.991  0.00  0.00    +0.000 A 
ATOM     12  C   UNL     1       5.372   4.443  17.743  0.00  0.00    +0.000 A 
ATOM     13  N   UNL     1       4.474   3.698  18.451  0.00  0.00    +0.000 NA
ATOM     14  C   UNL     1       3.669   4.583  18.977  0.00  0.00    +0.000 A 
ATOM     15  H   UNL     1       7.962   4.725  15.760  0.00  0.00    +0.000 HD
ENDROOT
BRANCH   1  17
ATOM     16  C   UNL     1       1.509   2.115  19.201  0.00  0.00    +0.000 C 
ATOM     17  N   UNL     1       2.041   3.046  20.197  0.00  0.00    +0.000 N 
ATOM     18  C   UNL     1       2.184   2.499  21.549  0.00  0.00    +0.000 C 
ENDBRANCH   1  17
TORSDOF 1
ENDMDL
