MODEL 1
REMARK VINA RESULT:      -7.2      0.000      0.000
REMARK  Name = 
REMARK  7 active torsions:
REMARK  status: ('A' for Active; 'I' for Inactive)
REMARK    1  A    between atoms: C_2  and  C_3
REMARK    2  A    between atoms: C_2  and  C_18
REMARK    3  A    between atoms: C_3  and  N_4
REMARK    4  A    between atoms: N_6  and  C_7
REMARK    5  A    between atoms: C_7  and  C_8
REMARK    6  A    between atoms: C_8  and  C_9
REMARK    7  A    between atoms: C_9  and  O_10
REMARK                            x       y       z     vdW  Elec       q    Type
REMARK                         _______ _______ _______ _____ _____    ______ ____
ROOT
ATOM      1  N   UNL     1       2.831   5.044  18.575  0.00  0.00    +0.000 N 
ATOM      2  C   UNL     1       4.162   4.745  18.446  0.00  0.00    +0.000 A 
ATOM      3  N   UNL     1       5.047   5.416  17.552  0.00  0.00    +0.000 N 
ATOM      4  N   UNL     1       4.584   3.769  19.275  0.00  0.00    +0.000 NA
ATOM      5  C   UNL     1       3.488   3.450  19.971  0.00  0.00    +0.000 A 
ATOM      6  C   UNL     1       3.407   2.528  21.007  0.00  0.00    +0.000 A 
ATOM      7  C   UNL     1       2.156   2.337  21.610  0.00  0.00    +0.000 A 
ATOM      8  C   UNL     1       1.030   3.059  21.159  0.00  0.00    +0.000 A 
ATOM      9  C   UNL     1       1.149   4.007  20.119  0.00  0.00    +0.000 A 
ATOM     10  C   UNL     1       2.413   4.193  19.545  0.00  0.00    +0.000 A 
ATOM     11  H   UNL     1       4.782   6.304  17.110  0.00  0.00    +0.000 HD
ENDROOT
BRANCH   1  12
ATOM     12  C   UNL     1       2.126   6.134  17.864  0.00  0.00    +0.000 C 
BRANCH  12  14
ATOM     13  O   UNL     1       3.331   8.122  17.626  0.00  0.00    +0.000 OA
ATOM     14  C   UNL     1       2.448   7.562  18.264  0.00  0.00    +0.000 C 
BRANCH  14  15
ATOM     15  C   UNL     1       1.744   8.348  19.324  0.00  0.00    +0.000 A 
ATOM     16  C   UNL     1       1.655   7.815  20.630  0.00  0.00    +0.000 A 
ATOM     17  C   UNL     1       0.950   8.485  21.633  0.00  0.00    +0.000 A 
ATOM     18  C   UNL     1       0.319   9.695  21.351  0.00  0.00    +0.000 A 
ATOM     19 BR   UNL     1      -0.697  10.573  22.711  0.00  0.00    +0.000 Br
ATOM     20  C   UNL     1       0.422  10.253  20.072  0.00  0.00    +0.000 A 
ATOM     21  C   UNL     1       1.136   9.590  19.064  0.00  0.00    +0.000 A 
ENDBRANCH  14  15
ENDBRANCH  12  14
ENDBRANCH   1  12
BRANCH   3  22
ATOM     22  C   UNL     1       6.303   4.808  17.162  0.00  0.00    +0.000 C 
BRANCH  22  23
ATOM     23  C   UNL     1       7.456   5.822  17.296  0.00  0.00    +0.000 C 
BRANCH  23  24
ATOM     24  C   UNL     1       7.686   6.208  18.765  0.00  0.00    +0.000 C 
BRANCH  24  25
ATOM     25  O   UNL     1       7.350   5.144  19.611  0.00  0.00    +0.000 OA
ATOM     26  H   UNL     1       7.936   5.219  20.408  0.00  0.00    +0.000 HD
ENDBRANCH  24  25
ENDBRANCH  23  24
ENDBRANCH  22  23
ENDBRANCH   3  22
TORSDOF 7
ENDMDL
MODEL 2
REMARK VINA RESULT:      -7.2      0.963      1.016
REMARK  Name = 
REMARK  7 active torsions:
REMARK  status: ('A' for Active; 'I' for Inactive)
REMARK    1  A    between atoms: C_2  and  C_3
REMARK    2  A    between atoms: C_2  and  C_18
REMARK    3  A    between atoms: C_3  and  N_4
REMARK    4  A    between atoms: N_6  and  C_7
REMARK    5  A    between atoms: C_7  and  C_8
REMARK    6  A    between atoms: C_8  and  C_9
REMARK    7  A    between atoms: C_9  and  O_10
REMARK                            x       y       z     vdW  Elec       q    Type
REMARK                         _______ _______ _______ _____ _____    ______ ____
ROOT
ATOM      1  N   UNL     1       2.755   4.879  18.360  0.00  0.00    +0.000 N 
ATOM      2  C   UNL     1       3.959   4.379  17.934  0.00  0.00    +0.000 A 
ATOM      3  N   UNL     1       4.684   4.888  16.817  0.00  0.00    +0.000 N 
ATOM      4  N   UNL     1       4.429   3.370  18.695  0.00  0.00    +0.000 NA
ATOM      5  C   UNL     1       3.503   3.236  19.650  0.00  0.00    +0.000 A 
ATOM      6  C   UNL     1       3.549   2.361  20.729  0.00  0.00    +0.000 A 
ATOM      7  C   UNL     1       2.470   2.375  21.623  0.00  0.00    +0.000 A 
ATOM      8  C   UNL     1       1.381   3.249  21.412  0.00  0.00    +0.000 A 
ATOM      9  C   UNL     1       1.374   4.144  20.319  0.00  0.00    +0.000 A 
ATOM     10  C   UNL     1       2.472   4.123  19.450  0.00  0.00    +0.000 A 
ATOM     11  H   UNL     1       4.446   5.795  16.400  0.00  0.00    +0.000 HD
ENDROOT
BRANCH   1  12
ATOM     12  C   UNL     1       2.060   6.046  17.775  0.00  0.00    +0.000 C 
BRANCH  12  14
ATOM     13  O   UNL     1       3.506   7.877  17.652  0.00  0.00    +0.000 OA
ATOM     14  C   UNL     1       2.512   7.429  18.208  0.00  0.00    +0.000 C 
BRANCH  14  15
ATOM     15  C   UNL     1       1.816   8.297  19.206  0.00  0.00    +0.000 A 
ATOM     16  C   UNL     1       1.702   7.854  20.543  0.00  0.00    +0.000 A 
ATOM     17  C   UNL     1       1.004   8.603  21.493  0.00  0.00    +0.000 A 
ATOM     18  C   UNL     1       0.403   9.806  21.125  0.00  0.00    +0.000 A 
ATOM     19 BR   UNL     1      -0.605  10.793  22.415  0.00  0.00    +0.000 Br
ATOM     20  C   UNL     1       0.531  10.276  19.814  0.00  0.00    +0.000 A 
ATOM     21  C   UNL     1       1.239   9.533  18.859  0.00  0.00    +0.000 A 
ENDBRANCH  14  15
ENDBRANCH  12  14
ENDBRANCH   1  12
BRANCH   3  22
ATOM     22  C   UNL     1       5.708   4.088  16.175  0.00  0.00    +0.000 C 
BRANCH  22  23
ATOM     23  C   UNL     1       7.011   4.897  16.033  0.00  0.00    +0.000 C 
BRANCH  23  24
ATOM     24  C   UNL     1       7.084   6.019  17.079  0.00  0.00    +0.000 C 
BRANCH  24  25
ATOM     25  O   UNL     1       6.373   7.144  16.644  0.00  0.00    +0.000 OA
ATOM     26  H   UNL     1       6.679   7.906  17.200  0.00  0.00    +0.000 HD
ENDBRANCH  24  25
ENDBRANCH  23  24
ENDBRANCH  22  23
ENDBRANCH   3  22
TORSDOF 7
ENDMDL
MODEL 3
REMARK VINA RESULT:      -7.2      1.234      1.550
REMARK  Name = 
REMARK  7 active torsions:
REMARK  status: ('A' for Active; 'I' for Inactive)
REMARK    1  A    between atoms: C_2  and  C_3
REMARK    2  A    between atoms: C_2  and  C_18
REMARK    3  A    between atoms: C_3  and  N_4
REMARK    4  A    between atoms: N_6  and  C_7
REMARK    5  A    between atoms: C_7  and  C_8
REMARK    6  A    between atoms: C_8  and  C_9
REMARK    7  A    between atoms: C_9  and  O_10
REMARK                            x       y       z     vdW  Elec       q    Type
REMARK                         _______ _______ _______ _____ _____    ______ ____
ROOT
ATOM      1  N   UNL     1       2.866   5.073  18.464  0.00  0.00    +0.000 N 
ATOM      2  C   UNL     1       4.180   4.737  18.259  0.00  0.00    +0.000 A 
ATOM      3  N   UNL     1       5.031   5.386  17.318  0.00  0.00    +0.000 N 
ATOM      4  N   UNL     1       4.619   3.746  19.062  0.00  0.00    +0.000 NA
ATOM      5  C   UNL     1       3.556   3.456  19.817  0.00  0.00    +0.000 A 
ATOM      6  C   UNL     1       3.506   2.533  20.855  0.00  0.00    +0.000 A 
ATOM      7  C   UNL     1       2.286   2.376  21.527  0.00  0.00    +0.000 A 
ATOM      8  C   UNL     1       1.157   3.132  21.142  0.00  0.00    +0.000 A 
ATOM      9  C   UNL     1       1.245   4.080  20.098  0.00  0.00    +0.000 A 
ATOM     10  C   UNL     1       2.479   4.231  19.455  0.00  0.00    +0.000 A 
ATOM     11  H   UNL     1       4.767   6.282  16.894  0.00  0.00    +0.000 HD
ENDROOT
BRANCH   1  12
ATOM     12  C   UNL     1       2.155   6.186  17.796  0.00  0.00    +0.000 C 
BRANCH  12  14
ATOM     13  O   UNL     1       3.390   8.162  17.624  0.00  0.00    +0.000 OA
ATOM     14  C   UNL     1       2.487   7.601  18.232  0.00  0.00    +0.000 C 
BRANCH  14  15
ATOM     15  C   UNL     1       1.772   8.373  19.294  0.00  0.00    +0.000 A 
ATOM     16  C   UNL     1       1.713   7.848  20.605  0.00  0.00    +0.000 A 
ATOM     17  C   UNL     1       1.000   8.504  21.611  0.00  0.00    +0.000 A 
ATOM     18  C   UNL     1       0.330   9.693  21.327  0.00  0.00    +0.000 A 
ATOM     19 BR   UNL     1      -0.696  10.551  22.693  0.00  0.00    +0.000 Br
ATOM     20  C   UNL     1       0.403  10.244  20.044  0.00  0.00    +0.000 A 
ATOM     21  C   UNL     1       1.125   9.595  19.032  0.00  0.00    +0.000 A 
ENDBRANCH  14  15
ENDBRANCH  12  14
ENDBRANCH   1  12
BRANCH   3  22
ATOM     22  C   UNL     1       6.246   4.744  16.857  0.00  0.00    +0.000 C 
BRANCH  22  23
ATOM     23  C   UNL     1       5.957   3.873  15.619  0.00  0.00    +0.000 C 
BRANCH  23  24
ATOM     24  C   UNL     1       6.533   4.511  14.346  0.00  0.00    +0.000 C 
BRANCH  24  25
ATOM     25  O   UNL     1       7.637   5.316  14.656  0.00  0.00    +0.000 OA
ATOM     26  H   UNL     1       7.274   6.184  14.972  0.00  0.00    +0.000 HD
ENDBRANCH  24  25
ENDBRANCH  23  24
ENDBRANCH  22  23
ENDBRANCH   3  22
TORSDOF 7
ENDMDL
MODEL 4
REMARK VINA RESULT:      -7.1      0.791      1.265
REMARK  Name = 
REMARK  7 active torsions:
REMARK  status: ('A' for Active; 'I' for Inactive)
REMARK    1  A    between atoms: C_2  and  C_3
REMARK    2  A    between atoms: C_2  and  C_18
REMARK    3  A    between atoms: C_3  and  N_4
REMARK    4  A    between atoms: N_6  and  C_7
REMARK    5  A    between atoms: C_7  and  C_8
REMARK    6  A    between atoms: C_8  and  C_9
REMARK    7  A    between atoms: C_9  and  O_10
REMARK                            x       y       z     vdW  Elec       q    Type
REMARK                         _______ _______ _______ _____ _____    ______ ____
ROOT
ATOM      1  N   UNL     1       2.966   5.094  18.552  0.00  0.00    +0.000 N 
ATOM      2  C   UNL     1       4.301   4.786  18.496  0.00  0.00    +0.000 A 
ATOM      3  N   UNL     1       5.238   5.453  17.654  0.00  0.00    +0.000 N 
ATOM      4  N   UNL     1       4.669   3.805  19.345  0.00  0.00    +0.000 NA
ATOM      5  C   UNL     1       3.534   3.492  19.978  0.00  0.00    +0.000 A 
ATOM      6  C   UNL     1       3.389   2.569  21.006  0.00  0.00    +0.000 A 
ATOM      7  C   UNL     1       2.105   2.385  21.538  0.00  0.00    +0.000 A 
ATOM      8  C   UNL     1       1.010   3.117  21.027  0.00  0.00    +0.000 A 
ATOM      9  C   UNL     1       1.194   4.066  19.998  0.00  0.00    +0.000 A 
ATOM     10  C   UNL     1       2.489   4.244  19.495  0.00  0.00    +0.000 A 
ATOM     11  H   UNL     1       5.004   6.344  17.201  0.00  0.00    +0.000 HD
ENDROOT
BRANCH   1  12
ATOM     12  C   UNL     1       2.310   6.191  17.806  0.00  0.00    +0.000 C 
BRANCH  12  14
ATOM     13  O   UNL     1       3.449   8.230  17.751  0.00  0.00    +0.000 OA
ATOM     14  C   UNL     1       2.540   7.611  18.289  0.00  0.00    +0.000 C 
BRANCH  14  15
ATOM     15  C   UNL     1       1.721   8.323  19.318  0.00  0.00    +0.000 A 
ATOM     16  C   UNL     1       1.074   9.530  18.967  0.00  0.00    +0.000 A 
ATOM     17  C   UNL     1       0.352  10.261  19.914  0.00  0.00    +0.000 A 
ATOM     18  C   UNL     1       0.266   9.803  21.228  0.00  0.00    +0.000 A 
ATOM     19 BR   UNL     1      -0.669  10.841  22.533  0.00  0.00    +0.000 Br
ATOM     20  C   UNL     1       0.874   8.595  21.586  0.00  0.00    +0.000 A 
ATOM     21  C   UNL     1       1.591   7.853  20.637  0.00  0.00    +0.000 A 
ENDBRANCH  14  15
ENDBRANCH  12  14
ENDBRANCH   1  12
BRANCH   3  22
ATOM     22  C   UNL     1       6.510   4.837  17.333  0.00  0.00    +0.000 C 
BRANCH  22  23
ATOM     23  C   UNL     1       7.615   5.366  18.268  0.00  0.00    +0.000 C 
BRANCH  23  24
ATOM     24  C   UNL     1       7.786   6.885  18.120  0.00  0.00    +0.000 C 
BRANCH  24  25
ATOM     25  O   UNL     1       7.463   7.291  16.820  0.00  0.00    +0.000 OA
ATOM     26  H   UNL     1       7.642   6.516  16.227  0.00  0.00    +0.000 HD
ENDBRANCH  24  25
ENDBRANCH  23  24
ENDBRANCH  22  23
ENDBRANCH   3  22
TORSDOF 7
ENDMDL
MODEL 5
REMARK VINA RESULT:      -7.1      3.229      5.219
REMARK  Name = 
REMARK  7 active torsions:
REMARK  status: ('A' for Active; 'I' for Inactive)
REMARK    1  A    between atoms: C_2  and  C_3
REMARK    2  A    between atoms: C_2  and  C_18
REMARK    3  A    between atoms: C_3  and  N_4
REMARK    4  A    between atoms: N_6  and  C_7
REMARK    5  A    between atoms: C_7  and  C_8
REMARK    6  A    between atoms: C_8  and  C_9
REMARK    7  A    between atoms: C_9  and  O_10
REMARK                            x       y       z     vdW  Elec       q    Type
REMARK                         _______ _______ _______ _____ _____    ______ ____
ROOT
ATOM      1  N   UNL     1       5.476   4.083  16.798  0.00  0.00    +0.000 N 
ATOM      2  C   UNL     1       5.849   4.427  15.524  0.00  0.00    +0.000 A 
ATOM      3  N   UNL     1       5.291   3.849  14.347  0.00  0.00    +0.000 N 
ATOM      4  N   UNL     1       6.781   5.400  15.474  0.00  0.00    +0.000 NA
ATOM      5  C   UNL     1       6.993   5.702  16.759  0.00  0.00    +0.000 A 
ATOM      6  C   UNL     1       7.830   6.698  17.246  0.00  0.00    +0.000 A 
ATOM      7  C   UNL     1       7.914   6.853  18.637  0.00  0.00    +0.000 A 
ATOM      8  C   UNL     1       7.171   6.011  19.494  0.00  0.00    +0.000 A 
ATOM      9  C   UNL     1       6.310   5.023  18.967  0.00  0.00    +0.000 A 
ATOM     10  C   UNL     1       6.231   4.900  17.575  0.00  0.00    +0.000 A 
ATOM     11  H   UNL     1       4.426   3.298  14.385  0.00  0.00    +0.000 HD
ENDROOT
BRANCH   1  12
ATOM     12  C   UNL     1       4.407   3.120  17.145  0.00  0.00    +0.000 C 
BRANCH  12  14
ATOM     13  O   UNL     1       2.086   3.093  16.877  0.00  0.00    +0.000 OA
ATOM     14  C   UNL     1       3.020   3.672  17.418  0.00  0.00    +0.000 C 
BRANCH  14  15
ATOM     15  C   UNL     1       2.703   4.815  18.328  0.00  0.00    +0.000 A 
ATOM     16  C   UNL     1       2.180   4.548  19.613  0.00  0.00    +0.000 A 
ATOM     17  C   UNL     1       1.809   5.587  20.470  0.00  0.00    +0.000 A 
ATOM     18  C   UNL     1       1.950   6.912  20.058  0.00  0.00    +0.000 A 
ATOM     19 BR   UNL     1       1.381   8.327  21.210  0.00  0.00    +0.000 Br
ATOM     20  C   UNL     1       2.495   7.196  18.801  0.00  0.00    +0.000 A 
ATOM     21  C   UNL     1       2.878   6.157  17.942  0.00  0.00    +0.000 A 
ENDBRANCH  14  15
ENDBRANCH  12  14
ENDBRANCH   1  12
BRANCH   3  22
ATOM     22  C   UNL     1       5.988   3.938  13.079  0.00  0.00    +0.000 C 
BRANCH  22  23
ATOM     23  C   UNL     1       5.131   3.332  11.951  0.00  0.00    +0.000 C 
BRANCH  23  24
ATOM     24  C   UNL     1       5.677   1.965  11.513  0.00  0.00    +0.000 C 
BRANCH  24  25
ATOM     25  O   UNL     1       7.077   1.965  11.536  0.00  0.00    +0.000 OA
ATOM     26  H   UNL     1       7.373   2.535  10.779  0.00  0.00    +0.000 HD
ENDBRANCH  24  25
ENDBRANCH  23  24
ENDBRANCH  22  23
ENDBRANCH   3  22
TORSDOF 7
ENDMDL
MODEL 6
REMARK VINA RESULT:      -7.1      1.426      1.903
REMARK  Name = 
REMARK  7 active torsions:
REMARK  status: ('A' for Active; 'I' for Inactive)
REMARK    1  A    between atoms: C_2  and  C_3
REMARK    2  A    between atoms: C_2  and  C_18
REMARK    3  A    between atoms: C_3  and  N_4
REMARK    4  A    between atoms: N_6  and  C_7
REMARK    5  A    between atoms: C_7  and  C_8
REMARK    6  A    between atoms: C_8  and  C_9
REMARK    7  A    between atoms: C_9  and  O_10
REMARK                            x       y       z     vdW  Elec       q    Type
REMARK                         _______ _______ _______ _____ _____    ______ ____
ROOT
ATOM      1  N   UNL     1       2.965   5.666  18.766  0.00  0.00    +0.000 N 
ATOM      2  C   UNL     1       3.795   5.376  17.714  0.00  0.00    +0.000 A 
ATOM      3  N   UNL     1       4.769   6.278  17.195  0.00  0.00    +0.000 N 
ATOM      4  N   UNL     1       3.635   4.131  17.221  0.00  0.00    +0.000 NA
ATOM      5  C   UNL     1       2.686   3.602  18.000  0.00  0.00    +0.000 A 
ATOM      6  C   UNL     1       2.199   2.302  17.942  0.00  0.00    +0.000 A 
ATOM      7  C   UNL     1       1.196   1.942  18.853  0.00  0.00    +0.000 A 
ATOM      8  C   UNL     1       0.706   2.886  19.783  0.00  0.00    +0.000 A 
ATOM      9  C   UNL     1       1.238   4.193  19.833  0.00  0.00    +0.000 A 
ATOM     10  C   UNL     1       2.252   4.522  18.925  0.00  0.00    +0.000 A 
ATOM     11  H   UNL     1       5.049   7.115  17.720  0.00  0.00    +0.000 HD
ENDROOT
BRANCH   1  12
ATOM     12  C   UNL     1       2.993   6.915  19.558  0.00  0.00    +0.000 C 
BRANCH  12  14
ATOM     13  O   UNL     1       2.015   8.285  17.938  0.00  0.00    +0.000 OA
ATOM     14  C   UNL     1       2.066   8.041  19.136  0.00  0.00    +0.000 C 
BRANCH  14  15
ATOM     15  C   UNL     1       1.181   8.826  20.050  0.00  0.00    +0.000 A 
ATOM     16  C   UNL     1       0.451   9.919  19.530  0.00  0.00    +0.000 A 
ATOM     17  C   UNL     1      -0.337  10.719  20.361  0.00  0.00    +0.000 A 
ATOM     18  C   UNL     1      -0.407  10.446  21.726  0.00  0.00    +0.000 A 
ATOM     19 BR   UNL     1      -1.436  11.584  22.867  0.00  0.00    +0.000 Br
ATOM     20  C   UNL     1       0.284   9.350  22.254  0.00  0.00    +0.000 A 
ATOM     21  C   UNL     1       1.068   8.538  21.423  0.00  0.00    +0.000 A 
ENDBRANCH  14  15
ENDBRANCH  12  14
ENDBRANCH   1  12
BRANCH   3  22
ATOM     22  C   UNL     1       5.313   6.093  15.865  0.00  0.00    +0.000 C 
BRANCH  22  23
ATOM     23  C   UNL     1       6.689   5.403  15.939  0.00  0.00    +0.000 C 
BRANCH  23  24
ATOM     24  C   UNL     1       7.210   5.359  17.383  0.00  0.00    +0.000 C 
BRANCH  24  25
ATOM     25  O   UNL     1       6.879   4.140  17.987  0.00  0.00    +0.000 OA
ATOM     26  H   UNL     1       6.835   3.466  17.260  0.00  0.00    +0.000 HD
ENDBRANCH  24  25
ENDBRANCH  23  24
ENDBRANCH  22  23
ENDBRANCH   3  22
TORSDOF 7
ENDMDL
MODEL 7
REMARK VINA RESULT:      -7.0      1.480      1.629
REMARK  Name = 
REMARK  7 active torsions:
REMARK  status: ('A' for Active; 'I' for Inactive)
REMARK    1  A    between atoms: C_2  and  C_3
REMARK    2  A    between atoms: C_2  and  C_18
REMARK    3  A    between atoms: C_3  and  N_4
REMARK    4  A    between atoms: N_6  and  C_7
REMARK    5  A    between atoms: C_7  and  C_8
REMARK    6  A    between atoms: C_8  and  C_9
REMARK    7  A    between atoms: C_9  and  O_10
REMARK                            x       y       z     vdW  Elec       q    Type
REMARK                         _______ _______ _______ _____ _____    ______ ____
ROOT
ATOM      1  N   UNL     1       2.988   5.627  18.616  0.00  0.00    +0.000 N 
ATOM      2  C   UNL     1       3.813   5.242  17.591  0.00  0.00    +0.000 A 
ATOM      3  N   UNL     1       4.811   6.080  17.013  0.00  0.00    +0.000 N 
ATOM      4  N   UNL     1       3.624   3.969  17.189  0.00  0.00    +0.000 NA
ATOM      5  C   UNL     1       2.660   3.521  17.999  0.00  0.00    +0.000 A 
ATOM      6  C   UNL     1       2.141   2.232  18.033  0.00  0.00    +0.000 A 
ATOM      7  C   UNL     1       1.127   1.965  18.963  0.00  0.00    +0.000 A 
ATOM      8  C   UNL     1       0.658   2.985  19.820  0.00  0.00    +0.000 A 
ATOM      9  C   UNL     1       1.223   4.279  19.778  0.00  0.00    +0.000 A 
ATOM     10  C   UNL     1       2.246   4.516  18.853  0.00  0.00    +0.000 A 
ATOM     11  H   UNL     1       5.111   6.945  17.478  0.00  0.00    +0.000 HD
ENDROOT
BRANCH   1  12
ATOM     12  C   UNL     1       3.045   6.930  19.316  0.00  0.00    +0.000 C 
BRANCH  12  14
ATOM     13  O   UNL     1       1.770   8.088  17.738  0.00  0.00    +0.000 OA
ATOM     14  C   UNL     1       2.024   7.984  18.931  0.00  0.00    +0.000 C 
BRANCH  14  15
ATOM     15  C   UNL     1       1.273   8.857  19.886  0.00  0.00    +0.000 A 
ATOM     16  C   UNL     1       1.106   8.429  21.223  0.00  0.00    +0.000 A 
ATOM     17  C   UNL     1       0.357   9.181  22.130  0.00  0.00    +0.000 A 
ATOM     18  C   UNL     1      -0.242  10.371  21.720  0.00  0.00    +0.000 A 
ATOM     19 BR   UNL     1      -1.319  11.362  22.950  0.00  0.00    +0.000 Br
ATOM     20  C   UNL     1      -0.062  10.826  20.409  0.00  0.00    +0.000 A 
ATOM     21  C   UNL     1       0.697  10.080  19.497  0.00  0.00    +0.000 A 
ENDBRANCH  14  15
ENDBRANCH  12  14
ENDBRANCH   1  12
BRANCH   3  22
ATOM     22  C   UNL     1       5.354   5.785  15.702  0.00  0.00    +0.000 C 
BRANCH  22  23
ATOM     23  C   UNL     1       6.869   5.516  15.796  0.00  0.00    +0.000 C 
BRANCH  23  24
ATOM     24  C   UNL     1       7.294   5.241  17.246  0.00  0.00    +0.000 C 
BRANCH  24  25
ATOM     25  O   UNL     1       8.095   4.094  17.313  0.00  0.00    +0.000 OA
ATOM     26  H   UNL     1       7.916   3.574  16.487  0.00  0.00    +0.000 HD
ENDBRANCH  24  25
ENDBRANCH  23  24
ENDBRANCH  22  23
ENDBRANCH   3  22
TORSDOF 7
ENDMDL
MODEL 8
REMARK VINA RESULT:      -6.9      1.542      1.771
REMARK  Name = 
REMARK  7 active torsions:
REMARK  status: ('A' for Active; 'I' for Inactive)
REMARK    1  A    between atoms: C_2  and  C_3
REMARK    2  A    between atoms: C_2  and  C_18
REMARK    3  A    between atoms: C_3  and  N_4
REMARK    4  A    between atoms: N_6  and  C_7
REMARK    5  A    between atoms: C_7  and  C_8
REMARK    6  A    between atoms: C_8  and  C_9
REMARK    7  A    between atoms: C_9  and  O_10
REMARK                            x       y       z     vdW  Elec       q    Type
REMARK                         _______ _______ _______ _____ _____    ______ ____
ROOT
ATOM      1  N   UNL     1       2.825   5.808  18.871  0.00  0.00    +0.000 N 
ATOM      2  C   UNL     1       3.872   5.549  18.025  0.00  0.00    +0.000 A 
ATOM      3  N   UNL     1       4.837   6.521  17.630  0.00  0.00    +0.000 N 
ATOM      4  N   UNL     1       3.937   4.265  17.617  0.00  0.00    +0.000 NA
ATOM      5  C   UNL     1       2.909   3.682  18.241  0.00  0.00    +0.000 A 
ATOM      6  C   UNL     1       2.574   2.334  18.200  0.00  0.00    +0.000 A 
ATOM      7  C   UNL     1       1.450   1.922  18.928  0.00  0.00    +0.000 A 
ATOM      8  C   UNL     1       0.694   2.860  19.665  0.00  0.00    +0.000 A 
ATOM      9  C   UNL     1       1.074   4.220  19.706  0.00  0.00    +0.000 A 
ATOM     10  C   UNL     1       2.210   4.603  18.985  0.00  0.00    +0.000 A 
ATOM     11  H   UNL     1       4.923   7.415  18.127  0.00  0.00    +0.000 HD
ENDROOT
BRANCH   1  12
ATOM     12  C   UNL     1       2.571   7.100  19.547  0.00  0.00    +0.000 C 
BRANCH  12  14
ATOM     13  O   UNL     1       2.388   8.272  17.534  0.00  0.00    +0.000 OA
ATOM     14  C   UNL     1       2.035   8.244  18.706  0.00  0.00    +0.000 C 
BRANCH  14  15
ATOM     15  C   UNL     1       1.078   9.293  19.175  0.00  0.00    +0.000 A 
ATOM     16  C   UNL     1       0.942   9.530  20.561  0.00  0.00    +0.000 A 
ATOM     17  C   UNL     1       0.013  10.454  21.045  0.00  0.00    +0.000 A 
ATOM     18  C   UNL     1      -0.799  11.155  20.156  0.00  0.00    +0.000 A 
ATOM     19 BR   UNL     1      -2.112  12.371  20.829  0.00  0.00    +0.000 Br
ATOM     20  C   UNL     1      -0.657  10.957  18.778  0.00  0.00    +0.000 A 
ATOM     21  C   UNL     1       0.280  10.038  18.286  0.00  0.00    +0.000 A 
ENDBRANCH  14  15
ENDBRANCH  12  14
ENDBRANCH   1  12
BRANCH   3  22
ATOM     22  C   UNL     1       5.651   6.314  16.449  0.00  0.00    +0.000 C 
BRANCH  22  23
ATOM     23  C   UNL     1       7.122   6.083  16.844  0.00  0.00    +0.000 C 
BRANCH  23  24
ATOM     24  C   UNL     1       7.408   4.591  17.069  0.00  0.00    +0.000 C 
BRANCH  24  25
ATOM     25  O   UNL     1       6.926   4.182  18.318  0.00  0.00    +0.000 OA
ATOM     26  H   UNL     1       7.464   3.391  18.584  0.00  0.00    +0.000 HD
ENDBRANCH  24  25
ENDBRANCH  23  24
ENDBRANCH  22  23
ENDBRANCH   3  22
TORSDOF 7
ENDMDL
MODEL 9
REMARK VINA RESULT:      -6.9      1.803      4.339
REMARK  Name = 
REMARK  7 active torsions:
REMARK  status: ('A' for Active; 'I' for Inactive)
REMARK    1  A    between atoms: C_2  and  C_3
REMARK    2  A    between atoms: C_2  and  C_18
REMARK    3  A    between atoms: C_3  and  N_4
REMARK    4  A    between atoms: N_6  and  C_7
REMARK    5  A    between atoms: C_7  and  C_8
REMARK    6  A    between atoms: C_8  and  C_9
REMARK    7  A    between atoms: C_9  and  O_10
REMARK                            x       y       z     vdW  Elec       q    Type
REMARK                         _______ _______ _______ _____ _____    ______ ____
ROOT
ATOM      1  N   UNL     1       3.388   6.235  18.391  0.00  0.00    +0.000 N 
ATOM      2  C   UNL     1       3.271   5.275  19.363  0.00  0.00    +0.000 A 
ATOM      3  N   UNL     1       2.034   4.882  19.952  0.00  0.00    +0.000 N 
ATOM      4  N   UNL     1       4.442   4.696  19.699  0.00  0.00    +0.000 NA
ATOM      5  C   UNL     1       5.331   5.293  18.899  0.00  0.00    +0.000 A 
ATOM      6  C   UNL     1       6.688   5.005  18.811  0.00  0.00    +0.000 A 
ATOM      7  C   UNL     1       7.453   5.751  17.904  0.00  0.00    +0.000 A 
ATOM      8  C   UNL     1       6.848   6.761  17.123  0.00  0.00    +0.000 A 
ATOM      9  C   UNL     1       5.462   7.014  17.218  0.00  0.00    +0.000 A 
ATOM     10  C   UNL     1       4.717   6.243  18.118  0.00  0.00    +0.000 A 
ATOM     11  H   UNL     1       1.137   5.145  19.527  0.00  0.00    +0.000 HD
ENDROOT
BRANCH   1  12
ATOM     12  C   UNL     1       2.259   6.959  17.765  0.00  0.00    +0.000 C 
BRANCH  12  14
ATOM     13  O   UNL     1       2.521   9.249  17.383  0.00  0.00    +0.000 OA
ATOM     14  C   UNL     1       2.052   8.413  18.145  0.00  0.00    +0.000 C 
BRANCH  14  15
ATOM     15  C   UNL     1       1.285   8.900  19.333  0.00  0.00    +0.000 A 
ATOM     16  C   UNL     1       0.348   9.945  19.166  0.00  0.00    +0.000 A 
ATOM     17  C   UNL     1      -0.342  10.474  20.259  0.00  0.00    +0.000 A 
ATOM     18  C   UNL     1      -0.108   9.973  21.538  0.00  0.00    +0.000 A 
ATOM     19 BR   UNL     1      -1.009  10.745  23.037  0.00  0.00    +0.000 Br
ATOM     20  C   UNL     1       0.793   8.918  21.719  0.00  0.00    +0.000 A 
ATOM     21  C   UNL     1       1.481   8.376  20.624  0.00  0.00    +0.000 A 
ENDBRANCH  14  15
ENDBRANCH  12  14
ENDBRANCH   1  12
BRANCH   3  22
ATOM     22  C   UNL     1       2.009   4.188  21.224  0.00  0.00    +0.000 C 
BRANCH  22  23
ATOM     23  C   UNL     1       1.283   2.836  21.084  0.00  0.00    +0.000 C 
BRANCH  23  24
ATOM     24  C   UNL     1       1.509   2.226  19.693  0.00  0.00    +0.000 C 
BRANCH  24  25
ATOM     25  O   UNL     1       0.372   2.395  18.892  0.00  0.00    +0.000 OA
ATOM     26  H   UNL     1       0.691   2.436  17.953  0.00  0.00    +0.000 HD
ENDBRANCH  24  25
ENDBRANCH  23  24
ENDBRANCH  22  23
ENDBRANCH   3  22
TORSDOF 7
ENDMDL
