MODEL 1
REMARK VINA RESULT:      -8.6      0.000      0.000
REMARK  Name = 
REMARK  7 active torsions:
REMARK  status: ('A' for Active; 'I' for Inactive)
REMARK    1  A    between atoms: C_4  and  C_5
REMARK    2  A    between atoms: C_5  and  O_6
REMARK    3  A    between atoms: O_6  and  C_7
REMARK    4  A    between atoms: N_15  and  C_16
REMARK    5  A    between atoms: C_16  and  C_17
REMARK    6  A    between atoms: C_17  and  C_18
REMARK    7  A    between atoms: C_18  and  N_19
REMARK                            x       y       z     vdW  Elec       q    Type
REMARK                         _______ _______ _______ _____ _____    ______ ____
ROOT
ATOM      1  C   UNL     1       5.522   4.521  17.635  0.00  0.00    +0.000 A 
ATOM      2  N   UNL     1       4.782   4.891  16.560  0.00  0.00    +0.000 NA
ATOM      3  C   UNL     1       5.042   6.095  16.007  0.00  0.00    +0.000 A 
ATOM      4  N   UNL     1       5.968   7.002  16.375  0.00  0.00    +0.000 NA
ATOM      5  C   UNL     1       6.666   6.575  17.443  0.00  0.00    +0.000 A 
ATOM      6  C   UNL     1       6.510   5.378  18.127  0.00  0.00    +0.000 A 
ATOM      7  N   UNL     1       7.406   5.292  19.171  0.00  0.00    +0.000 NA
ATOM      8  C   UNL     1       8.092   6.413  19.125  0.00  0.00    +0.000 A 
ATOM      9  N   UNL     1       7.670   7.224  18.107  0.00  0.00    +0.000 N 
ENDROOT
BRANCH   1  10
ATOM     10  O   UNL     1       5.259   3.339  18.288  0.00  0.00    +0.000 OA
BRANCH  10  11
ATOM     11  C   UNL     1       4.763   3.528  19.608  0.00  0.00    +0.000 C 
BRANCH  11  15
ATOM     12  C   UNL     1       0.493   2.943  19.413  0.00  0.00    +0.000 A 
ATOM     13  C   UNL     1       1.324   2.344  18.468  0.00  0.00    +0.000 A 
ATOM     14  C   UNL     1       2.706   2.518  18.539  0.00  0.00    +0.000 A 
ATOM     15  C   UNL     1       3.270   3.297  19.558  0.00  0.00    +0.000 A 
ATOM     16  C   UNL     1       2.426   3.884  20.513  0.00  0.00    +0.000 A 
ATOM     17  C   UNL     1       1.044   3.711  20.438  0.00  0.00    +0.000 A 
ENDBRANCH  11  15
ENDBRANCH  10  11
ENDBRANCH   1  10
BRANCH   9  18
ATOM     18  C   UNL     1       8.228   8.515  17.773  0.00  0.00    +0.000 C 
BRANCH  18  19
ATOM     19  C   UNL     1       8.910   9.188  18.961  0.00  0.00    +0.000 C 
BRANCH  19  20
ATOM     20  C   UNL     1       9.106  10.686  18.719  0.00  0.00    +0.000 C 
BRANCH  20  21
ATOM     21  N   UNL     1      10.488  11.148  18.946  0.00  0.00    +0.000 NA
ATOM     22  C   UNL     1      11.098  11.771  17.743  0.00  0.00    +0.000 C 
ATOM     23  C   UNL     1      10.374  13.037  17.251  0.00  0.00    +0.000 C 
ATOM     24  N   UNL     1      10.144  14.004  18.331  0.00  0.00    +0.000 N 
ATOM     25  C   UNL     1      10.714  15.261  18.215  0.00  0.00    +0.000 A 
ATOM     26  C   UNL     1      10.132  16.352  18.863  0.00  0.00    +0.000 A 
ATOM     27  C   UNL     1      10.680  17.624  18.723  0.00  0.00    +0.000 A 
ATOM     28  C   UNL     1      11.810  17.786  17.940  0.00  0.00    +0.000 A 
ATOM     29  C   UNL     1      12.332  16.664  17.324  0.00  0.00    +0.000 A 
ATOM     30  N   UNL     1      11.806  15.425  17.440  0.00  0.00    +0.000 NA
ATOM     31  C   UNL     1       9.811  13.505  19.672  0.00  0.00    +0.000 C 
ATOM     32  C   UNL     1      10.528  12.176  20.011  0.00  0.00    +0.000 C 
ENDBRANCH  20  21
ENDBRANCH  19  20
ENDBRANCH  18  19
ENDBRANCH   9  18
TORSDOF 7
ENDMDL
MODEL 2
REMARK VINA RESULT:      -8.5      0.721      1.126
REMARK  Name = 
REMARK  7 active torsions:
REMARK  status: ('A' for Active; 'I' for Inactive)
REMARK    1  A    between atoms: C_4  and  C_5
REMARK    2  A    between atoms: C_5  and  O_6
REMARK    3  A    between atoms: O_6  and  C_7
REMARK    4  A    between atoms: N_15  and  C_16
REMARK    5  A    between atoms: C_16  and  C_17
REMARK    6  A    between atoms: C_17  and  C_18
REMARK    7  A    between atoms: C_18  and  N_19
REMARK                            x       y       z     vdW  Elec       q    Type
REMARK                         _______ _______ _______ _____ _____    ______ ____
ROOT
ATOM      1  C   UNL     1       5.501   4.659  17.891  0.00  0.00    +0.000 A 
ATOM      2  N   UNL     1       4.670   4.946  16.858  0.00  0.00    +0.000 NA
ATOM      3  C   UNL     1       4.885   6.096  16.184  0.00  0.00    +0.000 A 
ATOM      4  N   UNL     1       5.845   7.018  16.389  0.00  0.00    +0.000 NA
ATOM      5  C   UNL     1       6.634   6.674  17.423  0.00  0.00    +0.000 A 
ATOM      6  C   UNL     1       6.533   5.541  18.218  0.00  0.00    +0.000 A 
ATOM      7  N   UNL     1       7.519   5.531  19.182  0.00  0.00    +0.000 NA
ATOM      8  C   UNL     1       8.204   6.635  18.980  0.00  0.00    +0.000 A 
ATOM      9  N   UNL     1       7.698   7.363  17.938  0.00  0.00    +0.000 N 
ENDROOT
BRANCH   1  10
ATOM     10  O   UNL     1       5.290   3.540  18.663  0.00  0.00    +0.000 OA
BRANCH  10  11
ATOM     11  C   UNL     1       4.626   3.823  19.889  0.00  0.00    +0.000 C 
BRANCH  11  15
ATOM     12  C   UNL     1       0.485   2.710  19.412  0.00  0.00    +0.000 A 
ATOM     13  C   UNL     1       0.852   3.633  20.390  0.00  0.00    +0.000 A 
ATOM     14  C   UNL     1       2.188   4.007  20.534  0.00  0.00    +0.000 A 
ATOM     15  C   UNL     1       3.172   3.457  19.701  0.00  0.00    +0.000 A 
ATOM     16  C   UNL     1       2.790   2.539  18.710  0.00  0.00    +0.000 A 
ATOM     17  C   UNL     1       1.454   2.165  18.570  0.00  0.00    +0.000 A 
ENDBRANCH  11  15
ENDBRANCH  10  11
ENDBRANCH   1  10
BRANCH   9  18
ATOM     18  C   UNL     1       8.230   8.614  17.447  0.00  0.00    +0.000 C 
BRANCH  18  19
ATOM     19  C   UNL     1       8.576   9.589  18.568  0.00  0.00    +0.000 C 
BRANCH  19  20
ATOM     20  C   UNL     1       9.713  10.529  18.163  0.00  0.00    +0.000 C 
BRANCH  20  21
ATOM     21  N   UNL     1      10.191  11.390  19.260  0.00  0.00    +0.000 NA
ATOM     22  C   UNL     1      11.516  12.002  18.984  0.00  0.00    +0.000 C 
ATOM     23  C   UNL     1      11.539  12.936  17.761  0.00  0.00    +0.000 C 
ATOM     24  N   UNL     1      10.457  13.927  17.795  0.00  0.00    +0.000 N 
ATOM     25  C   UNL     1      10.801  15.269  17.815  0.00  0.00    +0.000 A 
ATOM     26  C   UNL     1       9.913  16.222  17.314  0.00  0.00    +0.000 A 
ATOM     27  C   UNL     1      10.265  17.569  17.300  0.00  0.00    +0.000 A 
ATOM     28  C   UNL     1      11.502  17.945  17.796  0.00  0.00    +0.000 A 
ATOM     29  C   UNL     1      12.333  16.949  18.273  0.00  0.00    +0.000 A 
ATOM     30  N   UNL     1      12.011  15.636  18.284  0.00  0.00    +0.000 NA
ATOM     31  C   UNL     1       9.146  13.530  18.326  0.00  0.00    +0.000 C 
ATOM     32  C   UNL     1       9.255  12.514  19.489  0.00  0.00    +0.000 C 
ENDBRANCH  20  21
ENDBRANCH  19  20
ENDBRANCH  18  19
ENDBRANCH   9  18
TORSDOF 7
ENDMDL
MODEL 3
REMARK VINA RESULT:      -8.5      3.425      9.546
REMARK  Name = 
REMARK  7 active torsions:
REMARK  status: ('A' for Active; 'I' for Inactive)
REMARK    1  A    between atoms: C_4  and  C_5
REMARK    2  A    between atoms: C_5  and  O_6
REMARK    3  A    between atoms: O_6  and  C_7
REMARK    4  A    between atoms: N_15  and  C_16
REMARK    5  A    between atoms: C_16  and  C_17
REMARK    6  A    between atoms: C_17  and  C_18
REMARK    7  A    between atoms: C_18  and  N_19
REMARK                            x       y       z     vdW  Elec       q    Type
REMARK                         _______ _______ _______ _____ _____    ______ ____
ROOT
ATOM      1  C   UNL     1       7.827   7.175  17.731  0.00  0.00    +0.000 A 
ATOM      2  N   UNL     1       8.213   6.827  18.985  0.00  0.00    +0.000 NA
ATOM      3  C   UNL     1       7.763   5.653  19.475  0.00  0.00    +0.000 A 
ATOM      4  N   UNL     1       6.973   4.744  18.872  0.00  0.00    +0.000 NA
ATOM      5  C   UNL     1       6.627   5.146  17.636  0.00  0.00    +0.000 A 
ATOM      6  C   UNL     1       6.994   6.324  17.000  0.00  0.00    +0.000 A 
ATOM      7  N   UNL     1       6.445   6.389  15.737  0.00  0.00    +0.000 NA
ATOM      8  C   UNL     1       5.757   5.276  15.607  0.00  0.00    +0.000 A 
ATOM      9  N   UNL     1       5.827   4.502  16.732  0.00  0.00    +0.000 N 
ENDROOT
BRANCH   1  10
ATOM     10  O   UNL     1       8.192   8.391  17.202  0.00  0.00    +0.000 OA
BRANCH  10  11
ATOM     11  C   UNL     1       7.717   9.497  17.962  0.00  0.00    +0.000 C 
BRANCH  11  15
ATOM     12  C   UNL     1      11.130  11.720  19.382  0.00  0.00    +0.000 A 
ATOM     13  C   UNL     1      10.311  11.045  20.285  0.00  0.00    +0.000 A 
ATOM     14  C   UNL     1       9.217  10.311  19.827  0.00  0.00    +0.000 A 
ATOM     15  C   UNL     1       8.931  10.249  18.456  0.00  0.00    +0.000 A 
ATOM     16  C   UNL     1       9.770  10.920  17.554  0.00  0.00    +0.000 A 
ATOM     17  C   UNL     1      10.862  11.655  18.016  0.00  0.00    +0.000 A 
ENDBRANCH  11  15
ENDBRANCH  10  11
ENDBRANCH   1  10
BRANCH   9  18
ATOM     18  C   UNL     1       5.200   3.211  16.907  0.00  0.00    +0.000 C 
BRANCH  18  19
ATOM     19  C   UNL     1       3.738   3.318  17.333  0.00  0.00    +0.000 C 
BRANCH  19  20
ATOM     20  C   UNL     1       3.557   2.954  18.808  0.00  0.00    +0.000 C 
BRANCH  20  21
ATOM     21  N   UNL     1       2.285   3.425  19.384  0.00  0.00    +0.000 NA
ATOM     22  C   UNL     1       2.472   4.387  20.501  0.00  0.00    +0.000 C 
ATOM     23  C   UNL     1       3.188   5.690  20.101  0.00  0.00    +0.000 C 
ATOM     24  N   UNL     1       2.589   6.314  18.915  0.00  0.00    +0.000 N 
ATOM     25  C   UNL     1       2.065   7.589  19.042  0.00  0.00    +0.000 A 
ATOM     26  C   UNL     1       1.992   8.426  17.927  0.00  0.00    +0.000 A 
ATOM     27  C   UNL     1       1.497   9.722  18.055  0.00  0.00    +0.000 A 
ATOM     28  C   UNL     1       1.077  10.160  19.299  0.00  0.00    +0.000 A 
ATOM     29  C   UNL     1       1.182   9.281  20.360  0.00  0.00    +0.000 A 
ATOM     30  N   UNL     1       1.669   8.025  20.256  0.00  0.00    +0.000 NA
ATOM     31  C   UNL     1       2.085   5.452  17.836  0.00  0.00    +0.000 C 
ATOM     32  C   UNL     1       1.476   4.130  18.362  0.00  0.00    +0.000 C 
ENDBRANCH  20  21
ENDBRANCH  19  20
ENDBRANCH  18  19
ENDBRANCH   9  18
TORSDOF 7
ENDMDL
MODEL 4
REMARK VINA RESULT:      -8.3      5.553      7.503
REMARK  Name = 
REMARK  7 active torsions:
REMARK  status: ('A' for Active; 'I' for Inactive)
REMARK    1  A    between atoms: C_4  and  C_5
REMARK    2  A    between atoms: C_5  and  O_6
REMARK    3  A    between atoms: O_6  and  C_7
REMARK    4  A    between atoms: N_15  and  C_16
REMARK    5  A    between atoms: C_16  and  C_17
REMARK    6  A    between atoms: C_17  and  C_18
REMARK    7  A    between atoms: C_18  and  N_19
REMARK                            x       y       z     vdW  Elec       q    Type
REMARK                         _______ _______ _______ _____ _____    ______ ____
ROOT
ATOM      1  C   UNL     1       3.430   5.011  17.972  0.00  0.00    +0.000 A 
ATOM      2  N   UNL     1       3.407   3.937  18.801  0.00  0.00    +0.000 NA
ATOM      3  C   UNL     1       2.896   4.112  20.038  0.00  0.00    +0.000 A 
ATOM      4  N   UNL     1       2.377   5.233  20.576  0.00  0.00    +0.000 NA
ATOM      5  C   UNL     1       2.428   6.257  19.706  0.00  0.00    +0.000 A 
ATOM      6  C   UNL     1       2.933   6.239  18.414  0.00  0.00    +0.000 A 
ATOM      7  N   UNL     1       2.816   7.481  17.827  0.00  0.00    +0.000 NA
ATOM      8  C   UNL     1       2.254   8.239  18.742  0.00  0.00    +0.000 A 
ATOM      9  N   UNL     1       2.015   7.547  19.898  0.00  0.00    +0.000 N 
ENDROOT
BRANCH   1  10
ATOM     10  O   UNL     1       4.004   4.916  16.726  0.00  0.00    +0.000 OA
BRANCH  10  11
ATOM     11  C   UNL     1       5.287   4.301  16.745  0.00  0.00    +0.000 C 
BRANCH  11  15
ATOM     12  C   UNL     1       8.074   7.060  18.542  0.00  0.00    +0.000 A 
ATOM     13  C   UNL     1       7.383   7.419  17.386  0.00  0.00    +0.000 A 
ATOM     14  C   UNL     1       6.469   6.535  16.813  0.00  0.00    +0.000 A 
ATOM     15  C   UNL     1       6.239   5.280  17.392  0.00  0.00    +0.000 A 
ATOM     16  C   UNL     1       6.929   4.934  18.565  0.00  0.00    +0.000 A 
ATOM     17  C   UNL     1       7.844   5.819  19.134  0.00  0.00    +0.000 A 
ENDBRANCH  11  15
ENDBRANCH  10  11
ENDBRANCH   1  10
BRANCH   9  18
ATOM     18  C   UNL     1       1.391   8.082  21.086  0.00  0.00    +0.000 C 
BRANCH  18  19
ATOM     19  C   UNL     1       0.203   8.987  20.773  0.00  0.00    +0.000 C 
BRANCH  19  20
ATOM     20  C   UNL     1       0.472  10.432  21.195  0.00  0.00    +0.000 C 
BRANCH  20  21
ATOM     21  N   UNL     1      -0.337  11.425  20.463  0.00  0.00    +0.000 NA
ATOM     22  C   UNL     1      -0.221  12.796  21.022  0.00  0.00    +0.000 C 
ATOM     23  C   UNL     1       1.200  13.384  20.968  0.00  0.00    +0.000 C 
ATOM     24  N   UNL     1       1.802  13.267  19.634  0.00  0.00    +0.000 N 
ATOM     25  C   UNL     1       2.165  14.431  18.977  0.00  0.00    +0.000 A 
ATOM     26  C   UNL     1       3.184  14.402  18.023  0.00  0.00    +0.000 A 
ATOM     27  C   UNL     1       3.577  15.575  17.382  0.00  0.00    +0.000 A 
ATOM     28  C   UNL     1       2.939  16.761  17.703  0.00  0.00    +0.000 A 
ATOM     29  C   UNL     1       1.942  16.718  18.659  0.00  0.00    +0.000 A 
ATOM     30  N   UNL     1       1.556  15.591  19.298  0.00  0.00    +0.000 NA
ATOM     31  C   UNL     1       1.528  12.065  18.834  0.00  0.00    +0.000 C 
ATOM     32  C   UNL     1       0.098  11.515  19.050  0.00  0.00    +0.000 C 
ENDBRANCH  20  21
ENDBRANCH  19  20
ENDBRANCH  18  19
ENDBRANCH   9  18
TORSDOF 7
ENDMDL
MODEL 5
REMARK VINA RESULT:      -8.0      6.528      8.823
REMARK  Name = 
REMARK  7 active torsions:
REMARK  status: ('A' for Active; 'I' for Inactive)
REMARK    1  A    between atoms: C_4  and  C_5
REMARK    2  A    between atoms: C_5  and  O_6
REMARK    3  A    between atoms: O_6  and  C_7
REMARK    4  A    between atoms: N_15  and  C_16
REMARK    5  A    between atoms: C_16  and  C_17
REMARK    6  A    between atoms: C_17  and  C_18
REMARK    7  A    between atoms: C_18  and  N_19
REMARK                            x       y       z     vdW  Elec       q    Type
REMARK                         _______ _______ _______ _____ _____    ______ ____
ROOT
ATOM      1  C   UNL     1       5.007   4.804  18.592  0.00  0.00    +0.000 A 
ATOM      2  N   UNL     1       5.716   4.836  17.436  0.00  0.00    +0.000 NA
ATOM      3  C   UNL     1       5.402   5.792  16.537  0.00  0.00    +0.000 A 
ATOM      4  N   UNL     1       4.467   6.757  16.634  0.00  0.00    +0.000 NA
ATOM      5  C   UNL     1       3.802   6.671  17.800  0.00  0.00    +0.000 A 
ATOM      6  C   UNL     1       3.996   5.743  18.813  0.00  0.00    +0.000 A 
ATOM      7  N   UNL     1       3.124   5.970  19.857  0.00  0.00    +0.000 NA
ATOM      8  C   UNL     1       2.413   7.012  19.486  0.00  0.00    +0.000 A 
ATOM      9  N   UNL     1       2.778   7.460  18.246  0.00  0.00    +0.000 N 
ENDROOT
BRANCH   1  10
ATOM     10  O   UNL     1       5.228   3.810  19.517  0.00  0.00    +0.000 OA
BRANCH  10  11
ATOM     11  C   UNL     1       4.653   2.563  19.147  0.00  0.00    +0.000 C 
BRANCH  11  15
ATOM     12  C   UNL     1       0.459   2.663  20.152  0.00  0.00    +0.000 A 
ATOM     13  C   UNL     1       1.420   2.798  21.152  0.00  0.00    +0.000 A 
ATOM     14  C   UNL     1       2.777   2.783  20.827  0.00  0.00    +0.000 A 
ATOM     15  C   UNL     1       3.184   2.630  19.495  0.00  0.00    +0.000 A 
ATOM     16  C   UNL     1       2.208   2.510  18.494  0.00  0.00    +0.000 A 
ATOM     17  C   UNL     1       0.852   2.522  18.822  0.00  0.00    +0.000 A 
ENDBRANCH  11  15
ENDBRANCH  10  11
ENDBRANCH   1  10
BRANCH   9  18
ATOM     18  C   UNL     1       2.207   8.597  17.560  0.00  0.00    +0.000 C 
BRANCH  18  19
ATOM     19  C   UNL     1       2.122   9.838  18.444  0.00  0.00    +0.000 C 
BRANCH  19  20
ATOM     20  C   UNL     1       0.686  10.355  18.548  0.00  0.00    +0.000 C 
BRANCH  20  21
ATOM     21  N   UNL     1       0.594  11.796  18.848  0.00  0.00    +0.000 NA
ATOM     22  C   UNL     1      -0.751  12.363  18.574  0.00  0.00    +0.000 C 
ATOM     23  C   UNL     1      -1.881  11.749  19.420  0.00  0.00    +0.000 C 
ATOM     24  N   UNL     1      -1.559  11.731  20.852  0.00  0.00    +0.000 N 
ATOM     25  C   UNL     1      -2.385  12.429  21.716  0.00  0.00    +0.000 A 
ATOM     26  C   UNL     1      -2.484  12.038  23.053  0.00  0.00    +0.000 A 
ATOM     27  C   UNL     1      -3.338  12.715  23.920  0.00  0.00    +0.000 A 
ATOM     28  C   UNL     1      -4.078  13.781  23.437  0.00  0.00    +0.000 A 
ATOM     29  C   UNL     1      -3.934  14.112  22.102  0.00  0.00    +0.000 A 
ATOM     30  N   UNL     1      -3.119  13.459  21.245  0.00  0.00    +0.000 NA
ATOM     31  C   UNL     1      -0.174  11.465  21.265  0.00  0.00    +0.000 C 
ATOM     32  C   UNL     1       0.867  12.051  20.281  0.00  0.00    +0.000 C 
ENDBRANCH  20  21
ENDBRANCH  19  20
ENDBRANCH  18  19
ENDBRANCH   9  18
TORSDOF 7
ENDMDL
MODEL 6
REMARK VINA RESULT:      -8.0      6.533      9.488
REMARK  Name = 
REMARK  7 active torsions:
REMARK  status: ('A' for Active; 'I' for Inactive)
REMARK    1  A    between atoms: C_4  and  C_5
REMARK    2  A    between atoms: C_5  and  O_6
REMARK    3  A    between atoms: O_6  and  C_7
REMARK    4  A    between atoms: N_15  and  C_16
REMARK    5  A    between atoms: C_16  and  C_17
REMARK    6  A    between atoms: C_17  and  C_18
REMARK    7  A    between atoms: C_18  and  N_19
REMARK                            x       y       z     vdW  Elec       q    Type
REMARK                         _______ _______ _______ _____ _____    ______ ____
ROOT
ATOM      1  C   UNL     1       0.733   9.954  19.678  0.00  0.00    +0.000 A 
ATOM      2  N   UNL     1       0.589  10.222  21.000  0.00  0.00    +0.000 NA
ATOM      3  C   UNL     1       1.063   9.312  21.877  0.00  0.00    +0.000 A 
ATOM      4  N   UNL     1       1.689   8.148  21.618  0.00  0.00    +0.000 NA
ATOM      5  C   UNL     1       1.801   7.943  20.293  0.00  0.00    +0.000 A 
ATOM      6  C   UNL     1       1.355   8.771  19.273  0.00  0.00    +0.000 A 
ATOM      7  N   UNL     1       1.647   8.228  18.040  0.00  0.00    +0.000 NA
ATOM      8  C   UNL     1       2.256   7.093  18.303  0.00  0.00    +0.000 A 
ATOM      9  N   UNL     1       2.359   6.872  19.650  0.00  0.00    +0.000 N 
ENDROOT
BRANCH   1  10
ATOM     10  O   UNL     1       0.207  10.806  18.734  0.00  0.00    +0.000 OA
BRANCH  10  11
ATOM     11  C   UNL     1      -1.012  11.413  19.145  0.00  0.00    +0.000 C 
BRANCH  11  15
ATOM     12  C   UNL     1      -3.950  10.494  16.123  0.00  0.00    +0.000 A 
ATOM     13  C   UNL     1      -2.716   9.846  16.118  0.00  0.00    +0.000 A 
ATOM     14  C   UNL     1      -1.772  10.129  17.105  0.00  0.00    +0.000 A 
ATOM     15  C   UNL     1      -2.053  11.068  18.106  0.00  0.00    +0.000 A 
ATOM     16  C   UNL     1      -3.303  11.705  18.110  0.00  0.00    +0.000 A 
ATOM     17  C   UNL     1      -4.245  11.422  17.121  0.00  0.00    +0.000 A 
ENDBRANCH  11  15
ENDBRANCH  10  11
ENDBRANCH   1  10
BRANCH   9  18
ATOM     18  C   UNL     1       2.989   5.730  20.271  0.00  0.00    +0.000 C 
BRANCH  18  19
ATOM     19  C   UNL     1       3.644   4.795  19.258  0.00  0.00    +0.000 C 
BRANCH  19  20
ATOM     20  C   UNL     1       5.138   5.088  19.108  0.00  0.00    +0.000 C 
BRANCH  20  21
ATOM     21  N   UNL     1       5.437   6.179  18.163  0.00  0.00    +0.000 NA
ATOM     22  C   UNL     1       6.832   6.142  17.652  0.00  0.00    +0.000 C 
ATOM     23  C   UNL     1       7.179   4.872  16.854  0.00  0.00    +0.000 C 
ATOM     24  N   UNL     1       6.189   4.581  15.810  0.00  0.00    +0.000 N 
ATOM     25  C   UNL     1       6.617   4.553  14.494  0.00  0.00    +0.000 A 
ATOM     26  C   UNL     1       5.926   3.786  13.553  0.00  0.00    +0.000 A 
ATOM     27  C   UNL     1       6.370   3.726  12.235  0.00  0.00    +0.000 A 
ATOM     28  C   UNL     1       7.500   4.441  11.874  0.00  0.00    +0.000 A 
ATOM     29  C   UNL     1       8.138   5.175  12.857  0.00  0.00    +0.000 A 
ATOM     30  N   UNL     1       7.726   5.236  14.142  0.00  0.00    +0.000 NA
ATOM     31  C   UNL     1       4.770   4.851  16.082  0.00  0.00    +0.000 C 
ATOM     32  C   UNL     1       4.558   6.098  16.974  0.00  0.00    +0.000 C 
ENDBRANCH  20  21
ENDBRANCH  19  20
ENDBRANCH  18  19
ENDBRANCH   9  18
TORSDOF 7
ENDMDL
MODEL 7
REMARK VINA RESULT:      -8.0      1.276      1.581
REMARK  Name = 
REMARK  7 active torsions:
REMARK  status: ('A' for Active; 'I' for Inactive)
REMARK    1  A    between atoms: C_4  and  C_5
REMARK    2  A    between atoms: C_5  and  O_6
REMARK    3  A    between atoms: O_6  and  C_7
REMARK    4  A    between atoms: N_15  and  C_16
REMARK    5  A    between atoms: C_16  and  C_17
REMARK    6  A    between atoms: C_17  and  C_18
REMARK    7  A    between atoms: C_18  and  N_19
REMARK                            x       y       z     vdW  Elec       q    Type
REMARK                         _______ _______ _______ _____ _____    ______ ____
ROOT
ATOM      1  C   UNL     1       5.257   4.029  16.857  0.00  0.00    +0.000 A 
ATOM      2  N   UNL     1       5.317   4.202  15.513  0.00  0.00    +0.000 NA
ATOM      3  C   UNL     1       6.130   5.172  15.043  0.00  0.00    +0.000 A 
ATOM      4  N   UNL     1       6.925   6.006  15.740  0.00  0.00    +0.000 NA
ATOM      5  C   UNL     1       6.821   5.783  17.062  0.00  0.00    +0.000 A 
ATOM      6  C   UNL     1       6.025   4.840  17.696  0.00  0.00    +0.000 A 
ATOM      7  N   UNL     1       6.182   4.908  19.064  0.00  0.00    +0.000 NA
ATOM      8  C   UNL     1       7.055   5.873  19.259  0.00  0.00    +0.000 A 
ATOM      9  N   UNL     1       7.457   6.439  18.080  0.00  0.00    +0.000 N 
ENDROOT
BRANCH   1  10
ATOM     10  O   UNL     1       4.394   3.108  17.402  0.00  0.00    +0.000 OA
BRANCH  10  11
ATOM     11  C   UNL     1       3.041   3.549  17.418  0.00  0.00    +0.000 C 
BRANCH  11  15
ATOM     12  C   UNL     1       1.825   3.573  21.557  0.00  0.00    +0.000 A 
ATOM     13  C   UNL     1       1.439   4.610  20.710  0.00  0.00    +0.000 A 
ATOM     14  C   UNL     1       1.816   4.595  19.367  0.00  0.00    +0.000 A 
ATOM     15  C   UNL     1       2.589   3.541  18.860  0.00  0.00    +0.000 A 
ATOM     16  C   UNL     1       2.959   2.495  19.718  0.00  0.00    +0.000 A 
ATOM     17  C   UNL     1       2.582   2.513  21.061  0.00  0.00    +0.000 A 
ENDBRANCH  11  15
ENDBRANCH  10  11
ENDBRANCH   1  10
BRANCH   9  18
ATOM     18  C   UNL     1       8.421   7.507  17.945  0.00  0.00    +0.000 C 
BRANCH  18  19
ATOM     19  C   UNL     1       7.812   8.885  18.190  0.00  0.00    +0.000 C 
BRANCH  19  20
ATOM     20  C   UNL     1       8.799  10.003  17.845  0.00  0.00    +0.000 C 
BRANCH  20  21
ATOM     21  N   UNL     1       9.359  10.684  19.026  0.00  0.00    +0.000 NA
ATOM     22  C   UNL     1      10.769  11.112  18.838  0.00  0.00    +0.000 C 
ATOM     23  C   UNL     1      10.974  12.134  17.705  0.00  0.00    +0.000 C 
ATOM     24  N   UNL     1      10.050  13.269  17.804  0.00  0.00    +0.000 N 
ATOM     25  C   UNL     1      10.587  14.537  17.953  0.00  0.00    +0.000 A 
ATOM     26  C   UNL     1       9.868  15.653  17.520  0.00  0.00    +0.000 A 
ATOM     27  C   UNL     1      10.416  16.928  17.636  0.00  0.00    +0.000 A 
ATOM     28  C   UNL     1      11.676  17.069  18.192  0.00  0.00    +0.000 A 
ATOM     29  C   UNL     1      12.333  15.922  18.596  0.00  0.00    +0.000 A 
ATOM     30  N   UNL     1      11.821  14.677  18.480  0.00  0.00    +0.000 NA
ATOM     31  C   UNL     1       8.676  13.029  18.267  0.00  0.00    +0.000 C 
ATOM     32  C   UNL     1       8.592  11.913  19.335  0.00  0.00    +0.000 C 
ENDBRANCH  20  21
ENDBRANCH  19  20
ENDBRANCH  18  19
ENDBRANCH   9  18
TORSDOF 7
ENDMDL
MODEL 8
REMARK VINA RESULT:      -7.9      6.492      8.425
REMARK  Name = 
REMARK  7 active torsions:
REMARK  status: ('A' for Active; 'I' for Inactive)
REMARK    1  A    between atoms: C_4  and  C_5
REMARK    2  A    between atoms: C_5  and  O_6
REMARK    3  A    between atoms: O_6  and  C_7
REMARK    4  A    between atoms: N_15  and  C_16
REMARK    5  A    between atoms: C_16  and  C_17
REMARK    6  A    between atoms: C_17  and  C_18
REMARK    7  A    between atoms: C_18  and  N_19
REMARK                            x       y       z     vdW  Elec       q    Type
REMARK                         _______ _______ _______ _____ _____    ______ ____
ROOT
ATOM      1  C   UNL     1       5.025   4.757  18.625  0.00  0.00    +0.000 A 
ATOM      2  N   UNL     1       5.763   4.781  17.487  0.00  0.00    +0.000 NA
ATOM      3  C   UNL     1       5.506   5.762  16.597  0.00  0.00    +0.000 A 
ATOM      4  N   UNL     1       4.604   6.759  16.688  0.00  0.00    +0.000 NA
ATOM      5  C   UNL     1       3.909   6.679  17.836  0.00  0.00    +0.000 A 
ATOM      6  C   UNL     1       4.044   5.729  18.838  0.00  0.00    +0.000 A 
ATOM      7  N   UNL     1       3.156   5.971  19.864  0.00  0.00    +0.000 NA
ATOM      8  C   UNL     1       2.493   7.044  19.495  0.00  0.00    +0.000 A 
ATOM      9  N   UNL     1       2.903   7.499  18.271  0.00  0.00    +0.000 N 
ENDROOT
BRANCH   1  10
ATOM     10  O   UNL     1       5.187   3.741  19.539  0.00  0.00    +0.000 OA
BRANCH  10  11
ATOM     11  C   UNL     1       4.606   2.513  19.119  0.00  0.00    +0.000 C 
BRANCH  11  15
ATOM     12  C   UNL     1       0.409   2.792  20.077  0.00  0.00    +0.000 A 
ATOM     13  C   UNL     1       0.813   2.621  18.754  0.00  0.00    +0.000 A 
ATOM     14  C   UNL     1       2.169   2.513  18.445  0.00  0.00    +0.000 A 
ATOM     15  C   UNL     1       3.135   2.579  19.458  0.00  0.00    +0.000 A 
ATOM     16  C   UNL     1       2.716   2.737  20.788  0.00  0.00    +0.000 A 
ATOM     17  C   UNL     1       1.360   2.847  21.095  0.00  0.00    +0.000 A 
ENDBRANCH  11  15
ENDBRANCH  10  11
ENDBRANCH   1  10
BRANCH   9  18
ATOM     18  C   UNL     1       2.391   8.666  17.591  0.00  0.00    +0.000 C 
BRANCH  18  19
ATOM     19  C   UNL     1       1.118   9.212  18.232  0.00  0.00    +0.000 C 
BRANCH  19  20
ATOM     20  C   UNL     1       1.357  10.578  18.877  0.00  0.00    +0.000 C 
BRANCH  20  21
ATOM     21  N   UNL     1       0.326  11.579  18.546  0.00  0.00    +0.000 NA
ATOM     22  C   UNL     1      -1.026  11.207  19.037  0.00  0.00    +0.000 C 
ATOM     23  C   UNL     1      -1.130  11.080  20.568  0.00  0.00    +0.000 C 
ATOM     24  N   UNL     1      -0.580  12.249  21.264  0.00  0.00    +0.000 N 
ATOM     25  C   UNL     1      -1.428  12.985  22.075  0.00  0.00    +0.000 A 
ATOM     26  C   UNL     1      -0.906  13.720  23.141  0.00  0.00    +0.000 A 
ATOM     27  C   UNL     1      -1.756  14.436  23.981  0.00  0.00    +0.000 A 
ATOM     28  C   UNL     1      -3.119  14.409  23.737  0.00  0.00    +0.000 A 
ATOM     29  C   UNL     1      -3.567  13.657  22.668  0.00  0.00    +0.000 A 
ATOM     30  N   UNL     1      -2.757  12.949  21.850  0.00  0.00    +0.000 NA
ATOM     31  C   UNL     1       0.612  12.909  20.713  0.00  0.00    +0.000 C 
ATOM     32  C   UNL     1       0.647  12.886  19.165  0.00  0.00    +0.000 C 
ENDBRANCH  20  21
ENDBRANCH  19  20
ENDBRANCH  18  19
ENDBRANCH   9  18
TORSDOF 7
ENDMDL
MODEL 9
REMARK VINA RESULT:      -7.9      6.626      8.388
REMARK  Name = 
REMARK  7 active torsions:
REMARK  status: ('A' for Active; 'I' for Inactive)
REMARK    1  A    between atoms: C_4  and  C_5
REMARK    2  A    between atoms: C_5  and  O_6
REMARK    3  A    between atoms: O_6  and  C_7
REMARK    4  A    between atoms: N_15  and  C_16
REMARK    5  A    between atoms: C_16  and  C_17
REMARK    6  A    between atoms: C_17  and  C_18
REMARK    7  A    between atoms: C_18  and  N_19
REMARK                            x       y       z     vdW  Elec       q    Type
REMARK                         _______ _______ _______ _____ _____    ______ ____
ROOT
ATOM      1  C   UNL     1       4.717   5.257  17.764  0.00  0.00    +0.000 A 
ATOM      2  N   UNL     1       5.323   5.492  16.573  0.00  0.00    +0.000 NA
ATOM      3  C   UNL     1       5.013   6.636  15.929  0.00  0.00    +0.000 A 
ATOM      4  N   UNL     1       4.172   7.614  16.319  0.00  0.00    +0.000 NA
ATOM      5  C   UNL     1       3.607   7.322  17.504  0.00  0.00    +0.000 A 
ATOM      6  C   UNL     1       3.811   6.188  18.278  0.00  0.00    +0.000 A 
ATOM      7  N   UNL     1       3.055   6.240  19.429  0.00  0.00    +0.000 NA
ATOM      8  C   UNL     1       2.403   7.380  19.358  0.00  0.00    +0.000 A 
ATOM      9  N   UNL     1       2.694   8.060  18.207  0.00  0.00    +0.000 N 
ENDROOT
BRANCH   1  10
ATOM     10  O   UNL     1       4.934   4.077  18.436  0.00  0.00    +0.000 OA
BRANCH  10  11
ATOM     11  C   UNL     1       4.036   3.042  18.054  0.00  0.00    +0.000 C 
BRANCH  11  15
ATOM     12  C   UNL     1       1.096   2.785  21.200  0.00  0.00    +0.000 A 
ATOM     13  C   UNL     1       0.689   2.897  19.872  0.00  0.00    +0.000 A 
ATOM     14  C   UNL     1       1.638   2.962  18.852  0.00  0.00    +0.000 A 
ATOM     15  C   UNL     1       3.006   2.920  19.153  0.00  0.00    +0.000 A 
ATOM     16  C   UNL     1       3.405   2.793  20.492  0.00  0.00    +0.000 A 
ATOM     17  C   UNL     1       2.454   2.730  21.511  0.00  0.00    +0.000 A 
ENDBRANCH  11  15
ENDBRANCH  10  11
ENDBRANCH   1  10
BRANCH   9  18
ATOM     18  C   UNL     1       2.162   9.351  17.834  0.00  0.00    +0.000 C 
BRANCH  18  19
ATOM     19  C   UNL     1       0.772   9.605  18.410  0.00  0.00    +0.000 C 
BRANCH  19  20
ATOM     20  C   UNL     1       0.634  11.036  18.932  0.00  0.00    +0.000 C 
BRANCH  20  21
ATOM     21  N   UNL     1       1.234  11.244  20.262  0.00  0.00    +0.000 NA
ATOM     22  C   UNL     1       1.392  12.679  20.613  0.00  0.00    +0.000 C 
ATOM     23  C   UNL     1       0.068  13.460  20.692  0.00  0.00    +0.000 C 
ATOM     24  N   UNL     1      -0.930  12.783  21.528  0.00  0.00    +0.000 N 
ATOM     25  C   UNL     1      -1.404  13.448  22.646  0.00  0.00    +0.000 A 
ATOM     26  C   UNL     1      -2.672  13.149  23.149  0.00  0.00    +0.000 A 
ATOM     27  C   UNL     1      -3.169  13.836  24.253  0.00  0.00    +0.000 A 
ATOM     28  C   UNL     1      -2.385  14.813  24.843  0.00  0.00    +0.000 A 
ATOM     29  C   UNL     1      -1.142  15.062  24.292  0.00  0.00    +0.000 A 
ATOM     30  N   UNL     1      -0.650  14.411  23.215  0.00  0.00    +0.000 NA
ATOM     31  C   UNL     1      -1.004  11.316  21.499  0.00  0.00    +0.000 C 
ATOM     32  C   UNL     1       0.382  10.651  21.319  0.00  0.00    +0.000 C 
ENDBRANCH  20  21
ENDBRANCH  19  20
ENDBRANCH  18  19
ENDBRANCH   9  18
TORSDOF 7
ENDMDL
