MODEL 1
REMARK VINA RESULT:      -8.2      0.000      0.000
REMARK  Name = 
REMARK  4 active torsions:
REMARK  status: ('A' for Active; 'I' for Inactive)
REMARK    1  A    between atoms: C_1  and  C_2
REMARK    2  A    between atoms: C_9  and  N_10
REMARK    3  A    between atoms: N_10  and  C_11
REMARK    4  A    between atoms: C_16  and  C_17
REMARK                            x       y       z     vdW  Elec       q    Type
REMARK                         _______ _______ _______ _____ _____    ______ ____
ROOT
ATOM      1  C   UNL     1       8.249   7.616  18.555  0.00  0.00    +0.000 C 
ATOM      2  C   UNL     1       7.490   6.515  17.860  0.00  0.00    +0.000 A 
ATOM      3  N   UNL     1       7.448   6.520  16.560  0.00  0.00    +0.000 NA
ATOM      4  C   UNL     1       6.724   5.515  15.987  0.00  0.00    +0.000 A 
ATOM      5  N   UNL     1       6.581   5.307  14.706  0.00  0.00    +0.000 NA
ATOM      6  C   UNL     1       5.757   4.189  14.637  0.00  0.00    +0.000 A 
ATOM      7  C   UNL     1       5.362   3.686  15.823  0.00  0.00    +0.000 A 
ATOM      8  C   UNL     1       5.985   4.525  16.798  0.00  0.00    +0.000 A 
ATOM      9  C   UNL     1       6.071   4.571  18.134  0.00  0.00    +0.000 A 
ATOM     10  N   UNL     1       6.868   5.573  18.650  0.00  0.00    +0.000 N 
ATOM     11  H   UNL     1       6.916   5.608  19.659  0.00  0.00    +0.000 HD
ENDROOT
BRANCH   9  12
ATOM     12  N   UNL     1       5.399   3.710  18.986  0.00  0.00    +0.000 N 
ATOM     13  H   UNL     1       5.903   3.613  19.869  0.00  0.00    +0.000 HD
BRANCH  12  14
ATOM     14  C   UNL     1       4.017   3.863  19.317  0.00  0.00    +0.000 A 
ATOM     15  C   UNL     1       3.514   5.046  19.885  0.00  0.00    +0.000 A 
ATOM     16  C   UNL     1       2.154   5.189  20.170  0.00  0.00    +0.000 A 
ATOM     17  C   UNL     1       1.269   4.162  19.866  0.00  0.00    +0.000 A 
ATOM     18  C   UNL     1       1.744   2.985  19.293  0.00  0.00    +0.000 A 
ATOM     19  C   UNL     1       3.113   2.817  19.022  0.00  0.00    +0.000 A 
ATOM     20  C   UNL     1       3.571   1.533  18.383  0.00  0.00    +0.000 C 
ENDBRANCH  12  14
ENDBRANCH   9  12
TORSDOF 2
ENDMDL
MODEL 2
REMARK VINA RESULT:      -8.0      1.349      1.774
REMARK  Name = 
REMARK  4 active torsions:
REMARK  status: ('A' for Active; 'I' for Inactive)
REMARK    1  A    between atoms: C_1  and  C_2
REMARK    2  A    between atoms: C_9  and  N_10
REMARK    3  A    between atoms: N_10  and  C_11
REMARK    4  A    between atoms: C_16  and  C_17
REMARK                            x       y       z     vdW  Elec       q    Type
REMARK                         _______ _______ _______ _____ _____    ______ ____
ROOT
ATOM      1  C   UNL     1       7.827   5.666  19.712  0.00  0.00    +0.000 C 
ATOM      2  C   UNL     1       7.171   5.139  18.462  0.00  0.00    +0.000 A 
ATOM      3  N   UNL     1       7.650   5.510  17.311  0.00  0.00    +0.000 NA
ATOM      4  C   UNL     1       6.999   5.023  16.214  0.00  0.00    +0.000 A 
ATOM      5  N   UNL     1       7.331   5.234  14.969  0.00  0.00    +0.000 NA
ATOM      6  C   UNL     1       6.365   4.547  14.243  0.00  0.00    +0.000 A 
ATOM      7  C   UNL     1       5.426   3.918  14.977  0.00  0.00    +0.000 A 
ATOM      8  C   UNL     1       5.790   4.183  16.334  0.00  0.00    +0.000 A 
ATOM      9  C   UNL     1       5.347   3.833  17.549  0.00  0.00    +0.000 A 
ATOM     10  N   UNL     1       6.085   4.306  18.615  0.00  0.00    +0.000 N 
ATOM     11  H   UNL     1       5.737   4.048  19.528  0.00  0.00    +0.000 HD
ENDROOT
BRANCH   9  12
ATOM     12  N   UNL     1       4.211   3.072  17.773  0.00  0.00    +0.000 N 
ATOM     13  H   UNL     1       4.419   2.078  17.670  0.00  0.00    +0.000 HD
BRANCH  12  14
ATOM     14  C   UNL     1       3.404   3.204  18.945  0.00  0.00    +0.000 A 
ATOM     15  C   UNL     1       3.682   2.492  20.124  0.00  0.00    +0.000 A 
ATOM     16  C   UNL     1       2.902   2.661  21.271  0.00  0.00    +0.000 A 
ATOM     17  C   UNL     1       1.848   3.566  21.266  0.00  0.00    +0.000 A 
ATOM     18  C   UNL     1       1.561   4.290  20.112  0.00  0.00    +0.000 A 
ATOM     19  C   UNL     1       2.322   4.115  18.943  0.00  0.00    +0.000 A 
ATOM     20  C   UNL     1       1.983   4.938  17.730  0.00  0.00    +0.000 C 
ENDBRANCH  12  14
ENDBRANCH   9  12
TORSDOF 2
ENDMDL
MODEL 3
REMARK VINA RESULT:      -8.0      0.843      2.629
REMARK  Name = 
REMARK  4 active torsions:
REMARK  status: ('A' for Active; 'I' for Inactive)
REMARK    1  A    between atoms: C_1  and  C_2
REMARK    2  A    between atoms: C_9  and  N_10
REMARK    3  A    between atoms: N_10  and  C_11
REMARK    4  A    between atoms: C_16  and  C_17
REMARK                            x       y       z     vdW  Elec       q    Type
REMARK                         _______ _______ _______ _____ _____    ______ ____
ROOT
ATOM      1  C   UNL     1       5.610   3.800  14.016  0.00  0.00    +0.000 C 
ATOM      2  C   UNL     1       5.971   4.410  15.346  0.00  0.00    +0.000 A 
ATOM      3  N   UNL     1       6.753   5.450  15.356  0.00  0.00    +0.000 NA
ATOM      4  C   UNL     1       7.067   5.942  16.590  0.00  0.00    +0.000 A 
ATOM      5  N   UNL     1       7.800   6.996  16.831  0.00  0.00    +0.000 NA
ATOM      6  C   UNL     1       7.833   7.072  18.219  0.00  0.00    +0.000 A 
ATOM      7  C   UNL     1       7.160   6.101  18.869  0.00  0.00    +0.000 A 
ATOM      8  C   UNL     1       6.598   5.294  17.832  0.00  0.00    +0.000 A 
ATOM      9  C   UNL     1       5.792   4.227  17.755  0.00  0.00    +0.000 A 
ATOM     10  N   UNL     1       5.461   3.816  16.479  0.00  0.00    +0.000 N 
ATOM     11  H   UNL     1       4.863   3.003  16.431  0.00  0.00    +0.000 HD
ENDROOT
BRANCH   9  12
ATOM     12  N   UNL     1       5.317   3.530  18.855  0.00  0.00    +0.000 N 
ATOM     13  H   UNL     1       5.934   3.665  19.657  0.00  0.00    +0.000 HD
BRANCH  12  14
ATOM     14  C   UNL     1       3.979   3.656  19.338  0.00  0.00    +0.000 A 
ATOM     15  C   UNL     1       3.522   4.827  19.966  0.00  0.00    +0.000 A 
ATOM     16  C   UNL     1       2.199   4.945  20.401  0.00  0.00    +0.000 A 
ATOM     17  C   UNL     1       1.304   3.903  20.191  0.00  0.00    +0.000 A 
ATOM     18  C   UNL     1       1.734   2.737  19.562  0.00  0.00    +0.000 A 
ATOM     19  C   UNL     1       3.066   2.595  19.138  0.00  0.00    +0.000 A 
ATOM     20  C   UNL     1       3.473   1.322  18.445  0.00  0.00    +0.000 C 
ENDBRANCH  12  14
ENDBRANCH   9  12
TORSDOF 2
ENDMDL
MODEL 4
REMARK VINA RESULT:      -8.0      1.687      3.389
REMARK  Name = 
REMARK  4 active torsions:
REMARK  status: ('A' for Active; 'I' for Inactive)
REMARK    1  A    between atoms: C_1  and  C_2
REMARK    2  A    between atoms: C_9  and  N_10
REMARK    3  A    between atoms: N_10  and  C_11
REMARK    4  A    between atoms: C_16  and  C_17
REMARK                            x       y       z     vdW  Elec       q    Type
REMARK                         _______ _______ _______ _____ _____    ______ ____
ROOT
ATOM      1  C   UNL     1       6.344   3.942  13.961  0.00  0.00    +0.000 C 
ATOM      2  C   UNL     1       6.188   4.405  15.387  0.00  0.00    +0.000 A 
ATOM      3  N   UNL     1       7.229   4.368  16.165  0.00  0.00    +0.000 NA
ATOM      4  C   UNL     1       7.021   4.774  17.452  0.00  0.00    +0.000 A 
ATOM      5  N   UNL     1       7.929   4.854  18.387  0.00  0.00    +0.000 NA
ATOM      6  C   UNL     1       7.226   5.298  19.502  0.00  0.00    +0.000 A 
ATOM      7  C   UNL     1       5.905   5.490  19.314  0.00  0.00    +0.000 A 
ATOM      8  C   UNL     1       5.683   5.166  17.940  0.00  0.00    +0.000 A 
ATOM      9  C   UNL     1       4.650   5.186  17.088  0.00  0.00    +0.000 A 
ATOM     10  N   UNL     1       4.939   4.825  15.787  0.00  0.00    +0.000 N 
ATOM     11  H   UNL     1       4.151   4.831  15.154  0.00  0.00    +0.000 HD
ENDROOT
BRANCH   9  12
ATOM     12  N   UNL     1       3.352   5.512  17.447  0.00  0.00    +0.000 N 
ATOM     13  H   UNL     1       2.814   5.794  16.627  0.00  0.00    +0.000 HD
BRANCH  12  14
ATOM     14  C   UNL     1       2.513   4.642  18.210  0.00  0.00    +0.000 A 
ATOM     15  C   UNL     1       2.202   3.341  17.779  0.00  0.00    +0.000 A 
ATOM     16  C   UNL     1       1.409   2.493  18.556  0.00  0.00    +0.000 A 
ATOM     17  C   UNL     1       0.936   2.922  19.790  0.00  0.00    +0.000 A 
ATOM     18  C   UNL     1       1.241   4.204  20.241  0.00  0.00    +0.000 A 
ATOM     19  C   UNL     1       2.019   5.077  19.461  0.00  0.00    +0.000 A 
ATOM     20  C   UNL     1       2.336   6.444  20.005  0.00  0.00    +0.000 C 
ENDBRANCH  12  14
ENDBRANCH   9  12
TORSDOF 2
ENDMDL
MODEL 5
REMARK VINA RESULT:      -7.9      0.727      1.751
REMARK  Name = 
REMARK  4 active torsions:
REMARK  status: ('A' for Active; 'I' for Inactive)
REMARK    1  A    between atoms: C_1  and  C_2
REMARK    2  A    between atoms: C_9  and  N_10
REMARK    3  A    between atoms: N_10  and  C_11
REMARK    4  A    between atoms: C_16  and  C_17
REMARK                            x       y       z     vdW  Elec       q    Type
REMARK                         _______ _______ _______ _____ _____    ______ ____
ROOT
ATOM      1  C   UNL     1       8.103   7.794  18.307  0.00  0.00    +0.000 C 
ATOM      2  C   UNL     1       7.482   6.605  17.620  0.00  0.00    +0.000 A 
ATOM      3  N   UNL     1       7.571   6.524  16.325  0.00  0.00    +0.000 NA
ATOM      4  C   UNL     1       6.966   5.440  15.757  0.00  0.00    +0.000 A 
ATOM      5  N   UNL     1       6.965   5.142  14.485  0.00  0.00    +0.000 NA
ATOM      6  C   UNL     1       6.217   3.971  14.416  0.00  0.00    +0.000 A 
ATOM      7  C   UNL     1       5.733   3.522  15.590  0.00  0.00    +0.000 A 
ATOM      8  C   UNL     1       6.207   4.460  16.560  0.00  0.00    +0.000 A 
ATOM      9  C   UNL     1       6.155   4.597  17.891  0.00  0.00    +0.000 A 
ATOM     10  N   UNL     1       6.838   5.678  18.410  0.00  0.00    +0.000 N 
ATOM     11  H   UNL     1       6.782   5.781  19.414  0.00  0.00    +0.000 HD
ENDROOT
BRANCH   9  12
ATOM     12  N   UNL     1       5.450   3.751  18.733  0.00  0.00    +0.000 N 
ATOM     13  H   UNL     1       5.602   4.008  19.709  0.00  0.00    +0.000 HD
BRANCH  12  14
ATOM     14  C   UNL     1       4.051   3.496  18.588  0.00  0.00    +0.000 A 
ATOM     15  C   UNL     1       3.565   2.281  18.076  0.00  0.00    +0.000 A 
ATOM     16  C   UNL     1       2.193   2.038  17.974  0.00  0.00    +0.000 A 
ATOM     17  C   UNL     1       1.284   2.995  18.409  0.00  0.00    +0.000 A 
ATOM     18  C   UNL     1       1.744   4.202  18.928  0.00  0.00    +0.000 A 
ATOM     19  C   UNL     1       3.121   4.471  19.017  0.00  0.00    +0.000 A 
ATOM     20  C   UNL     1       3.565   5.783  19.606  0.00  0.00    +0.000 C 
ENDBRANCH  12  14
ENDBRANCH   9  12
TORSDOF 2
ENDMDL
MODEL 6
REMARK VINA RESULT:      -7.8      1.185      1.338
REMARK  Name = 
REMARK  4 active torsions:
REMARK  status: ('A' for Active; 'I' for Inactive)
REMARK    1  A    between atoms: C_1  and  C_2
REMARK    2  A    between atoms: C_9  and  N_10
REMARK    3  A    between atoms: N_10  and  C_11
REMARK    4  A    between atoms: C_16  and  C_17
REMARK                            x       y       z     vdW  Elec       q    Type
REMARK                         _______ _______ _______ _____ _____    ______ ____
ROOT
ATOM      1  C   UNL     1       7.535   5.713  19.562  0.00  0.00    +0.000 C 
ATOM      2  C   UNL     1       6.933   5.291  18.246  0.00  0.00    +0.000 A 
ATOM      3  N   UNL     1       7.643   5.440  17.166  0.00  0.00    +0.000 NA
ATOM      4  C   UNL     1       7.036   5.066  16.002  0.00  0.00    +0.000 A 
ATOM      5  N   UNL     1       7.575   5.094  14.813  0.00  0.00    +0.000 NA
ATOM      6  C   UNL     1       6.564   4.636  13.975  0.00  0.00    +0.000 A 
ATOM      7  C   UNL     1       5.402   4.330  14.584  0.00  0.00    +0.000 A 
ATOM      8  C   UNL     1       5.640   4.585  15.970  0.00  0.00    +0.000 A 
ATOM      9  C   UNL     1       4.962   4.451  17.117  0.00  0.00    +0.000 A 
ATOM     10  N   UNL     1       5.652   4.786  18.264  0.00  0.00    +0.000 N 
ATOM     11  H   UNL     1       5.129   4.694  19.124  0.00  0.00    +0.000 HD
ENDROOT
BRANCH   9  12
ATOM     12  N   UNL     1       3.643   4.033  17.197  0.00  0.00    +0.000 N 
ATOM     13  H   UNL     1       3.519   3.143  16.712  0.00  0.00    +0.000 HD
BRANCH  12  14
ATOM     14  C   UNL     1       2.931   3.932  18.431  0.00  0.00    +0.000 A 
ATOM     15  C   UNL     1       2.281   5.037  19.009  0.00  0.00    +0.000 A 
ATOM     16  C   UNL     1       1.561   4.910  20.199  0.00  0.00    +0.000 A 
ATOM     17  C   UNL     1       1.455   3.671  20.818  0.00  0.00    +0.000 A 
ATOM     18  C   UNL     1       2.083   2.561  20.258  0.00  0.00    +0.000 A 
ATOM     19  C   UNL     1       2.830   2.677  19.073  0.00  0.00    +0.000 A 
ATOM     20  C   UNL     1       3.471   1.441  18.499  0.00  0.00    +0.000 C 
ENDBRANCH  12  14
ENDBRANCH   9  12
TORSDOF 2
ENDMDL
MODEL 7
REMARK VINA RESULT:      -7.8      1.000      3.117
REMARK  Name = 
REMARK  4 active torsions:
REMARK  status: ('A' for Active; 'I' for Inactive)
REMARK    1  A    between atoms: C_1  and  C_2
REMARK    2  A    between atoms: C_9  and  N_10
REMARK    3  A    between atoms: N_10  and  C_11
REMARK    4  A    between atoms: C_16  and  C_17
REMARK                            x       y       z     vdW  Elec       q    Type
REMARK                         _______ _______ _______ _____ _____    ______ ____
ROOT
ATOM      1  C   UNL     1       5.974   3.791  13.836  0.00  0.00    +0.000 C 
ATOM      2  C   UNL     1       6.216   4.385  15.200  0.00  0.00    +0.000 A 
ATOM      3  N   UNL     1       6.992   5.425  15.291  0.00  0.00    +0.000 NA
ATOM      4  C   UNL     1       7.195   5.903  16.553  0.00  0.00    +0.000 A 
ATOM      5  N   UNL     1       7.903   6.955  16.871  0.00  0.00    +0.000 NA
ATOM      6  C   UNL     1       7.813   7.014  18.257  0.00  0.00    +0.000 A 
ATOM      7  C   UNL     1       7.088   6.035  18.833  0.00  0.00    +0.000 A 
ATOM      8  C   UNL     1       6.620   5.240  17.741  0.00  0.00    +0.000 A 
ATOM      9  C   UNL     1       5.826   4.173  17.581  0.00  0.00    +0.000 A 
ATOM     10  N   UNL     1       5.610   3.777  16.277  0.00  0.00    +0.000 N 
ATOM     11  H   UNL     1       5.020   2.964  16.166  0.00  0.00    +0.000 HD
ENDROOT
BRANCH   9  12
ATOM     12  N   UNL     1       5.259   3.462  18.627  0.00  0.00    +0.000 N 
ATOM     13  H   UNL     1       5.553   3.850  19.524  0.00  0.00    +0.000 HD
BRANCH  12  14
ATOM     14  C   UNL     1       3.855   3.213  18.727  0.00  0.00    +0.000 A 
ATOM     15  C   UNL     1       3.288   1.987  18.338  0.00  0.00    +0.000 A 
ATOM     16  C   UNL     1       1.918   1.750  18.477  0.00  0.00    +0.000 A 
ATOM     17  C   UNL     1       1.097   2.723  19.032  0.00  0.00    +0.000 A 
ATOM     18  C   UNL     1       1.640   3.941  19.433  0.00  0.00    +0.000 A 
ATOM     19  C   UNL     1       3.012   4.203  19.280  0.00  0.00    +0.000 A 
ATOM     20  C   UNL     1       3.551   5.528  19.750  0.00  0.00    +0.000 C 
ENDBRANCH  12  14
ENDBRANCH   9  12
TORSDOF 2
ENDMDL
MODEL 8
REMARK VINA RESULT:      -7.7      0.973      1.097
REMARK  Name = 
REMARK  4 active torsions:
REMARK  status: ('A' for Active; 'I' for Inactive)
REMARK    1  A    between atoms: C_1  and  C_2
REMARK    2  A    between atoms: C_9  and  N_10
REMARK    3  A    between atoms: N_10  and  C_11
REMARK    4  A    between atoms: C_16  and  C_17
REMARK                            x       y       z     vdW  Elec       q    Type
REMARK                         _______ _______ _______ _____ _____    ______ ____
ROOT
ATOM      1  C   UNL     1       8.095   7.594  18.371  0.00  0.00    +0.000 C 
ATOM      2  C   UNL     1       7.494   6.460  17.581  0.00  0.00    +0.000 A 
ATOM      3  N   UNL     1       7.614   6.479  16.286  0.00  0.00    +0.000 NA
ATOM      4  C   UNL     1       7.027   5.441  15.622  0.00  0.00    +0.000 A 
ATOM      5  N   UNL     1       7.056   5.241  14.332  0.00  0.00    +0.000 NA
ATOM      6  C   UNL     1       6.314   4.079  14.155  0.00  0.00    +0.000 A 
ATOM      7  C   UNL     1       5.804   3.540  15.279  0.00  0.00    +0.000 A 
ATOM      8  C   UNL     1       6.251   4.401  16.329  0.00  0.00    +0.000 A 
ATOM      9  C   UNL     1       6.167   4.436  17.665  0.00  0.00    +0.000 A 
ATOM     10  N   UNL     1       6.834   5.475  18.282  0.00  0.00    +0.000 N 
ATOM     11  H   UNL     1       6.754   5.500  19.289  0.00  0.00    +0.000 HD
ENDROOT
BRANCH   9  12
ATOM     12  N   UNL     1       5.445   3.527  18.423  0.00  0.00    +0.000 N 
ATOM     13  H   UNL     1       5.879   3.398  19.338  0.00  0.00    +0.000 HD
BRANCH  12  14
ATOM     14  C   UNL     1       4.038   3.644  18.647  0.00  0.00    +0.000 A 
ATOM     15  C   UNL     1       3.207   4.388  17.792  0.00  0.00    +0.000 A 
ATOM     16  C   UNL     1       1.829   4.462  18.009  0.00  0.00    +0.000 A 
ATOM     17  C   UNL     1       1.255   3.772  19.068  0.00  0.00    +0.000 A 
ATOM     18  C   UNL     1       2.058   3.020  19.923  0.00  0.00    +0.000 A 
ATOM     19  C   UNL     1       3.449   2.954  19.731  0.00  0.00    +0.000 A 
ATOM     20  C   UNL     1       4.268   2.110  20.671  0.00  0.00    +0.000 C 
ENDBRANCH  12  14
ENDBRANCH   9  12
TORSDOF 2
ENDMDL
MODEL 9
REMARK VINA RESULT:      -7.7      1.362      2.219
REMARK  Name = 
REMARK  4 active torsions:
REMARK  status: ('A' for Active; 'I' for Inactive)
REMARK    1  A    between atoms: C_1  and  C_2
REMARK    2  A    between atoms: C_9  and  N_10
REMARK    3  A    between atoms: N_10  and  C_11
REMARK    4  A    between atoms: C_16  and  C_17
REMARK                            x       y       z     vdW  Elec       q    Type
REMARK                         _______ _______ _______ _____ _____    ______ ____
ROOT
ATOM      1  C   UNL     1       7.681   5.621  19.726  0.00  0.00    +0.000 C 
ATOM      2  C   UNL     1       6.955   5.310  18.442  0.00  0.00    +0.000 A 
ATOM      3  N   UNL     1       7.661   5.087  17.372  0.00  0.00    +0.000 NA
ATOM      4  C   UNL     1       6.949   4.838  16.235  0.00  0.00    +0.000 A 
ATOM      5  N   UNL     1       7.451   4.552  15.063  0.00  0.00    +0.000 NA
ATOM      6  C   UNL     1       6.335   4.400  14.248  0.00  0.00    +0.000 A 
ATOM      7  C   UNL     1       5.146   4.590  14.852  0.00  0.00    +0.000 A 
ATOM      8  C   UNL     1       5.473   4.882  16.212  0.00  0.00    +0.000 A 
ATOM      9  C   UNL     1       4.803   5.114  17.349  0.00  0.00    +0.000 A 
ATOM     10  N   UNL     1       5.578   5.296  18.476  0.00  0.00    +0.000 N 
ATOM     11  H   UNL     1       5.065   5.483  19.326  0.00  0.00    +0.000 HD
ENDROOT
BRANCH   9  12
ATOM     12  N   UNL     1       3.422   5.202  17.433  0.00  0.00    +0.000 N 
ATOM     13  H   UNL     1       2.998   5.062  16.515  0.00  0.00    +0.000 HD
BRANCH  12  14
ATOM     14  C   UNL     1       2.649   4.443  18.365  0.00  0.00    +0.000 A 
ATOM     15  C   UNL     1       2.425   3.066  18.198  0.00  0.00    +0.000 A 
ATOM     16  C   UNL     1       1.696   2.334  19.138  0.00  0.00    +0.000 A 
ATOM     17  C   UNL     1       1.201   2.961  20.275  0.00  0.00    +0.000 A 
ATOM     18  C   UNL     1       1.420   4.323  20.465  0.00  0.00    +0.000 A 
ATOM     19  C   UNL     1       2.133   5.078  19.517  0.00  0.00    +0.000 A 
ATOM     20  C   UNL     1       2.359   6.542  19.782  0.00  0.00    +0.000 C 
ENDBRANCH  12  14
ENDBRANCH   9  12
TORSDOF 2
ENDMDL
