MODEL 1
REMARK VINA RESULT:      -8.1      0.000      0.000
REMARK  Name = 
REMARK  3 active torsions:
REMARK  status: ('A' for Active; 'I' for Inactive)
REMARK    1  A    between atoms: C_12  and  C_13
REMARK    2  A    between atoms: C_18  and  N_19
REMARK    3  A    between atoms: C_20  and  C_22
REMARK                            x       y       z     vdW  Elec       q    Type
REMARK                         _______ _______ _______ _____ _____    ______ ____
ROOT
ATOM      1  O   UNL     1       1.039   6.415  20.969  0.00  0.00    +0.000 OA
ATOM      2  C   UNL     1       1.947   5.817  20.401  0.00  0.00    +0.000 C 
ATOM      3  C   UNL     1       2.268   4.419  20.752  0.00  0.00    +0.000 A 
ATOM      4  N   UNL     1       1.426   3.790  21.617  0.00  0.00    +0.000 NA
ATOM      5  C   UNL     1       1.714   2.513  21.949  0.00  0.00    +0.000 A 
ATOM      6  C   UNL     1       2.802   1.824  21.439  0.00  0.00    +0.000 A 
ATOM      7  C   UNL     1       3.650   2.487  20.554  0.00  0.00    +0.000 A 
ATOM      8  C   UNL     1       3.381   3.815  20.208  0.00  0.00    +0.000 A 
ATOM      9  C   UNL     1       4.277   4.573  19.320  0.00  0.00    +0.000 C 
ATOM     10  O   UNL     1       5.424   4.177  19.174  0.00  0.00    +0.000 OA
ATOM     11  C   UNL     1       3.788   5.814  18.669  0.00  0.00    +0.000 A 
ATOM     12  C   UNL     1       4.339   6.386  17.482  0.00  0.00    +0.000 A 
ATOM     13  C   UNL     1       3.781   7.618  17.080  0.00  0.00    +0.000 A 
ATOM     14  C   UNL     1       2.791   8.230  17.828  0.00  0.00    +0.000 A 
ATOM     15  N   UNL     1       2.242   7.668  18.910  0.00  0.00    +0.000 NA
ATOM     16  C   UNL     1       2.720   6.459  19.297  0.00  0.00    +0.000 A 
ENDROOT
BRANCH  12  17
ATOM     17  C   UNL     1       5.329   5.710  16.567  0.00  0.00    +0.000 A 
ATOM     18  C   UNL     1       4.924   4.519  15.913  0.00  0.00    +0.000 A 
ATOM     19  C   UNL     1       5.731   3.829  15.004  0.00  0.00    +0.000 A 
ATOM     20  C   UNL     1       6.968   4.341  14.668  0.00  0.00    +0.000 A 
ATOM     21  C   UNL     1       7.393   5.534  15.241  0.00  0.00    +0.000 A 
ATOM     22  C   UNL     1       6.602   6.235  16.178  0.00  0.00    +0.000 A 
BRANCH  22  23
ATOM     23  N   UNL     1       7.108   7.449  16.714  0.00  0.00    +0.000 N 
ATOM     24  C   UNL     1       7.827   7.573  17.916  0.00  0.00    +0.000 C 
ATOM     25  O   UNL     1       8.074   6.644  18.687  0.00  0.00    +0.000 OA
ATOM     26  H   UNL     1       7.087   8.266  16.113  0.00  0.00    +0.000 HD
BRANCH  24  27
ATOM     27  C   UNL     1       8.375   8.992  18.160  0.00  0.00    +0.000 C 
ATOM     28  F   UNL     1       7.378   9.926  18.134  0.00  0.00    +0.000 F 
ATOM     29  F   UNL     1       8.995   9.120  19.362  0.00  0.00    +0.000 F 
ATOM     30  F   UNL     1       9.271   9.374  17.209  0.00  0.00    +0.000 F 
ENDBRANCH  24  27
ENDBRANCH  22  23
ENDBRANCH  12  17
TORSDOF 3
ENDMDL
MODEL 2
REMARK VINA RESULT:      -8.1      3.247      5.560
REMARK  Name = 
REMARK  3 active torsions:
REMARK  status: ('A' for Active; 'I' for Inactive)
REMARK    1  A    between atoms: C_12  and  C_13
REMARK    2  A    between atoms: C_18  and  N_19
REMARK    3  A    between atoms: C_20  and  C_22
REMARK                            x       y       z     vdW  Elec       q    Type
REMARK                         _______ _______ _______ _____ _____    ______ ____
ROOT
ATOM      1  O   UNL     1       0.953  11.502  18.682  0.00  0.00    +0.000 OA
ATOM      2  C   UNL     1       1.006  10.491  19.374  0.00  0.00    +0.000 C 
ATOM      3  C   UNL     1       0.315  10.430  20.679  0.00  0.00    +0.000 A 
ATOM      4  N   UNL     1      -0.491  11.479  21.001  0.00  0.00    +0.000 NA
ATOM      5  C   UNL     1      -1.123  11.435  22.194  0.00  0.00    +0.000 A 
ATOM      6  C   UNL     1      -1.001  10.375  23.078  0.00  0.00    +0.000 A 
ATOM      7  C   UNL     1      -0.171   9.312  22.727  0.00  0.00    +0.000 A 
ATOM      8  C   UNL     1       0.506   9.343  21.504  0.00  0.00    +0.000 A 
ATOM      9  C   UNL     1       1.434   8.269  21.114  0.00  0.00    +0.000 C 
ATOM     10  O   UNL     1       1.888   7.545  21.988  0.00  0.00    +0.000 OA
ATOM     11  C   UNL     1       1.832   8.124  19.691  0.00  0.00    +0.000 A 
ATOM     12  C   UNL     1       2.328   6.922  19.100  0.00  0.00    +0.000 A 
ATOM     13  C   UNL     1       2.732   7.023  17.752  0.00  0.00    +0.000 A 
ATOM     14  C   UNL     1       2.675   8.232  17.081  0.00  0.00    +0.000 A 
ATOM     15  N   UNL     1       2.164   9.343  17.620  0.00  0.00    +0.000 NA
ATOM     16  C   UNL     1       1.719   9.269  18.900  0.00  0.00    +0.000 A 
ENDROOT
BRANCH  12  17
ATOM     17  C   UNL     1       2.300   5.558  19.744  0.00  0.00    +0.000 A 
ATOM     18  C   UNL     1       1.036   4.973  20.006  0.00  0.00    +0.000 A 
ATOM     19  C   UNL     1       0.879   3.696  20.553  0.00  0.00    +0.000 A 
ATOM     20  C   UNL     1       1.994   2.922  20.806  0.00  0.00    +0.000 A 
ATOM     21  C   UNL     1       3.256   3.428  20.518  0.00  0.00    +0.000 A 
ATOM     22  C   UNL     1       3.438   4.725  19.987  0.00  0.00    +0.000 A 
BRANCH  22  23
ATOM     23  N   UNL     1       4.761   5.164  19.718  0.00  0.00    +0.000 N 
ATOM     24  C   UNL     1       5.513   4.835  18.577  0.00  0.00    +0.000 C 
ATOM     25  O   UNL     1       5.136   4.081  17.679  0.00  0.00    +0.000 OA
ATOM     26  H   UNL     1       5.138   5.895  20.313  0.00  0.00    +0.000 HD
BRANCH  24  27
ATOM     27  C   UNL     1       6.858   5.583  18.492  0.00  0.00    +0.000 C 
ATOM     28  F   UNL     1       7.369   5.840  19.732  0.00  0.00    +0.000 F 
ATOM     29  F   UNL     1       7.809   4.884  17.817  0.00  0.00    +0.000 F 
ATOM     30  F   UNL     1       6.742   6.791  17.876  0.00  0.00    +0.000 F 
ENDBRANCH  24  27
ENDBRANCH  22  23
ENDBRANCH  12  17
TORSDOF 3
ENDMDL
MODEL 3
REMARK VINA RESULT:      -7.3      7.728     10.415
REMARK  Name = 
REMARK  3 active torsions:
REMARK  status: ('A' for Active; 'I' for Inactive)
REMARK    1  A    between atoms: C_12  and  C_13
REMARK    2  A    between atoms: C_18  and  N_19
REMARK    3  A    between atoms: C_20  and  C_22
REMARK                            x       y       z     vdW  Elec       q    Type
REMARK                         _______ _______ _______ _____ _____    ______ ____
ROOT
ATOM      1  O   UNL     1      -6.179  12.496  22.345  0.00  0.00    +0.000 OA
ATOM      2  C   UNL     1      -5.295  12.495  21.494  0.00  0.00    +0.000 C 
ATOM      3  C   UNL     1      -5.627  12.362  20.060  0.00  0.00    +0.000 A 
ATOM      4  N   UNL     1      -6.947  12.389  19.726  0.00  0.00    +0.000 NA
ATOM      5  C   UNL     1      -7.260  12.263  18.418  0.00  0.00    +0.000 A 
ATOM      6  C   UNL     1      -6.309  12.128  17.419  0.00  0.00    +0.000 A 
ATOM      7  C   UNL     1      -4.965  12.104  17.785  0.00  0.00    +0.000 A 
ATOM      8  C   UNL     1      -4.616  12.217  19.135  0.00  0.00    +0.000 A 
ATOM      9  C   UNL     1      -3.214  12.143  19.573  0.00  0.00    +0.000 C 
ATOM     10  O   UNL     1      -2.395  11.630  18.824  0.00  0.00    +0.000 OA
ATOM     11  C   UNL     1      -2.838  12.640  20.921  0.00  0.00    +0.000 A 
ATOM     12  C   UNL     1      -1.525  13.048  21.305  0.00  0.00    +0.000 A 
ATOM     13  C   UNL     1      -1.366  13.406  22.660  0.00  0.00    +0.000 A 
ATOM     14  C   UNL     1      -2.424  13.321  23.548  0.00  0.00    +0.000 A 
ATOM     15  N   UNL     1      -3.664  12.988  23.175  0.00  0.00    +0.000 NA
ATOM     16  C   UNL     1      -3.864  12.686  21.868  0.00  0.00    +0.000 A 
ENDROOT
BRANCH  12  17
ATOM     17  C   UNL     1      -0.371  13.273  20.360  0.00  0.00    +0.000 A 
ATOM     18  C   UNL     1      -0.298  14.517  19.684  0.00  0.00    +0.000 A 
ATOM     19  C   UNL     1       0.747  14.864  18.822  0.00  0.00    +0.000 A 
ATOM     20  C   UNL     1       1.802  13.991  18.648  0.00  0.00    +0.000 A 
ATOM     21  C   UNL     1       1.806  12.779  19.328  0.00  0.00    +0.000 A 
ATOM     22  C   UNL     1       0.749  12.400  20.185  0.00  0.00    +0.000 A 
BRANCH  22  23
ATOM     23  N   UNL     1       0.832  11.146  20.845  0.00  0.00    +0.000 N 
ATOM     24  C   UNL     1       0.608   9.893  20.249  0.00  0.00    +0.000 C 
ATOM     25  O   UNL     1       0.263   9.723  19.078  0.00  0.00    +0.000 OA
ATOM     26  H   UNL     1       1.236  11.137  21.777  0.00  0.00    +0.000 HD
BRANCH  24  27
ATOM     27  C   UNL     1       0.919   8.705  21.179  0.00  0.00    +0.000 C 
ATOM     28  F   UNL     1       1.626   9.101  22.280  0.00  0.00    +0.000 F 
ATOM     29  F   UNL     1      -0.200   8.086  21.639  0.00  0.00    +0.000 F 
ATOM     30  F   UNL     1       1.677   7.752  20.570  0.00  0.00    +0.000 F 
ENDBRANCH  24  27
ENDBRANCH  22  23
ENDBRANCH  12  17
TORSDOF 3
ENDMDL
MODEL 4
REMARK VINA RESULT:      -7.3      3.390      5.540
REMARK  Name = 
REMARK  3 active torsions:
REMARK  status: ('A' for Active; 'I' for Inactive)
REMARK    1  A    between atoms: C_12  and  C_13
REMARK    2  A    between atoms: C_18  and  N_19
REMARK    3  A    between atoms: C_20  and  C_22
REMARK                            x       y       z     vdW  Elec       q    Type
REMARK                         _______ _______ _______ _____ _____    ______ ____
ROOT
ATOM      1  O   UNL     1       0.381  11.872  18.908  0.00  0.00    +0.000 OA
ATOM      2  C   UNL     1       0.600  10.853  19.556  0.00  0.00    +0.000 C 
ATOM      3  C   UNL     1      -0.004  10.662  20.891  0.00  0.00    +0.000 A 
ATOM      4  N   UNL     1      -0.917  11.587  21.295  0.00  0.00    +0.000 NA
ATOM      5  C   UNL     1      -1.471  11.423  22.516  0.00  0.00    +0.000 A 
ATOM      6  C   UNL     1      -1.167  10.360  23.351  0.00  0.00    +0.000 A 
ATOM      7  C   UNL     1      -0.230   9.424  22.916  0.00  0.00    +0.000 A 
ATOM      8  C   UNL     1       0.369   9.582  21.662  0.00  0.00    +0.000 A 
ATOM      9  C   UNL     1       1.401   8.649  21.183  0.00  0.00    +0.000 C 
ATOM     10  O   UNL     1       1.991   7.961  22.003  0.00  0.00    +0.000 OA
ATOM     11  C   UNL     1       1.735   8.603  19.737  0.00  0.00    +0.000 A 
ATOM     12  C   UNL     1       2.345   7.495  19.074  0.00  0.00    +0.000 A 
ATOM     13  C   UNL     1       2.657   7.691  17.713  0.00  0.00    +0.000 A 
ATOM     14  C   UNL     1       2.411   8.904  17.093  0.00  0.00    +0.000 A 
ATOM     15  N   UNL     1       1.794   9.921  17.702  0.00  0.00    +0.000 NA
ATOM     16  C   UNL     1       1.434   9.750  18.998  0.00  0.00    +0.000 A 
ENDROOT
BRANCH  12  17
ATOM     17  C   UNL     1       2.526   6.118  19.664  0.00  0.00    +0.000 A 
ATOM     18  C   UNL     1       1.438   5.553  20.378  0.00  0.00    +0.000 A 
ATOM     19  C   UNL     1       1.465   4.268  20.927  0.00  0.00    +0.000 A 
ATOM     20  C   UNL     1       2.572   3.467  20.731  0.00  0.00    +0.000 A 
ATOM     21  C   UNL     1       3.645   3.953  19.993  0.00  0.00    +0.000 A 
ATOM     22  C   UNL     1       3.648   5.257  19.449  0.00  0.00    +0.000 A 
BRANCH  22  23
ATOM     23  N   UNL     1       4.782   5.675  18.705  0.00  0.00    +0.000 N 
ATOM     24  C   UNL     1       6.122   5.433  19.054  0.00  0.00    +0.000 C 
ATOM     25  O   UNL     1       6.489   4.861  20.083  0.00  0.00    +0.000 OA
ATOM     26  H   UNL     1       4.617   6.040  17.771  0.00  0.00    +0.000 HD
BRANCH  24  27
ATOM     27  C   UNL     1       7.128   5.877  17.975  0.00  0.00    +0.000 C 
ATOM     28  F   UNL     1       7.769   4.807  17.416  0.00  0.00    +0.000 F 
ATOM     29  F   UNL     1       6.543   6.555  16.953  0.00  0.00    +0.000 F 
ATOM     30  F   UNL     1       8.106   6.680  18.475  0.00  0.00    +0.000 F 
ENDBRANCH  24  27
ENDBRANCH  22  23
ENDBRANCH  12  17
TORSDOF 3
ENDMDL
MODEL 5
REMARK VINA RESULT:      -7.2      2.697      6.579
REMARK  Name = 
REMARK  3 active torsions:
REMARK  status: ('A' for Active; 'I' for Inactive)
REMARK    1  A    between atoms: C_12  and  C_13
REMARK    2  A    between atoms: C_18  and  N_19
REMARK    3  A    between atoms: C_20  and  C_22
REMARK                            x       y       z     vdW  Elec       q    Type
REMARK                         _______ _______ _______ _____ _____    ______ ____
ROOT
ATOM      1  O   UNL     1       8.542   5.896  14.606  0.00  0.00    +0.000 OA
ATOM      2  C   UNL     1       7.488   5.370  14.948  0.00  0.00    +0.000 C 
ATOM      3  C   UNL     1       6.708   4.550  13.998  0.00  0.00    +0.000 A 
ATOM      4  N   UNL     1       7.281   4.291  12.791  0.00  0.00    +0.000 NA
ATOM      5  C   UNL     1       6.573   3.546  11.913  0.00  0.00    +0.000 A 
ATOM      6  C   UNL     1       5.319   3.031  12.195  0.00  0.00    +0.000 A 
ATOM      7  C   UNL     1       4.752   3.308  13.438  0.00  0.00    +0.000 A 
ATOM      8  C   UNL     1       5.460   4.090  14.357  0.00  0.00    +0.000 A 
ATOM      9  C   UNL     1       4.880   4.454  15.660  0.00  0.00    +0.000 C 
ATOM     10  O   UNL     1       3.668   4.385  15.798  0.00  0.00    +0.000 OA
ATOM     11  C   UNL     1       5.766   4.939  16.748  0.00  0.00    +0.000 A 
ATOM     12  C   UNL     1       5.451   4.895  18.139  0.00  0.00    +0.000 A 
ATOM     13  C   UNL     1       6.396   5.489  19.002  0.00  0.00    +0.000 A 
ATOM     14  C   UNL     1       7.531   6.102  18.500  0.00  0.00    +0.000 A 
ATOM     15  N   UNL     1       7.849   6.096  17.201  0.00  0.00    +0.000 NA
ATOM     16  C   UNL     1       6.987   5.490  16.348  0.00  0.00    +0.000 A 
ENDROOT
BRANCH  12  17
ATOM     17  C   UNL     1       4.295   4.140  18.748  0.00  0.00    +0.000 A 
ATOM     18  C   UNL     1       4.575   2.919  19.411  0.00  0.00    +0.000 A 
ATOM     19  C   UNL     1       3.598   2.154  20.057  0.00  0.00    +0.000 A 
ATOM     20  C   UNL     1       2.299   2.617  20.114  0.00  0.00    +0.000 A 
ATOM     21  C   UNL     1       1.982   3.835  19.525  0.00  0.00    +0.000 A 
ATOM     22  C   UNL     1       2.948   4.612  18.848  0.00  0.00    +0.000 A 
BRANCH  22  23
ATOM     23  N   UNL     1       2.541   5.847  18.276  0.00  0.00    +0.000 N 
ATOM     24  C   UNL     1       2.301   7.035  18.988  0.00  0.00    +0.000 C 
ATOM     25  O   UNL     1       2.370   7.148  20.213  0.00  0.00    +0.000 OA
ATOM     26  H   UNL     1       2.576   5.924  17.264  0.00  0.00    +0.000 HD
BRANCH  24  27
ATOM     27  C   UNL     1       2.020   8.248  18.080  0.00  0.00    +0.000 C 
ATOM     28  F   UNL     1       1.884   9.398  18.806  0.00  0.00    +0.000 F 
ATOM     29  F   UNL     1       3.011   8.474  17.178  0.00  0.00    +0.000 F 
ATOM     30  F   UNL     1       0.865   8.112  17.374  0.00  0.00    +0.000 F 
ENDBRANCH  24  27
ENDBRANCH  22  23
ENDBRANCH  12  17
TORSDOF 3
ENDMDL
MODEL 6
REMARK VINA RESULT:      -7.2      4.296      7.125
REMARK  Name = 
REMARK  3 active torsions:
REMARK  status: ('A' for Active; 'I' for Inactive)
REMARK    1  A    between atoms: C_12  and  C_13
REMARK    2  A    between atoms: C_18  and  N_19
REMARK    3  A    between atoms: C_20  and  C_22
REMARK                            x       y       z     vdW  Elec       q    Type
REMARK                         _______ _______ _______ _____ _____    ______ ____
ROOT
ATOM      1  O   UNL     1       4.403   5.024  17.195  0.00  0.00    +0.000 OA
ATOM      2  C   UNL     1       3.689   5.281  18.160  0.00  0.00    +0.000 C 
ATOM      3  C   UNL     1       3.518   4.303  19.255  0.00  0.00    +0.000 A 
ATOM      4  N   UNL     1       4.294   3.185  19.212  0.00  0.00    +0.000 NA
ATOM      5  C   UNL     1       4.140   2.283  20.206  0.00  0.00    +0.000 A 
ATOM      6  C   UNL     1       3.255   2.456  21.257  0.00  0.00    +0.000 A 
ATOM      7  C   UNL     1       2.472   3.609  21.281  0.00  0.00    +0.000 A 
ATOM      8  C   UNL     1       2.602   4.550  20.254  0.00  0.00    +0.000 A 
ATOM      9  C   UNL     1       1.759   5.755  20.208  0.00  0.00    +0.000 C 
ATOM     10  O   UNL     1       0.717   5.763  20.846  0.00  0.00    +0.000 OA
ATOM     11  C   UNL     1       2.164   6.902  19.356  0.00  0.00    +0.000 A 
ATOM     12  C   UNL     1       1.732   8.250  19.542  0.00  0.00    +0.000 A 
ATOM     13  C   UNL     1       2.166   9.173  18.567  0.00  0.00    +0.000 A 
ATOM     14  C   UNL     1       2.930   8.762  17.488  0.00  0.00    +0.000 A 
ATOM     15  N   UNL     1       3.375   7.510  17.344  0.00  0.00    +0.000 NA
ATOM     16  C   UNL     1       3.018   6.606  18.291  0.00  0.00    +0.000 A 
ENDROOT
BRANCH  12  17
ATOM     17  C   UNL     1       1.005   8.773  20.755  0.00  0.00    +0.000 A 
ATOM     18  C   UNL     1       1.691   8.768  21.996  0.00  0.00    +0.000 A 
ATOM     19  C   UNL     1       1.143   9.271  23.179  0.00  0.00    +0.000 A 
ATOM     20  C   UNL     1      -0.105   9.859  23.155  0.00  0.00    +0.000 A 
ATOM     21  C   UNL     1      -0.800   9.938  21.953  0.00  0.00    +0.000 A 
ATOM     22  C   UNL     1      -0.274   9.415  20.751  0.00  0.00    +0.000 A 
BRANCH  22  23
ATOM     23  N   UNL     1      -1.047   9.540  19.566  0.00  0.00    +0.000 N 
ATOM     24  C   UNL     1      -1.146  10.697  18.775  0.00  0.00    +0.000 C 
ATOM     25  O   UNL     1      -0.608  11.775  19.035  0.00  0.00    +0.000 OA
ATOM     26  H   UNL     1      -1.433   8.687  19.172  0.00  0.00    +0.000 HD
BRANCH  24  27
ATOM     27  C   UNL     1      -1.938  10.484  17.471  0.00  0.00    +0.000 C 
ATOM     28  F   UNL     1      -2.051  11.643  16.756  0.00  0.00    +0.000 F 
ATOM     29  F   UNL     1      -1.359   9.573  16.644  0.00  0.00    +0.000 F 
ATOM     30  F   UNL     1      -3.210  10.058  17.699  0.00  0.00    +0.000 F 
ENDBRANCH  24  27
ENDBRANCH  22  23
ENDBRANCH  12  17
TORSDOF 3
ENDMDL
MODEL 7
REMARK VINA RESULT:      -7.1      7.593     10.182
REMARK  Name = 
REMARK  3 active torsions:
REMARK  status: ('A' for Active; 'I' for Inactive)
REMARK    1  A    between atoms: C_12  and  C_13
REMARK    2  A    between atoms: C_18  and  N_19
REMARK    3  A    between atoms: C_20  and  C_22
REMARK                            x       y       z     vdW  Elec       q    Type
REMARK                         _______ _______ _______ _____ _____    ______ ____
ROOT
ATOM      1  O   UNL     1      -5.874  11.736  20.204  0.00  0.00    +0.000 OA
ATOM      2  C   UNL     1      -4.798  12.234  20.517  0.00  0.00    +0.000 C 
ATOM      3  C   UNL     1      -4.579  12.767  21.878  0.00  0.00    +0.000 A 
ATOM      4  N   UNL     1      -5.562  12.548  22.793  0.00  0.00    +0.000 NA
ATOM      5  C   UNL     1      -5.374  13.035  24.039  0.00  0.00    +0.000 A 
ATOM      6  C   UNL     1      -4.232  13.722  24.420  0.00  0.00    +0.000 A 
ATOM      7  C   UNL     1      -3.238  13.933  23.467  0.00  0.00    +0.000 A 
ATOM      8  C   UNL     1      -3.418  13.451  22.166  0.00  0.00    +0.000 A 
ATOM      9  C   UNL     1      -2.420  13.697  21.112  0.00  0.00    +0.000 C 
ATOM     10  O   UNL     1      -1.623  14.611  21.266  0.00  0.00    +0.000 OA
ATOM     11  C   UNL     1      -2.437  12.872  19.878  0.00  0.00    +0.000 A 
ATOM     12  C   UNL     1      -1.320  12.676  19.011  0.00  0.00    +0.000 A 
ATOM     13  C   UNL     1      -1.574  11.926  17.844  0.00  0.00    +0.000 A 
ATOM     14  C   UNL     1      -2.845  11.452  17.564  0.00  0.00    +0.000 A 
ATOM     15  N   UNL     1      -3.876  11.593  18.402  0.00  0.00    +0.000 NA
ATOM     16  C   UNL     1      -3.655  12.267  19.559  0.00  0.00    +0.000 A 
ENDROOT
BRANCH  12  17
ATOM     17  C   UNL     1       0.104  13.064  19.322  0.00  0.00    +0.000 A 
ATOM     18  C   UNL     1       0.606  14.263  18.755  0.00  0.00    +0.000 A 
ATOM     19  C   UNL     1       1.890  14.754  19.008  0.00  0.00    +0.000 A 
ATOM     20  C   UNL     1       2.711  14.086  19.894  0.00  0.00    +0.000 A 
ATOM     21  C   UNL     1       2.249  12.933  20.518  0.00  0.00    +0.000 A 
ATOM     22  C   UNL     1       0.963  12.408  20.259  0.00  0.00    +0.000 A 
BRANCH  22  23
ATOM     23  N   UNL     1       0.567  11.227  20.942  0.00  0.00    +0.000 N 
ATOM     24  C   UNL     1       0.728   9.915  20.464  0.00  0.00    +0.000 C 
ATOM     25  O   UNL     1       1.197   9.620  19.363  0.00  0.00    +0.000 OA
ATOM     26  H   UNL     1       0.288  11.324  21.913  0.00  0.00    +0.000 HD
BRANCH  24  27
ATOM     27  C   UNL     1       0.339   8.835  21.491  0.00  0.00    +0.000 C 
ATOM     28  F   UNL     1       1.124   7.723  21.373  0.00  0.00    +0.000 F 
ATOM     29  F   UNL     1       0.459   9.261  22.776  0.00  0.00    +0.000 F 
ATOM     30  F   UNL     1      -0.943   8.407  21.334  0.00  0.00    +0.000 F 
ENDBRANCH  24  27
ENDBRANCH  22  23
ENDBRANCH  12  17
TORSDOF 3
ENDMDL
MODEL 8
REMARK VINA RESULT:      -7.1      8.415     10.684
REMARK  Name = 
REMARK  3 active torsions:
REMARK  status: ('A' for Active; 'I' for Inactive)
REMARK    1  A    between atoms: C_12  and  C_13
REMARK    2  A    between atoms: C_18  and  N_19
REMARK    3  A    between atoms: C_20  and  C_22
REMARK                            x       y       z     vdW  Elec       q    Type
REMARK                         _______ _______ _______ _____ _____    ______ ____
ROOT
ATOM      1  O   UNL     1      -7.181  12.431  20.467  0.00  0.00    +0.000 OA
ATOM      2  C   UNL     1      -5.965  12.428  20.632  0.00  0.00    +0.000 C 
ATOM      3  C   UNL     1      -5.385  12.533  21.988  0.00  0.00    +0.000 A 
ATOM      4  N   UNL     1      -6.253  12.485  23.036  0.00  0.00    +0.000 NA
ATOM      5  C   UNL     1      -5.733  12.585  24.279  0.00  0.00    +0.000 A 
ATOM      6  C   UNL     1      -4.376  12.714  24.525  0.00  0.00    +0.000 A 
ATOM      7  C   UNL     1      -3.506  12.761  23.437  0.00  0.00    +0.000 A 
ATOM      8  C   UNL     1      -4.023  12.674  22.140  0.00  0.00    +0.000 A 
ATOM      9  C   UNL     1      -3.150  12.773  20.959  0.00  0.00    +0.000 C 
ATOM     10  O   UNL     1      -2.047  13.282  21.090  0.00  0.00    +0.000 OA
ATOM     11  C   UNL     1      -3.644  12.302  19.640  0.00  0.00    +0.000 A 
ATOM     12  C   UNL     1      -2.812  11.917  18.546  0.00  0.00    +0.000 A 
ATOM     13  C   UNL     1      -3.484  11.584  17.351  0.00  0.00    +0.000 A 
ATOM     14  C   UNL     1      -4.863  11.672  17.262  0.00  0.00    +0.000 A 
ATOM     15  N   UNL     1      -5.642  11.984  18.302  0.00  0.00    +0.000 NA
ATOM     16  C   UNL     1      -5.032  12.261  19.481  0.00  0.00    +0.000 A 
ENDROOT
BRANCH  12  17
ATOM     17  C   UNL     1      -1.322  11.690  18.622  0.00  0.00    +0.000 A 
ATOM     18  C   UNL     1      -0.850  10.353  18.568  0.00  0.00    +0.000 A 
ATOM     19  C   UNL     1       0.507  10.017  18.579  0.00  0.00    +0.000 A 
ATOM     20  C   UNL     1       1.456  11.020  18.586  0.00  0.00    +0.000 A 
ATOM     21  C   UNL     1       1.047  12.348  18.586  0.00  0.00    +0.000 A 
ATOM     22  C   UNL     1      -0.318  12.709  18.598  0.00  0.00    +0.000 A 
BRANCH  22  23
ATOM     23  N   UNL     1      -0.652  14.089  18.594  0.00  0.00    +0.000 N 
ATOM     24  C   UNL     1       0.227  15.142  18.904  0.00  0.00    +0.000 C 
ATOM     25  O   UNL     1       1.396  14.998  19.266  0.00  0.00    +0.000 OA
ATOM     26  H   UNL     1      -1.545  14.350  18.187  0.00  0.00    +0.000 HD
BRANCH  24  27
ATOM     27  C   UNL     1      -0.379  16.538  18.666  0.00  0.00    +0.000 C 
ATOM     28  F   UNL     1       0.369  17.518  19.256  0.00  0.00    +0.000 F 
ATOM     29  F   UNL     1      -0.468  16.858  17.348  0.00  0.00    +0.000 F 
ATOM     30  F   UNL     1      -1.631  16.657  19.188  0.00  0.00    +0.000 F 
ENDBRANCH  24  27
ENDBRANCH  22  23
ENDBRANCH  12  17
TORSDOF 3
ENDMDL
MODEL 9
REMARK VINA RESULT:      -7.0      8.130     10.472
REMARK  Name = 
REMARK  3 active torsions:
REMARK  status: ('A' for Active; 'I' for Inactive)
REMARK    1  A    between atoms: C_12  and  C_13
REMARK    2  A    between atoms: C_18  and  N_19
REMARK    3  A    between atoms: C_20  and  C_22
REMARK                            x       y       z     vdW  Elec       q    Type
REMARK                         _______ _______ _______ _____ _____    ______ ____
ROOT
ATOM      1  O   UNL     1      -5.867  11.589  19.941  0.00  0.00    +0.000 OA
ATOM      2  C   UNL     1      -4.834  12.153  20.288  0.00  0.00    +0.000 C 
ATOM      3  C   UNL     1      -4.707  12.735  21.640  0.00  0.00    +0.000 A 
ATOM      4  N   UNL     1      -5.720  12.489  22.516  0.00  0.00    +0.000 NA
ATOM      5  C   UNL     1      -5.616  13.021  23.753  0.00  0.00    +0.000 A 
ATOM      6  C   UNL     1      -4.531  13.778  24.164  0.00  0.00    +0.000 A 
ATOM      7  C   UNL     1      -3.505  14.016  23.251  0.00  0.00    +0.000 A 
ATOM      8  C   UNL     1      -3.598  13.488  21.959  0.00  0.00    +0.000 A 
ATOM      9  C   UNL     1      -2.567  13.758  20.945  0.00  0.00    +0.000 C 
ATOM     10  O   UNL     1      -1.827  14.717  21.107  0.00  0.00    +0.000 OA
ATOM     11  C   UNL     1      -2.483  12.898  19.737  0.00  0.00    +0.000 A 
ATOM     12  C   UNL     1      -1.318  12.739  18.927  0.00  0.00    +0.000 A 
ATOM     13  C   UNL     1      -1.477  11.943  17.773  0.00  0.00    +0.000 A 
ATOM     14  C   UNL     1      -2.707  11.394  17.451  0.00  0.00    +0.000 A 
ATOM     15  N   UNL     1      -3.782  11.503  18.237  0.00  0.00    +0.000 NA
ATOM     16  C   UNL     1      -3.651  12.220  19.381  0.00  0.00    +0.000 A 
ENDROOT
BRANCH  12  17
ATOM     17  C   UNL     1       0.068  13.211  19.291  0.00  0.00    +0.000 A 
ATOM     18  C   UNL     1       0.459  14.508  18.873  0.00  0.00    +0.000 A 
ATOM     19  C   UNL     1       1.696  15.077  19.190  0.00  0.00    +0.000 A 
ATOM     20  C   UNL     1       2.577  14.383  19.996  0.00  0.00    +0.000 A 
ATOM     21  C   UNL     1       2.221  13.129  20.476  0.00  0.00    +0.000 A 
ATOM     22  C   UNL     1       0.986  12.527  20.149  0.00  0.00    +0.000 A 
BRANCH  22  23
ATOM     23  N   UNL     1       0.698  11.243  20.684  0.00  0.00    +0.000 N 
ATOM     24  C   UNL     1       0.075  10.996  21.920  0.00  0.00    +0.000 C 
ATOM     25  O   UNL     1      -0.264  11.866  22.724  0.00  0.00    +0.000 OA
ATOM     26  H   UNL     1       0.807  10.446  20.064  0.00  0.00    +0.000 HD
BRANCH  24  27
ATOM     27  C   UNL     1      -0.240   9.507  22.161  0.00  0.00    +0.000 C 
ATOM     28  F   UNL     1       0.880   8.807  22.511  0.00  0.00    +0.000 F 
ATOM     29  F   UNL     1      -1.145   9.313  23.157  0.00  0.00    +0.000 F 
ATOM     30  F   UNL     1      -0.735   8.894  21.051  0.00  0.00    +0.000 F 
ENDBRANCH  24  27
ENDBRANCH  22  23
ENDBRANCH  12  17
TORSDOF 3
ENDMDL
