MODEL 1
REMARK VINA RESULT:      -6.7      0.000      0.000
REMARK  Name = 
REMARK  4 active torsions:
REMARK  status: ('A' for Active; 'I' for Inactive)
REMARK    1  A    between atoms: C_2  and  C_3
REMARK    2  A    between atoms: C_3  and  C_4
REMARK    3  A    between atoms: C_5  and  C_6
REMARK    4  A    between atoms: C_14  and  O_15
REMARK                            x       y       z     vdW  Elec       q    Type
REMARK                         _______ _______ _______ _____ _____    ______ ____
ROOT
ATOM      1  C   UNL     1       4.482   5.709  18.164  0.00  0.00    +0.000 A 
ATOM      2  C   UNL     1       3.333   6.471  18.385  0.00  0.00    +0.000 A 
ATOM      3  C   UNL     1       3.089   7.808  17.749  0.00  0.00    +0.000 C 
ATOM      4  N   UNL     1       2.307   6.037  19.159  0.00  0.00    +0.000 NA
ATOM      5  C   UNL     1       2.391   4.849  19.774  0.00  0.00    +0.000 A 
ATOM      6  C   UNL     1       1.297   4.422  20.513  0.00  0.00    +0.000 A 
ATOM      7  C   UNL     1       1.288   3.203  21.191  0.00  0.00    +0.000 A 
ATOM      8  C   UNL     1       2.412   2.391  21.148  0.00  0.00    +0.000 A 
ATOM      9  C   UNL     1       3.527   2.799  20.410  0.00  0.00    +0.000 A 
ATOM     10  C   UNL     1       3.530   4.024  19.694  0.00  0.00    +0.000 A 
ATOM     11  C   UNL     1       4.578   4.497  18.868  0.00  0.00    +0.000 A 
ENDROOT
BRANCH  11  12
ATOM     12  O   UNL     1       5.739   3.783  18.692  0.00  0.00    +0.000 OA
ATOM     13  H   UNL     1       5.562   2.973  18.194  0.00  0.00    +0.000 HD
ENDBRANCH  11  12
BRANCH   1  14
ATOM     14  C   UNL     1       5.571   6.137  17.209  0.00  0.00    +0.000 C 
BRANCH  14  16
ATOM     15  C   UNL     1       5.721   4.613  15.211  0.00  0.00    +0.000 C 
ATOM     16  C   UNL     1       5.306   5.754  15.779  0.00  0.00    +0.000 C 
ENDBRANCH  14  16
ENDBRANCH   1  14
TORSDOF 3
ENDMDL
MODEL 2
REMARK VINA RESULT:      -6.6      0.808      1.332
REMARK  Name = 
REMARK  4 active torsions:
REMARK  status: ('A' for Active; 'I' for Inactive)
REMARK    1  A    between atoms: C_2  and  C_3
REMARK    2  A    between atoms: C_3  and  C_4
REMARK    3  A    between atoms: C_5  and  C_6
REMARK    4  A    between atoms: C_14  and  O_15
REMARK                            x       y       z     vdW  Elec       q    Type
REMARK                         _______ _______ _______ _____ _____    ______ ____
ROOT
ATOM      1  C   UNL     1       4.687   5.471  18.157  0.00  0.00    +0.000 A 
ATOM      2  C   UNL     1       3.580   6.310  18.291  0.00  0.00    +0.000 A 
ATOM      3  C   UNL     1       3.449   7.630  17.590  0.00  0.00    +0.000 C 
ATOM      4  N   UNL     1       2.494   5.973  19.032  0.00  0.00    +0.000 NA
ATOM      5  C   UNL     1       2.475   4.810  19.698  0.00  0.00    +0.000 A 
ATOM      6  C   UNL     1       1.324   4.483  20.401  0.00  0.00    +0.000 A 
ATOM      7  C   UNL     1       1.208   3.298  21.127  0.00  0.00    +0.000 A 
ATOM      8  C   UNL     1       2.280   2.418  21.171  0.00  0.00    +0.000 A 
ATOM      9  C   UNL     1       3.450   2.724  20.472  0.00  0.00    +0.000 A 
ATOM     10  C   UNL     1       3.562   3.915  19.708  0.00  0.00    +0.000 A 
ATOM     11  C   UNL     1       4.675   4.287  18.914  0.00  0.00    +0.000 A 
ENDROOT
BRANCH  11  12
ATOM     12  O   UNL     1       5.795   3.496  18.823  0.00  0.00    +0.000 OA
ATOM     13  H   UNL     1       6.307   3.728  18.037  0.00  0.00    +0.000 HD
ENDBRANCH  11  12
BRANCH   1  14
ATOM     14  C   UNL     1       5.844   5.789  17.239  0.00  0.00    +0.000 C 
BRANCH  14  16
ATOM     15  C   UNL     1       7.571   7.596  17.533  0.00  0.00    +0.000 C 
ATOM     16  C   UNL     1       7.002   6.452  17.933  0.00  0.00    +0.000 C 
ENDBRANCH  14  16
ENDBRANCH   1  14
TORSDOF 3
ENDMDL
MODEL 3
REMARK VINA RESULT:      -6.6      1.681      4.731
REMARK  Name = 
REMARK  4 active torsions:
REMARK  status: ('A' for Active; 'I' for Inactive)
REMARK    1  A    between atoms: C_2  and  C_3
REMARK    2  A    between atoms: C_3  and  C_4
REMARK    3  A    between atoms: C_5  and  C_6
REMARK    4  A    between atoms: C_14  and  O_15
REMARK                            x       y       z     vdW  Elec       q    Type
REMARK                         _______ _______ _______ _____ _____    ______ ____
ROOT
ATOM      1  C   UNL     1       3.321   3.433  18.777  0.00  0.00    +0.000 A 
ATOM      2  C   UNL     1       2.755   4.394  17.937  0.00  0.00    +0.000 A 
ATOM      3  C   UNL     1       1.308   4.402  17.541  0.00  0.00    +0.000 C 
ATOM      4  N   UNL     1       3.462   5.444  17.447  0.00  0.00    +0.000 NA
ATOM      5  C   UNL     1       4.765   5.564  17.739  0.00  0.00    +0.000 A 
ATOM      6  C   UNL     1       5.437   6.680  17.259  0.00  0.00    +0.000 A 
ATOM      7  C   UNL     1       6.793   6.894  17.507  0.00  0.00    +0.000 A 
ATOM      8  C   UNL     1       7.508   5.957  18.238  0.00  0.00    +0.000 A 
ATOM      9  C   UNL     1       6.855   4.826  18.732  0.00  0.00    +0.000 A 
ATOM     10  C   UNL     1       5.469   4.618  18.509  0.00  0.00    +0.000 A 
ATOM     11  C   UNL     1       4.700   3.543  19.018  0.00  0.00    +0.000 A 
ENDROOT
BRANCH  11  12
ATOM     12  O   UNL     1       5.261   2.558  19.796  0.00  0.00    +0.000 OA
ATOM     13  H   UNL     1       5.525   2.917  20.653  0.00  0.00    +0.000 HD
ENDBRANCH  11  12
BRANCH   1  14
ATOM     14  C   UNL     1       2.508   2.334  19.419  0.00  0.00    +0.000 C 
BRANCH  14  16
ATOM     15  C   UNL     1       2.137   3.436  21.652  0.00  0.00    +0.000 C 
ATOM     16  C   UNL     1       1.662   2.802  20.571  0.00  0.00    +0.000 C 
ENDBRANCH  14  16
ENDBRANCH   1  14
TORSDOF 3
ENDMDL
MODEL 4
REMARK VINA RESULT:      -6.5      2.122      3.069
REMARK  Name = 
REMARK  4 active torsions:
REMARK  status: ('A' for Active; 'I' for Inactive)
REMARK    1  A    between atoms: C_2  and  C_3
REMARK    2  A    between atoms: C_3  and  C_4
REMARK    3  A    between atoms: C_5  and  C_6
REMARK    4  A    between atoms: C_14  and  O_15
REMARK                            x       y       z     vdW  Elec       q    Type
REMARK                         _______ _______ _______ _____ _____    ______ ____
ROOT
ATOM      1  C   UNL     1       4.654   5.517  17.044  0.00  0.00    +0.000 A 
ATOM      2  C   UNL     1       4.857   4.233  16.537  0.00  0.00    +0.000 A 
ATOM      3  C   UNL     1       5.936   3.888  15.554  0.00  0.00    +0.000 C 
ATOM      4  N   UNL     1       4.120   3.165  16.937  0.00  0.00    +0.000 NA
ATOM      5  C   UNL     1       3.131   3.332  17.827  0.00  0.00    +0.000 A 
ATOM      6  C   UNL     1       2.438   2.206  18.246  0.00  0.00    +0.000 A 
ATOM      7  C   UNL     1       1.392   2.277  19.166  0.00  0.00    +0.000 A 
ATOM      8  C   UNL     1       1.010   3.511  19.670  0.00  0.00    +0.000 A 
ATOM      9  C   UNL     1       1.692   4.661  19.264  0.00  0.00    +0.000 A 
ATOM     10  C   UNL     1       2.776   4.591  18.351  0.00  0.00    +0.000 A 
ATOM     11  C   UNL     1       3.573   5.682  17.926  0.00  0.00    +0.000 A 
ENDROOT
BRANCH  11  12
ATOM     12  O   UNL     1       3.343   6.962  18.372  0.00  0.00    +0.000 OA
ATOM     13  H   UNL     1       2.576   7.341  17.924  0.00  0.00    +0.000 HD
ENDBRANCH  11  12
BRANCH   1  14
ATOM     14  C   UNL     1       5.549   6.682  16.691  0.00  0.00    +0.000 C 
BRANCH  14  16
ATOM     15  C   UNL     1       7.652   7.791  17.518  0.00  0.00    +0.000 C 
ATOM     16  C   UNL     1       6.798   6.758  17.525  0.00  0.00    +0.000 C 
ENDBRANCH  14  16
ENDBRANCH   1  14
TORSDOF 3
ENDMDL
MODEL 5
REMARK VINA RESULT:      -6.5      1.487      1.765
REMARK  Name = 
REMARK  4 active torsions:
REMARK  status: ('A' for Active; 'I' for Inactive)
REMARK    1  A    between atoms: C_2  and  C_3
REMARK    2  A    between atoms: C_3  and  C_4
REMARK    3  A    between atoms: C_5  and  C_6
REMARK    4  A    between atoms: C_14  and  O_15
REMARK                            x       y       z     vdW  Elec       q    Type
REMARK                         _______ _______ _______ _____ _____    ______ ____
ROOT
ATOM      1  C   UNL     1       4.958   4.361  17.279  0.00  0.00    +0.000 A 
ATOM      2  C   UNL     1       4.758   5.661  17.749  0.00  0.00    +0.000 A 
ATOM      3  C   UNL     1       5.547   6.845  17.275  0.00  0.00    +0.000 C 
ATOM      4  N   UNL     1       3.786   5.973  18.643  0.00  0.00    +0.000 NA
ATOM      5  C   UNL     1       2.997   5.007  19.135  0.00  0.00    +0.000 A 
ATOM      6  C   UNL     1       1.984   5.378  20.007  0.00  0.00    +0.000 A 
ATOM      7  C   UNL     1       1.113   4.447  20.574  0.00  0.00    +0.000 A 
ATOM      8  C   UNL     1       1.268   3.101  20.279  0.00  0.00    +0.000 A 
ATOM      9  C   UNL     1       2.281   2.701  19.404  0.00  0.00    +0.000 A 
ATOM     10  C   UNL     1       3.151   3.647  18.801  0.00  0.00    +0.000 A 
ATOM     11  C   UNL     1       4.163   3.356  17.855  0.00  0.00    +0.000 A 
ENDROOT
BRANCH  11  12
ATOM     12  O   UNL     1       4.409   2.071  17.431  0.00  0.00    +0.000 OA
ATOM     13  H   UNL     1       4.063   1.435  18.070  0.00  0.00    +0.000 HD
ENDBRANCH  11  12
BRANCH   1  14
ATOM     14  C   UNL     1       5.958   4.032  16.196  0.00  0.00    +0.000 C 
BRANCH  14  16
ATOM     15  C   UNL     1       6.085   3.915  13.685  0.00  0.00    +0.000 C 
ATOM     16  C   UNL     1       5.442   4.275  14.804  0.00  0.00    +0.000 C 
ENDBRANCH  14  16
ENDBRANCH   1  14
TORSDOF 3
ENDMDL
MODEL 6
REMARK VINA RESULT:      -6.4      1.386      1.622
REMARK  Name = 
REMARK  4 active torsions:
REMARK  status: ('A' for Active; 'I' for Inactive)
REMARK    1  A    between atoms: C_2  and  C_3
REMARK    2  A    between atoms: C_3  and  C_4
REMARK    3  A    between atoms: C_5  and  C_6
REMARK    4  A    between atoms: C_14  and  O_15
REMARK                            x       y       z     vdW  Elec       q    Type
REMARK                         _______ _______ _______ _____ _____    ______ ____
ROOT
ATOM      1  C   UNL     1       4.469   4.524  17.116  0.00  0.00    +0.000 A 
ATOM      2  C   UNL     1       4.047   5.755  17.622  0.00  0.00    +0.000 A 
ATOM      3  C   UNL     1       4.483   7.077  17.062  0.00  0.00    +0.000 C 
ATOM      4  N   UNL     1       3.156   5.859  18.640  0.00  0.00    +0.000 NA
ATOM      5  C   UNL     1       2.674   4.751  19.221  0.00  0.00    +0.000 A 
ATOM      6  C   UNL     1       1.726   4.904  20.223  0.00  0.00    +0.000 A 
ATOM      7  C   UNL     1       1.167   3.813  20.890  0.00  0.00    +0.000 A 
ATOM      8  C   UNL     1       1.579   2.530  20.561  0.00  0.00    +0.000 A 
ATOM      9  C   UNL     1       2.532   2.350  19.556  0.00  0.00    +0.000 A 
ATOM     10  C   UNL     1       3.082   3.454  18.855  0.00  0.00    +0.000 A 
ATOM     11  C   UNL     1       4.001   3.378  17.780  0.00  0.00    +0.000 A 
ENDROOT
BRANCH  11  12
ATOM     12  O   UNL     1       4.469   2.173  17.313  0.00  0.00    +0.000 OA
ATOM     13  H   UNL     1       4.756   2.257  16.394  0.00  0.00    +0.000 HD
ENDBRANCH  11  12
BRANCH   1  14
ATOM     14  C   UNL     1       5.366   4.406  15.907  0.00  0.00    +0.000 C 
BRANCH  14  16
ATOM     15  C   UNL     1       7.359   4.689  17.418  0.00  0.00    +0.000 C 
ATOM     16  C   UNL     1       6.828   4.313  16.247  0.00  0.00    +0.000 C 
ENDBRANCH  14  16
ENDBRANCH   1  14
TORSDOF 3
ENDMDL
MODEL 7
REMARK VINA RESULT:      -6.4      1.627      4.859
REMARK  Name = 
REMARK  4 active torsions:
REMARK  status: ('A' for Active; 'I' for Inactive)
REMARK    1  A    between atoms: C_2  and  C_3
REMARK    2  A    between atoms: C_3  and  C_4
REMARK    3  A    between atoms: C_5  and  C_6
REMARK    4  A    between atoms: C_14  and  O_15
REMARK                            x       y       z     vdW  Elec       q    Type
REMARK                         _______ _______ _______ _____ _____    ______ ____
ROOT
ATOM      1  C   UNL     1       2.025   4.369  18.894  0.00  0.00    +0.000 A 
ATOM      2  C   UNL     1       2.410   5.622  19.374  0.00  0.00    +0.000 A 
ATOM      3  C   UNL     1       1.740   6.312  20.525  0.00  0.00    +0.000 C 
ATOM      4  N   UNL     1       3.470   6.303  18.869  0.00  0.00    +0.000 NA
ATOM      5  C   UNL     1       4.167   5.789  17.846  0.00  0.00    +0.000 A 
ATOM      6  C   UNL     1       5.273   6.495  17.395  0.00  0.00    +0.000 A 
ATOM      7  C   UNL     1       6.061   6.044  16.335  0.00  0.00    +0.000 A 
ATOM      8  C   UNL     1       5.725   4.863  15.691  0.00  0.00    +0.000 A 
ATOM      9  C   UNL     1       4.615   4.133  16.126  0.00  0.00    +0.000 A 
ATOM     10  C   UNL     1       3.828   4.572  17.222  0.00  0.00    +0.000 A 
ATOM     11  C   UNL     1       2.728   3.878  17.782  0.00  0.00    +0.000 A 
ENDROOT
BRANCH  11  12
ATOM     12  O   UNL     1       2.302   2.672  17.278  0.00  0.00    +0.000 OA
ATOM     13  H   UNL     1       3.048   2.178  16.914  0.00  0.00    +0.000 HD
ENDBRANCH  11  12
BRANCH   1  14
ATOM     14  C   UNL     1       0.923   3.556  19.533  0.00  0.00    +0.000 C 
BRANCH  14  16
ATOM     15  C   UNL     1       1.809   2.816  21.770  0.00  0.00    +0.000 C 
ATOM     16  C   UNL     1       1.420   2.535  20.519  0.00  0.00    +0.000 C 
ENDBRANCH  14  16
ENDBRANCH   1  14
TORSDOF 3
ENDMDL
MODEL 8
REMARK VINA RESULT:      -6.4      2.093      2.920
REMARK  Name = 
REMARK  4 active torsions:
REMARK  status: ('A' for Active; 'I' for Inactive)
REMARK    1  A    between atoms: C_2  and  C_3
REMARK    2  A    between atoms: C_3  and  C_4
REMARK    3  A    between atoms: C_5  and  C_6
REMARK    4  A    between atoms: C_14  and  O_15
REMARK                            x       y       z     vdW  Elec       q    Type
REMARK                         _______ _______ _______ _____ _____    ______ ____
ROOT
ATOM      1  C   UNL     1       6.051   5.094  17.474  0.00  0.00    +0.000 A 
ATOM      2  C   UNL     1       5.329   4.761  16.326  0.00  0.00    +0.000 A 
ATOM      3  C   UNL     1       5.733   5.177  14.942  0.00  0.00    +0.000 C 
ATOM      4  N   UNL     1       4.220   3.980  16.362  0.00  0.00    +0.000 NA
ATOM      5  C   UNL     1       3.761   3.527  17.537  0.00  0.00    +0.000 A 
ATOM      6  C   UNL     1       2.655   2.689  17.521  0.00  0.00    +0.000 A 
ATOM      7  C   UNL     1       2.101   2.168  18.691  0.00  0.00    +0.000 A 
ATOM      8  C   UNL     1       2.654   2.508  19.917  0.00  0.00    +0.000 A 
ATOM      9  C   UNL     1       3.767   3.350  19.959  0.00  0.00    +0.000 A 
ATOM     10  C   UNL     1       4.353   3.859  18.771  0.00  0.00    +0.000 A 
ATOM     11  C   UNL     1       5.517   4.663  18.699  0.00  0.00    +0.000 A 
ENDROOT
BRANCH  11  12
ATOM     12  O   UNL     1       6.201   5.047  19.828  0.00  0.00    +0.000 OA
ATOM     13  H   UNL     1       6.801   5.776  19.625  0.00  0.00    +0.000 HD
ENDBRANCH  11  12
BRANCH   1  14
ATOM     14  C   UNL     1       7.351   5.862  17.424  0.00  0.00    +0.000 C 
BRANCH  14  16
ATOM     15  C   UNL     1       8.070   8.230  17.884  0.00  0.00    +0.000 C 
ATOM     16  C   UNL     1       7.170   7.355  17.415  0.00  0.00    +0.000 C 
ENDBRANCH  14  16
ENDBRANCH   1  14
TORSDOF 3
ENDMDL
MODEL 9
REMARK VINA RESULT:      -6.4      1.875      2.741
REMARK  Name = 
REMARK  4 active torsions:
REMARK  status: ('A' for Active; 'I' for Inactive)
REMARK    1  A    between atoms: C_2  and  C_3
REMARK    2  A    between atoms: C_3  and  C_4
REMARK    3  A    between atoms: C_5  and  C_6
REMARK    4  A    between atoms: C_14  and  O_15
REMARK                            x       y       z     vdW  Elec       q    Type
REMARK                         _______ _______ _______ _____ _____    ______ ____
ROOT
ATOM      1  C   UNL     1       5.708   4.746  17.599  0.00  0.00    +0.000 A 
ATOM      2  C   UNL     1       4.967   4.233  16.533  0.00  0.00    +0.000 A 
ATOM      3  C   UNL     1       5.513   4.071  15.145  0.00  0.00    +0.000 C 
ATOM      4  N   UNL     1       3.695   3.783  16.677  0.00  0.00    +0.000 NA
ATOM      5  C   UNL     1       3.093   3.856  17.872  0.00  0.00    +0.000 A 
ATOM      6  C   UNL     1       1.811   3.337  17.986  0.00  0.00    +0.000 A 
ATOM      7  C   UNL     1       1.100   3.368  19.186  0.00  0.00    +0.000 A 
ATOM      8  C   UNL     1       1.677   3.952  20.304  0.00  0.00    +0.000 A 
ATOM      9  C   UNL     1       2.967   4.482  20.216  0.00  0.00    +0.000 A 
ATOM     10  C   UNL     1       3.705   4.426  19.005  0.00  0.00    +0.000 A 
ATOM     11  C   UNL     1       5.037   4.873  18.827  0.00  0.00    +0.000 A 
ENDROOT
BRANCH  11  12
ATOM     12  O   UNL     1       5.755   5.435  19.855  0.00  0.00    +0.000 OA
ATOM     13  H   UNL     1       6.356   6.111  19.515  0.00  0.00    +0.000 HD
ENDBRANCH  11  12
BRANCH   1  14
ATOM     14  C   UNL     1       7.162   5.135  17.468  0.00  0.00    +0.000 C 
BRANCH  14  16
ATOM     15  C   UNL     1       7.767   7.544  17.878  0.00  0.00    +0.000 C 
ATOM     16  C   UNL     1       7.369   6.566  17.053  0.00  0.00    +0.000 C 
ENDBRANCH  14  16
ENDBRANCH   1  14
TORSDOF 3
ENDMDL
