MODEL 1
REMARK VINA RESULT:      -8.4      0.000      0.000
REMARK  Name = 
REMARK  6 active torsions:
REMARK  status: ('A' for Active; 'I' for Inactive)
REMARK    1  A    between atoms: C_1  and  C_2
REMARK    2  A    between atoms: N_11  and  C_12
REMARK    3  A    between atoms: C_12  and  C_13
REMARK    4  A    between atoms: N_18  and  S_19
REMARK    5  A    between atoms: S_19  and  C_22
REMARK    6  A    between atoms: C_22  and  C_23
REMARK                            x       y       z     vdW  Elec       q    Type
REMARK                         _______ _______ _______ _____ _____    ______ ____
ROOT
ATOM      1  C   UNL     1       2.036   8.056  19.284  0.00  0.00    +0.000 C 
ATOM      2  O   UNL     1       1.888   7.342  20.281  0.00  0.00    +0.000 OA
ATOM      3  N   UNL     1       1.495   9.331  19.245  0.00  0.00    +0.000 N 
ATOM      4  C   UNL     1       0.700   9.778  20.395  0.00  0.00    +0.000 C 
ATOM      5  C   UNL     1       1.047  11.223  20.769  0.00  0.00    +0.000 C 
ATOM      6  N   UNL     1       0.897  12.163  19.610  0.00  0.00    +0.000 NA
ATOM      7  C   UNL     1       1.746  11.686  18.460  0.00  0.00    +0.000 C 
ATOM      8  C   UNL     1       1.437  10.227  18.076  0.00  0.00    +0.000 C 
ENDROOT
BRANCH   6   9
ATOM      9  S   UNL     1      -0.693  12.632  19.172  0.00  0.00    +0.000 S 
ATOM     10  O   UNL     1      -1.165  13.508  20.226  0.00  0.00    +0.000 OA
ATOM     11  O   UNL     1      -0.640  13.094  17.799  0.00  0.00    +0.000 OA
BRANCH   9  12
ATOM     12  C   UNL     1      -1.589  11.071  19.256  0.00  0.00    +0.000 C 
BRANCH  12  13
ATOM     13  C   UNL     1      -2.409  10.904  18.002  0.00  0.00    +0.000 A 
ATOM     14  C   UNL     1      -3.636  11.567  17.857  0.00  0.00    +0.000 A 
ATOM     15  C   UNL     1      -4.395  11.404  16.698  0.00  0.00    +0.000 A 
ATOM     16  C   UNL     1      -3.937  10.575  15.678  0.00  0.00    +0.000 A 
ATOM     17  C   UNL     1      -2.721   9.910  15.811  0.00  0.00    +0.000 A 
ATOM     18  C   UNL     1      -1.959  10.075  16.970  0.00  0.00    +0.000 A 
ENDBRANCH  12  13
ENDBRANCH   9  12
ENDBRANCH   6   9
BRANCH   1  19
ATOM     19  C   UNL     1       2.945   7.578  18.149  0.00  0.00    +0.000 C 
BRANCH  19  30
ATOM     20  C   UNL     1       3.177   2.504  16.877  0.00  0.00    +0.000 C 
ATOM     21  C   UNL     1       2.835   2.560  18.367  0.00  0.00    +0.000 C 
ATOM     22  C   UNL     1       1.389   2.094  18.610  0.00  0.00    +0.000 C 
ATOM     23  C   UNL     1       1.008   2.127  20.089  0.00  0.00    +0.000 C 
ATOM     24  C   UNL     1       1.280   3.482  20.729  0.00  0.00    +0.000 C 
ATOM     25  C   UNL     1       2.721   3.930  20.504  0.00  0.00    +0.000 C 
ATOM     26  C   UNL     1       3.107   3.931  19.008  0.00  0.00    +0.000 C 
ATOM     27  N   UNL     1       4.479   4.378  18.873  0.00  0.00    +0.000 N 
ATOM     28  C   UNL     1       4.556   5.734  18.639  0.00  0.00    +0.000 C 
ATOM     29  O   UNL     1       5.600   6.362  18.603  0.00  0.00    +0.000 OA
ATOM     30  N   UNL     1       3.299   6.203  18.430  0.00  0.00    +0.000 N 
ATOM     31  C   UNL     1       2.431   5.148  18.338  0.00  0.00    +0.000 C 
ATOM     32  O   UNL     1       1.296   5.183  17.888  0.00  0.00    +0.000 OA
ATOM     33  H   UNL     1       5.308   3.837  19.086  0.00  0.00    +0.000 HD
ENDBRANCH  19  30
ENDBRANCH   1  19
TORSDOF 5
ENDMDL
MODEL 2
REMARK VINA RESULT:      -7.9      3.012      8.964
REMARK  Name = 
REMARK  6 active torsions:
REMARK  status: ('A' for Active; 'I' for Inactive)
REMARK    1  A    between atoms: C_1  and  C_2
REMARK    2  A    between atoms: N_11  and  C_12
REMARK    3  A    between atoms: C_12  and  C_13
REMARK    4  A    between atoms: N_18  and  S_19
REMARK    5  A    between atoms: S_19  and  C_22
REMARK    6  A    between atoms: C_22  and  C_23
REMARK                            x       y       z     vdW  Elec       q    Type
REMARK                         _______ _______ _______ _____ _____    ______ ____
ROOT
ATOM      1  C   UNL     1       1.415   8.597  19.791  0.00  0.00    +0.000 C 
ATOM      2  O   UNL     1       0.846   8.772  20.874  0.00  0.00    +0.000 OA
ATOM      3  N   UNL     1       1.993   7.374  19.491  0.00  0.00    +0.000 N 
ATOM      4  C   UNL     1       1.956   6.323  20.514  0.00  0.00    +0.000 C 
ATOM      5  C   UNL     1       1.603   4.968  19.893  0.00  0.00    +0.000 C 
ATOM      6  N   UNL     1       2.527   4.597  18.771  0.00  0.00    +0.000 NA
ATOM      7  C   UNL     1       2.519   5.687  17.730  0.00  0.00    +0.000 C 
ATOM      8  C   UNL     1       2.847   7.067  18.329  0.00  0.00    +0.000 C 
ENDROOT
BRANCH   6   9
ATOM      9  S   UNL     1       4.089   4.026  19.189  0.00  0.00    +0.000 S 
ATOM     10  O   UNL     1       4.603   4.942  20.188  0.00  0.00    +0.000 OA
ATOM     11  O   UNL     1       3.963   2.612  19.481  0.00  0.00    +0.000 OA
BRANCH   9  12
ATOM     12  C   UNL     1       5.004   4.253  17.653  0.00  0.00    +0.000 C 
BRANCH  12  13
ATOM     13  C   UNL     1       6.063   5.306  17.860  0.00  0.00    +0.000 A 
ATOM     14  C   UNL     1       6.068   6.476  17.089  0.00  0.00    +0.000 A 
ATOM     15  C   UNL     1       7.055   7.444  17.278  0.00  0.00    +0.000 A 
ATOM     16  C   UNL     1       8.045   7.248  18.237  0.00  0.00    +0.000 A 
ATOM     17  C   UNL     1       8.051   6.089  19.008  0.00  0.00    +0.000 A 
ATOM     18  C   UNL     1       7.063   5.121  18.821  0.00  0.00    +0.000 A 
ENDBRANCH  12  13
ENDBRANCH   9  12
ENDBRANCH   6   9
BRANCH   1  19
ATOM     19  C   UNL     1       1.351   9.693  18.725  0.00  0.00    +0.000 C 
BRANCH  19  30
ATOM     20  C   UNL     1      -0.712  14.467  19.334  0.00  0.00    +0.000 C 
ATOM     21  C   UNL     1      -1.213  13.627  20.511  0.00  0.00    +0.000 C 
ATOM     22  C   UNL     1      -0.570  14.098  21.827  0.00  0.00    +0.000 C 
ATOM     23  C   UNL     1      -1.049  13.289  23.031  0.00  0.00    +0.000 C 
ATOM     24  C   UNL     1      -0.885  11.789  22.826  0.00  0.00    +0.000 C 
ATOM     25  C   UNL     1      -1.543  11.323  21.531  0.00  0.00    +0.000 C 
ATOM     26  C   UNL     1      -1.040  12.113  20.302  0.00  0.00    +0.000 C 
ATOM     27  N   UNL     1      -1.699  11.608  19.113  0.00  0.00    +0.000 N 
ATOM     28  C   UNL     1      -0.948  10.638  18.485  0.00  0.00    +0.000 C 
ATOM     29  O   UNL     1      -1.338   9.984  17.533  0.00  0.00    +0.000 OA
ATOM     30  N   UNL     1       0.268  10.583  19.086  0.00  0.00    +0.000 N 
ATOM     31  C   UNL     1       0.386  11.625  19.966  0.00  0.00    +0.000 C 
ATOM     32  O   UNL     1       1.423  12.037  20.464  0.00  0.00    +0.000 OA
ATOM     33  H   UNL     1      -2.655  11.789  18.837  0.00  0.00    +0.000 HD
ENDBRANCH  19  30
ENDBRANCH   1  19
TORSDOF 5
ENDMDL
MODEL 3
REMARK VINA RESULT:      -7.8      2.067      2.769
REMARK  Name = 
REMARK  6 active torsions:
REMARK  status: ('A' for Active; 'I' for Inactive)
REMARK    1  A    between atoms: C_1  and  C_2
REMARK    2  A    between atoms: N_11  and  C_12
REMARK    3  A    between atoms: C_12  and  C_13
REMARK    4  A    between atoms: N_18  and  S_19
REMARK    5  A    between atoms: S_19  and  C_22
REMARK    6  A    between atoms: C_22  and  C_23
REMARK                            x       y       z     vdW  Elec       q    Type
REMARK                         _______ _______ _______ _____ _____    ______ ____
ROOT
ATOM      1  C   UNL     1       2.042   8.013  19.316  0.00  0.00    +0.000 C 
ATOM      2  O   UNL     1       1.924   7.312  20.326  0.00  0.00    +0.000 OA
ATOM      3  N   UNL     1       1.485   9.282  19.271  0.00  0.00    +0.000 N 
ATOM      4  C   UNL     1       0.711   9.737  20.431  0.00  0.00    +0.000 C 
ATOM      5  C   UNL     1       1.049  11.191  20.778  0.00  0.00    +0.000 C 
ATOM      6  N   UNL     1       0.863  12.113  19.609  0.00  0.00    +0.000 NA
ATOM      7  C   UNL     1       1.693  11.628  18.448  0.00  0.00    +0.000 C 
ATOM      8  C   UNL     1       1.392  10.160  18.091  0.00  0.00    +0.000 C 
ENDROOT
BRANCH   6   9
ATOM      9  S   UNL     1      -0.741  12.557  19.200  0.00  0.00    +0.000 S 
ATOM     10  O   UNL     1      -0.683  13.106  17.860  0.00  0.00    +0.000 OA
ATOM     11  O   UNL     1      -1.589  11.418  19.493  0.00  0.00    +0.000 OA
BRANCH   9  12
ATOM     12  C   UNL     1      -1.081  13.886  20.369  0.00  0.00    +0.000 C 
BRANCH  12  13
ATOM     13  C   UNL     1      -2.173  13.449  21.310  0.00  0.00    +0.000 A 
ATOM     14  C   UNL     1      -3.519  13.695  21.008  0.00  0.00    +0.000 A 
ATOM     15  C   UNL     1      -4.527  13.296  21.886  0.00  0.00    +0.000 A 
ATOM     16  C   UNL     1      -4.197  12.650  23.074  0.00  0.00    +0.000 A 
ATOM     17  C   UNL     1      -2.863  12.401  23.387  0.00  0.00    +0.000 A 
ATOM     18  C   UNL     1      -1.854  12.798  22.507  0.00  0.00    +0.000 A 
ENDBRANCH  12  13
ENDBRANCH   9  12
ENDBRANCH   6   9
BRANCH   1  19
ATOM     19  C   UNL     1       2.931   7.530  18.168  0.00  0.00    +0.000 C 
BRANCH  19  30
ATOM     20  C   UNL     1       3.130   2.451  16.909  0.00  0.00    +0.000 C 
ATOM     21  C   UNL     1       2.812   2.513  18.405  0.00  0.00    +0.000 C 
ATOM     22  C   UNL     1       1.370   2.051  18.673  0.00  0.00    +0.000 C 
ATOM     23  C   UNL     1       1.012   2.090  20.158  0.00  0.00    +0.000 C 
ATOM     24  C   UNL     1       1.298   3.447  20.788  0.00  0.00    +0.000 C 
ATOM     25  C   UNL     1       2.736   3.890  20.538  0.00  0.00    +0.000 C 
ATOM     26  C   UNL     1       3.097   3.886  19.036  0.00  0.00    +0.000 C 
ATOM     27  N   UNL     1       4.469   4.329  18.878  0.00  0.00    +0.000 N 
ATOM     28  C   UNL     1       4.545   5.683  18.638  0.00  0.00    +0.000 C 
ATOM     29  O   UNL     1       5.590   6.308  18.582  0.00  0.00    +0.000 OA
ATOM     30  N   UNL     1       3.286   6.155  18.447  0.00  0.00    +0.000 N 
ATOM     31  C   UNL     1       2.414   5.102  18.373  0.00  0.00    +0.000 C 
ATOM     32  O   UNL     1       1.272   5.138  17.942  0.00  0.00    +0.000 OA
ATOM     33  H   UNL     1       5.299   3.786  19.078  0.00  0.00    +0.000 HD
ENDBRANCH  19  30
ENDBRANCH   1  19
TORSDOF 5
ENDMDL
MODEL 4
REMARK VINA RESULT:      -7.8      7.215      9.452
REMARK  Name = 
REMARK  6 active torsions:
REMARK  status: ('A' for Active; 'I' for Inactive)
REMARK    1  A    between atoms: C_1  and  C_2
REMARK    2  A    between atoms: N_11  and  C_12
REMARK    3  A    between atoms: C_12  and  C_13
REMARK    4  A    between atoms: N_18  and  S_19
REMARK    5  A    between atoms: S_19  and  C_22
REMARK    6  A    between atoms: C_22  and  C_23
REMARK                            x       y       z     vdW  Elec       q    Type
REMARK                         _______ _______ _______ _____ _____    ______ ____
ROOT
ATOM      1  C   UNL     1       7.279  16.325  19.646  0.00  0.00    +0.000 C 
ATOM      2  O   UNL     1       7.787  16.706  20.705  0.00  0.00    +0.000 OA
ATOM      3  N   UNL     1       5.983  15.834  19.624  0.00  0.00    +0.000 N 
ATOM      4  C   UNL     1       5.263  15.730  20.899  0.00  0.00    +0.000 C 
ATOM      5  C   UNL     1       3.817  16.213  20.750  0.00  0.00    +0.000 C 
ATOM      6  N   UNL     1       3.085  15.492  19.656  0.00  0.00    +0.000 NA
ATOM      7  C   UNL     1       3.840  15.643  18.361  0.00  0.00    +0.000 C 
ATOM      8  C   UNL     1       5.306  15.188  18.485  0.00  0.00    +0.000 C 
ENDROOT
BRANCH   6   9
ATOM      9  S   UNL     1       2.546  13.898  19.983  0.00  0.00    +0.000 S 
ATOM     10  O   UNL     1       2.798  13.129  18.781  0.00  0.00    +0.000 OA
ATOM     11  O   UNL     1       3.130  13.500  21.248  0.00  0.00    +0.000 OA
BRANCH   9  12
ATOM     12  C   UNL     1       0.769  14.127  20.176  0.00  0.00    +0.000 C 
BRANCH  12  13
ATOM     13  C   UNL     1       0.057  12.880  19.715  0.00  0.00    +0.000 A 
ATOM     14  C   UNL     1      -0.744  12.898  18.566  0.00  0.00    +0.000 A 
ATOM     15  C   UNL     1      -1.407  11.744  18.147  0.00  0.00    +0.000 A 
ATOM     16  C   UNL     1      -1.277  10.565  18.875  0.00  0.00    +0.000 A 
ATOM     17  C   UNL     1      -0.484  10.535  20.020  0.00  0.00    +0.000 A 
ATOM     18  C   UNL     1       0.181  11.689  20.438  0.00  0.00    +0.000 A 
ENDBRANCH  12  13
ENDBRANCH   9  12
ENDBRANCH   6   9
BRANCH   1  19
ATOM     19  C   UNL     1       8.037  16.535  18.333  0.00  0.00    +0.000 C 
BRANCH  19  30
ATOM     20  C   UNL     1      11.854  13.390  16.615  0.00  0.00    +0.000 C 
ATOM     21  C   UNL     1      11.742  13.148  18.122  0.00  0.00    +0.000 C 
ATOM     22  C   UNL     1      11.168  11.750  18.405  0.00  0.00    +0.000 C 
ATOM     23  C   UNL     1      11.045  11.463  19.901  0.00  0.00    +0.000 C 
ATOM     24  C   UNL     1      10.276  12.551  20.640  0.00  0.00    +0.000 C 
ATOM     25  C   UNL     1      10.862  13.934  20.372  0.00  0.00    +0.000 C 
ATOM     26  C   UNL     1      10.959  14.246  18.862  0.00  0.00    +0.000 C 
ATOM     27  N   UNL     1      11.511  15.576  18.688  0.00  0.00    +0.000 N 
ATOM     28  C   UNL     1      10.523  16.528  18.569  0.00  0.00    +0.000 C 
ATOM     29  O   UNL     1      10.734  17.728  18.527  0.00  0.00    +0.000 OA
ATOM     30  N   UNL     1       9.326  15.893  18.473  0.00  0.00    +0.000 N 
ATOM     31  C   UNL     1       9.537  14.547  18.340  0.00  0.00    +0.000 C 
ATOM     32  O   UNL     1       8.721  13.722  17.960  0.00  0.00    +0.000 OA
ATOM     33  H   UNL     1      12.481  15.841  18.805  0.00  0.00    +0.000 HD
ENDBRANCH  19  30
ENDBRANCH   1  19
TORSDOF 5
ENDMDL
MODEL 5
REMARK VINA RESULT:      -7.8      3.034      8.958
REMARK  Name = 
REMARK  6 active torsions:
REMARK  status: ('A' for Active; 'I' for Inactive)
REMARK    1  A    between atoms: C_1  and  C_2
REMARK    2  A    between atoms: N_11  and  C_12
REMARK    3  A    between atoms: C_12  and  C_13
REMARK    4  A    between atoms: N_18  and  S_19
REMARK    5  A    between atoms: S_19  and  C_22
REMARK    6  A    between atoms: C_22  and  C_23
REMARK                            x       y       z     vdW  Elec       q    Type
REMARK                         _______ _______ _______ _____ _____    ______ ____
ROOT
ATOM      1  C   UNL     1       1.451   8.716  19.895  0.00  0.00    +0.000 C 
ATOM      2  O   UNL     1       0.973   9.017  20.994  0.00  0.00    +0.000 OA
ATOM      3  N   UNL     1       1.897   7.426  19.653  0.00  0.00    +0.000 N 
ATOM      4  C   UNL     1       1.835   6.456  20.752  0.00  0.00    +0.000 C 
ATOM      5  C   UNL     1       1.323   5.100  20.256  0.00  0.00    +0.000 C 
ATOM      6  N   UNL     1       2.134   4.569  19.112  0.00  0.00    +0.000 NA
ATOM      7  C   UNL     1       2.153   5.580  17.994  0.00  0.00    +0.000 C 
ATOM      8  C   UNL     1       2.642   6.962  18.468  0.00  0.00    +0.000 C 
ENDROOT
BRANCH   6   9
ATOM      9  S   UNL     1       3.663   3.885  19.477  0.00  0.00    +0.000 S 
ATOM     10  O   UNL     1       4.565   4.998  19.698  0.00  0.00    +0.000 OA
ATOM     11  O   UNL     1       3.452   2.891  20.511  0.00  0.00    +0.000 OA
BRANCH   9  12
ATOM     12  C   UNL     1       4.099   3.071  17.929  0.00  0.00    +0.000 C 
BRANCH  12  13
ATOM     13  C   UNL     1       5.117   3.910  17.199  0.00  0.00    +0.000 A 
ATOM     14  C   UNL     1       6.356   4.201  17.785  0.00  0.00    +0.000 A 
ATOM     15  C   UNL     1       7.292   4.985  17.109  0.00  0.00    +0.000 A 
ATOM     16  C   UNL     1       6.995   5.486  15.845  0.00  0.00    +0.000 A 
ATOM     17  C   UNL     1       5.766   5.204  15.252  0.00  0.00    +0.000 A 
ATOM     18  C   UNL     1       4.831   4.419  15.927  0.00  0.00    +0.000 A 
ENDBRANCH  12  13
ENDBRANCH   9  12
ENDBRANCH   6   9
BRANCH   1  19
ATOM     19  C   UNL     1       1.414   9.737  18.756  0.00  0.00    +0.000 C 
BRANCH  19  30
ATOM     20  C   UNL     1      -0.548  14.583  19.032  0.00  0.00    +0.000 C 
ATOM     21  C   UNL     1      -1.074  13.835  20.259  0.00  0.00    +0.000 C 
ATOM     22  C   UNL     1      -0.428  14.378  21.545  0.00  0.00    +0.000 C 
ATOM     23  C   UNL     1      -0.931  13.662  22.797  0.00  0.00    +0.000 C 
ATOM     24  C   UNL     1      -0.798  12.148  22.693  0.00  0.00    +0.000 C 
ATOM     25  C   UNL     1      -1.459  11.611  21.427  0.00  0.00    +0.000 C 
ATOM     26  C   UNL     1      -0.933  12.307  20.152  0.00  0.00    +0.000 C 
ATOM     27  N   UNL     1      -1.596  11.738  18.995  0.00  0.00    +0.000 N 
ATOM     28  C   UNL     1      -0.863  10.712  18.438  0.00  0.00    +0.000 C 
ATOM     29  O   UNL     1      -1.262  10.005  17.529  0.00  0.00    +0.000 OA
ATOM     30  N   UNL     1       0.349  10.671  19.050  0.00  0.00    +0.000 N 
ATOM     31  C   UNL     1       0.484  11.767  19.859  0.00  0.00    +0.000 C 
ATOM     32  O   UNL     1       1.527  12.189  20.336  0.00  0.00    +0.000 OA
ATOM     33  H   UNL     1      -2.547  11.920  18.701  0.00  0.00    +0.000 HD
ENDBRANCH  19  30
ENDBRANCH   1  19
TORSDOF 5
ENDMDL
MODEL 6
REMARK VINA RESULT:      -7.8      7.211      9.164
REMARK  Name = 
REMARK  6 active torsions:
REMARK  status: ('A' for Active; 'I' for Inactive)
REMARK    1  A    between atoms: C_1  and  C_2
REMARK    2  A    between atoms: N_11  and  C_12
REMARK    3  A    between atoms: C_12  and  C_13
REMARK    4  A    between atoms: N_18  and  S_19
REMARK    5  A    between atoms: S_19  and  C_22
REMARK    6  A    between atoms: C_22  and  C_23
REMARK                            x       y       z     vdW  Elec       q    Type
REMARK                         _______ _______ _______ _____ _____    ______ ____
ROOT
ATOM      1  C   UNL     1       6.199  15.031  19.274  0.00  0.00    +0.000 C 
ATOM      2  O   UNL     1       6.888  15.310  20.260  0.00  0.00    +0.000 OA
ATOM      3  N   UNL     1       4.823  14.909  19.389  0.00  0.00    +0.000 N 
ATOM      4  C   UNL     1       4.225  15.067  20.719  0.00  0.00    +0.000 C 
ATOM      5  C   UNL     1       2.952  15.917  20.649  0.00  0.00    +0.000 C 
ATOM      6  N   UNL     1       1.956  15.369  19.670  0.00  0.00    +0.000 NA
ATOM      7  C   UNL     1       2.598  15.246  18.312  0.00  0.00    +0.000 C 
ATOM      8  C   UNL     1       3.895  14.416  18.355  0.00  0.00    +0.000 C 
ENDROOT
BRANCH   6   9
ATOM      9  S   UNL     1       1.045  13.999  20.152  0.00  0.00    +0.000 S 
ATOM     10  O   UNL     1      -0.208  14.067  19.427  0.00  0.00    +0.000 OA
ATOM     11  O   UNL     1       1.910  12.843  20.022  0.00  0.00    +0.000 OA
BRANCH   9  12
ATOM     12  C   UNL     1       0.737  14.337  21.896  0.00  0.00    +0.000 C 
BRANCH  12  13
ATOM     13  C   UNL     1      -0.511  13.611  22.327  0.00  0.00    +0.000 A 
ATOM     14  C   UNL     1      -1.666  14.322  22.680  0.00  0.00    +0.000 A 
ATOM     15  C   UNL     1      -2.817  13.645  23.086  0.00  0.00    +0.000 A 
ATOM     16  C   UNL     1      -2.821  12.254  23.145  0.00  0.00    +0.000 A 
ATOM     17  C   UNL     1      -1.679  11.537  22.797  0.00  0.00    +0.000 A 
ATOM     18  C   UNL     1      -0.528  12.213  22.389  0.00  0.00    +0.000 A 
ENDBRANCH  12  13
ENDBRANCH   9  12
ENDBRANCH   6   9
BRANCH   1  19
ATOM     19  C   UNL     1       6.858  14.962  17.894  0.00  0.00    +0.000 C 
BRANCH  19  30
ATOM     20  C   UNL     1      11.666  13.370  16.566  0.00  0.00    +0.000 C 
ATOM     21  C   UNL     1      11.594  13.297  18.093  0.00  0.00    +0.000 C 
ATOM     22  C   UNL     1      11.599  11.835  18.568  0.00  0.00    +0.000 C 
ATOM     23  C   UNL     1      11.536  11.717  20.090  0.00  0.00    +0.000 C 
ATOM     24  C   UNL     1      10.374  12.501  20.685  0.00  0.00    +0.000 C 
ATOM     25  C   UNL     1      10.386  13.957  20.228  0.00  0.00    +0.000 C 
ATOM     26  C   UNL     1      10.417  14.087  18.689  0.00  0.00    +0.000 C 
ATOM     27  N   UNL     1      10.414  15.492  18.332  0.00  0.00    +0.000 N 
ATOM     28  C   UNL     1       9.139  15.959  18.098  0.00  0.00    +0.000 C 
ATOM     29  O   UNL     1       8.868  17.129  17.894  0.00  0.00    +0.000 OA
ATOM     30  N   UNL     1       8.289  14.899  18.103  0.00  0.00    +0.000 N 
ATOM     31  C   UNL     1       9.012  13.738  18.148  0.00  0.00    +0.000 C 
ATOM     32  O   UNL     1       8.598  12.618  17.893  0.00  0.00    +0.000 OA
ATOM     33  H   UNL     1      11.199  16.128  18.401  0.00  0.00    +0.000 HD
ENDBRANCH  19  30
ENDBRANCH   1  19
TORSDOF 5
ENDMDL
MODEL 7
REMARK VINA RESULT:      -7.7      2.383      3.389
REMARK  Name = 
REMARK  6 active torsions:
REMARK  status: ('A' for Active; 'I' for Inactive)
REMARK    1  A    between atoms: C_1  and  C_2
REMARK    2  A    between atoms: N_11  and  C_12
REMARK    3  A    between atoms: C_12  and  C_13
REMARK    4  A    between atoms: N_18  and  S_19
REMARK    5  A    between atoms: S_19  and  C_22
REMARK    6  A    between atoms: C_22  and  C_23
REMARK                            x       y       z     vdW  Elec       q    Type
REMARK                         _______ _______ _______ _____ _____    ______ ____
ROOT
ATOM      1  C   UNL     1       1.986   8.220  19.211  0.00  0.00    +0.000 C 
ATOM      2  O   UNL     1       1.860   7.508  20.214  0.00  0.00    +0.000 OA
ATOM      3  N   UNL     1       1.520   9.525  19.213  0.00  0.00    +0.000 N 
ATOM      4  C   UNL     1       0.830  10.010  20.414  0.00  0.00    +0.000 C 
ATOM      5  C   UNL     1       1.286  11.429  20.770  0.00  0.00    +0.000 C 
ATOM      6  N   UNL     1       1.118  12.385  19.627  0.00  0.00    +0.000 NA
ATOM      7  C   UNL     1       1.860  11.867  18.423  0.00  0.00    +0.000 C 
ATOM      8  C   UNL     1       1.440  10.432  18.053  0.00  0.00    +0.000 C 
ENDROOT
BRANCH   6   9
ATOM      9  S   UNL     1      -0.466  12.951  19.296  0.00  0.00    +0.000 S 
ATOM     10  O   UNL     1      -0.518  13.206  17.871  0.00  0.00    +0.000 OA
ATOM     11  O   UNL     1      -1.391  12.019  19.912  0.00  0.00    +0.000 OA
BRANCH   9  12
ATOM     12  C   UNL     1      -0.505  14.521  20.180  0.00  0.00    +0.000 C 
BRANCH  12  13
ATOM     13  C   UNL     1       0.081  15.597  19.302  0.00  0.00    +0.000 A 
ATOM     14  C   UNL     1       1.466  15.686  19.109  0.00  0.00    +0.000 A 
ATOM     15  C   UNL     1       2.006  16.689  18.302  0.00  0.00    +0.000 A 
ATOM     16  C   UNL     1       1.165  17.610  17.683  0.00  0.00    +0.000 A 
ATOM     17  C   UNL     1      -0.213  17.531  17.867  0.00  0.00    +0.000 A 
ATOM     18  C   UNL     1      -0.753  16.528  18.673  0.00  0.00    +0.000 A 
ENDBRANCH  12  13
ENDBRANCH   9  12
ENDBRANCH   6   9
BRANCH   1  19
ATOM     19  C   UNL     1       2.788   7.698  18.018  0.00  0.00    +0.000 C 
BRANCH  19  30
ATOM     20  C   UNL     1       3.088   2.590  16.903  0.00  0.00    +0.000 C 
ATOM     21  C   UNL     1       2.812   2.689  18.405  0.00  0.00    +0.000 C 
ATOM     22  C   UNL     1       1.390   2.198  18.729  0.00  0.00    +0.000 C 
ATOM     23  C   UNL     1       1.075   2.272  20.222  0.00  0.00    +0.000 C 
ATOM     24  C   UNL     1       1.343   3.654  20.804  0.00  0.00    +0.000 C 
ATOM     25  C   UNL     1       2.760   4.128  20.499  0.00  0.00    +0.000 C 
ATOM     26  C   UNL     1       3.078   4.087  18.987  0.00  0.00    +0.000 C 
ATOM     27  N   UNL     1       4.432   4.561  18.775  0.00  0.00    +0.000 N 
ATOM     28  C   UNL     1       4.464   5.909  18.494  0.00  0.00    +0.000 C 
ATOM     29  O   UNL     1       5.490   6.559  18.389  0.00  0.00    +0.000 OA
ATOM     30  N   UNL     1       3.188   6.342  18.326  0.00  0.00    +0.000 N 
ATOM     31  C   UNL     1       2.344   5.265  18.309  0.00  0.00    +0.000 C 
ATOM     32  O   UNL     1       1.189   5.258  17.911  0.00  0.00    +0.000 OA
ATOM     33  H   UNL     1       5.282   4.046  18.967  0.00  0.00    +0.000 HD
ENDBRANCH  19  30
ENDBRANCH   1  19
TORSDOF 5
ENDMDL
MODEL 8
REMARK VINA RESULT:      -7.7      2.365      8.603
REMARK  Name = 
REMARK  6 active torsions:
REMARK  status: ('A' for Active; 'I' for Inactive)
REMARK    1  A    between atoms: C_1  and  C_2
REMARK    2  A    between atoms: N_11  and  C_12
REMARK    3  A    between atoms: C_12  and  C_13
REMARK    4  A    between atoms: N_18  and  S_19
REMARK    5  A    between atoms: S_19  and  C_22
REMARK    6  A    between atoms: C_22  and  C_23
REMARK                            x       y       z     vdW  Elec       q    Type
REMARK                         _______ _______ _______ _____ _____    ______ ____
ROOT
ATOM      1  C   UNL     1       1.677   9.964  18.442  0.00  0.00    +0.000 C 
ATOM      2  O   UNL     1       2.036  10.452  17.365  0.00  0.00    +0.000 OA
ATOM      3  N   UNL     1       1.913   8.627  18.721  0.00  0.00    +0.000 N 
ATOM      4  C   UNL     1       2.546   7.806  17.682  0.00  0.00    +0.000 C 
ATOM      5  C   UNL     1       3.619   6.894  18.285  0.00  0.00    +0.000 C 
ATOM      6  N   UNL     1       3.084   6.041  19.396  0.00  0.00    +0.000 NA
ATOM      7  C   UNL     1       2.466   6.919  20.453  0.00  0.00    +0.000 C 
ATOM      8  C   UNL     1       1.398   7.865  19.873  0.00  0.00    +0.000 C 
ENDROOT
BRANCH   6   9
ATOM      9  S   UNL     1       2.137   4.680  18.961  0.00  0.00    +0.000 S 
ATOM     10  O   UNL     1       1.198   4.473  20.046  0.00  0.00    +0.000 OA
ATOM     11  O   UNL     1       1.663   4.902  17.609  0.00  0.00    +0.000 OA
BRANCH   9  12
ATOM     12  C   UNL     1       3.351   3.348  18.970  0.00  0.00    +0.000 C 
BRANCH  12  13
ATOM     13  C   UNL     1       4.530   3.750  18.120  0.00  0.00    +0.000 A 
ATOM     14  C   UNL     1       5.700   4.247  18.709  0.00  0.00    +0.000 A 
ATOM     15  C   UNL     1       6.786   4.625  17.918  0.00  0.00    +0.000 A 
ATOM     16  C   UNL     1       6.708   4.511  16.533  0.00  0.00    +0.000 A 
ATOM     17  C   UNL     1       5.551   4.019  15.936  0.00  0.00    +0.000 A 
ATOM     18  C   UNL     1       4.465   3.639  16.727  0.00  0.00    +0.000 A 
ENDBRANCH  12  13
ENDBRANCH   9  12
ENDBRANCH   6   9
BRANCH   1  19
ATOM     19  C   UNL     1       1.102  10.879  19.524  0.00  0.00    +0.000 C 
BRANCH  19  30
ATOM     20  C   UNL     1      -3.898  12.409  19.805  0.00  0.00    +0.000 C 
ATOM     21  C   UNL     1      -3.676  11.919  18.372  0.00  0.00    +0.000 C 
ATOM     22  C   UNL     1      -4.437  10.605  18.125  0.00  0.00    +0.000 C 
ATOM     23  C   UNL     1      -4.249  10.083  16.701  0.00  0.00    +0.000 C 
ATOM     24  C   UNL     1      -2.780   9.968  16.314  0.00  0.00    +0.000 C 
ATOM     25  C   UNL     1      -2.035  11.280  16.541  0.00  0.00    +0.000 C 
ATOM     26  C   UNL     1      -2.192  11.800  17.987  0.00  0.00    +0.000 C 
ATOM     27  N   UNL     1      -1.450  13.037  18.129  0.00  0.00    +0.000 N 
ATOM     28  C   UNL     1      -0.177  12.819  18.610  0.00  0.00    +0.000 C 
ATOM     29  O   UNL     1       0.673  13.687  18.707  0.00  0.00    +0.000 OA
ATOM     30  N   UNL     1      -0.075  11.514  18.972  0.00  0.00    +0.000 N 
ATOM     31  C   UNL     1      -1.311  10.929  18.910  0.00  0.00    +0.000 C 
ATOM     32  O   UNL     1      -1.634   9.867  19.419  0.00  0.00    +0.000 OA
ATOM     33  H   UNL     1      -1.726  13.944  17.774  0.00  0.00    +0.000 HD
ENDBRANCH  19  30
ENDBRANCH   1  19
TORSDOF 5
ENDMDL
MODEL 9
REMARK VINA RESULT:      -7.6      2.811      4.240
REMARK  Name = 
REMARK  6 active torsions:
REMARK  status: ('A' for Active; 'I' for Inactive)
REMARK    1  A    between atoms: C_1  and  C_2
REMARK    2  A    between atoms: N_11  and  C_12
REMARK    3  A    between atoms: C_12  and  C_13
REMARK    4  A    between atoms: N_18  and  S_19
REMARK    5  A    between atoms: S_19  and  C_22
REMARK    6  A    between atoms: C_22  and  C_23
REMARK                            x       y       z     vdW  Elec       q    Type
REMARK                         _______ _______ _______ _____ _____    ______ ____
ROOT
ATOM      1  C   UNL     1       1.061   9.317  17.876  0.00  0.00    +0.000 C 
ATOM      2  O   UNL     1       0.184   8.545  17.475  0.00  0.00    +0.000 OA
ATOM      3  N   UNL     1       0.718  10.507  18.498  0.00  0.00    +0.000 N 
ATOM      4  C   UNL     1      -0.706  10.842  18.612  0.00  0.00    +0.000 C 
ATOM      5  C   UNL     1      -1.027  11.401  20.002  0.00  0.00    +0.000 C 
ATOM      6  N   UNL     1      -0.166  12.578  20.355  0.00  0.00    +0.000 NA
ATOM      7  C   UNL     1       1.286  12.189  20.252  0.00  0.00    +0.000 C 
ATOM      8  C   UNL     1       1.635  11.600  18.872  0.00  0.00    +0.000 C 
ENDROOT
BRANCH   6   9
ATOM      9  S   UNL     1      -0.551  14.084  19.632  0.00  0.00    +0.000 S 
ATOM     10  O   UNL     1      -0.515  13.870  18.199  0.00  0.00    +0.000 OA
ATOM     11  O   UNL     1      -1.757  14.571  20.274  0.00  0.00    +0.000 OA
BRANCH   9  12
ATOM     12  C   UNL     1       0.852  15.109  20.112  0.00  0.00    +0.000 C 
BRANCH  12  13
ATOM     13  C   UNL     1       1.141  16.097  19.011  0.00  0.00    +0.000 A 
ATOM     14  C   UNL     1       0.199  17.073  18.661  0.00  0.00    +0.000 A 
ATOM     15  C   UNL     1       0.468  17.980  17.635  0.00  0.00    +0.000 A 
ATOM     16  C   UNL     1       1.679  17.916  16.951  0.00  0.00    +0.000 A 
ATOM     17  C   UNL     1       2.623  16.950  17.290  0.00  0.00    +0.000 A 
ATOM     18  C   UNL     1       2.355  16.044  18.317  0.00  0.00    +0.000 A 
ENDBRANCH  12  13
ENDBRANCH   9  12
ENDBRANCH   6   9
BRANCH   1  19
ATOM     19  C   UNL     1       2.527   8.884  17.813  0.00  0.00    +0.000 C 
BRANCH  19  30
ATOM     20  C   UNL     1       5.288   4.846  19.680  0.00  0.00    +0.000 C 
ATOM     21  C   UNL     1       3.962   4.268  19.182  0.00  0.00    +0.000 C 
ATOM     22  C   UNL     1       4.182   3.411  17.924  0.00  0.00    +0.000 C 
ATOM     23  C   UNL     1       2.881   2.807  17.396  0.00  0.00    +0.000 C 
ATOM     24  C   UNL     1       1.798   3.857  17.182  0.00  0.00    +0.000 C 
ATOM     25  C   UNL     1       1.569   4.690  18.439  0.00  0.00    +0.000 C 
ATOM     26  C   UNL     1       2.873   5.332  18.963  0.00  0.00    +0.000 C 
ATOM     27  N   UNL     1       2.574   6.114  20.146  0.00  0.00    +0.000 N 
ATOM     28  C   UNL     1       2.338   7.437  19.839  0.00  0.00    +0.000 C 
ATOM     29  O   UNL     1       1.957   8.267  20.647  0.00  0.00    +0.000 OA
ATOM     30  N   UNL     1       2.638   7.631  18.529  0.00  0.00    +0.000 N 
ATOM     31  C   UNL     1       3.239   6.507  18.030  0.00  0.00    +0.000 C 
ATOM     32  O   UNL     1       3.875   6.429  16.990  0.00  0.00    +0.000 OA
ATOM     33  H   UNL     1       2.382   5.750  21.071  0.00  0.00    +0.000 HD
ENDBRANCH  19  30
ENDBRANCH   1  19
TORSDOF 5
ENDMDL
