MODEL 1
REMARK VINA RESULT:      -7.5      0.000      0.000
REMARK  Name = 
REMARK  9 active torsions:
REMARK  status: ('A' for Active; 'I' for Inactive)
REMARK    1  A    between atoms: C_1  and  C_2
REMARK    2  A    between atoms: C_2  and  N_3
REMARK    3  A    between atoms: N_3  and  C_4
REMARK    4  A    between atoms: N_3  and  C_6
REMARK    5  A    between atoms: C_4  and  C_5
REMARK    6  A    between atoms: C_9  and  N_10
REMARK    7  A    between atoms: C_13  and  C_14
REMARK    8  A    between atoms: C_21  and  C_22
REMARK    9  A    between atoms: C_28  and  C_29
REMARK                            x       y       z     vdW  Elec       q    Type
REMARK                         _______ _______ _______ _____ _____    ______ ____
ROOT
ATOM      1  N   UNL     1      -1.583  12.720  18.012  0.00  0.00    +0.000 N 
ATOM      2  C   UNL     1      -0.393  12.129  18.264  0.00  0.00    +0.000 A 
ATOM      3  N   UNL     1      -0.178  10.833  18.330  0.00  0.00    +0.000 NA
ATOM      4  C   UNL     1       1.089  10.564  18.811  0.00  0.00    +0.000 A 
ATOM      5  C   UNL     1       1.887  11.674  18.981  0.00  0.00    +0.000 A 
ATOM      6  S   UNL     1       1.012  13.087  18.551  0.00  0.00    +0.000 S 
ATOM      7  H   UNL     1      -1.587  13.730  17.948  0.00  0.00    +0.000 HD
ENDROOT
BRANCH   4   8
ATOM      8  C   UNL     1       1.481   9.197  19.096  0.00  0.00    +0.000 A 
ATOM      9  C   UNL     1       2.116   8.434  18.115  0.00  0.00    +0.000 A 
ATOM     10  C   UNL     1       2.484   7.118  18.381  0.00  0.00    +0.000 A 
ATOM     11  C   UNL     1       2.193   6.580  19.631  0.00  0.00    +0.000 A 
ATOM     12  N   UNL     1       2.595   5.254  19.946  0.00  0.00    +0.000 N 
ATOM     13  C   UNL     1       2.340   4.600  21.129  0.00  0.00    +0.000 A 
ATOM     14  N   UNL     1       2.860   3.389  21.158  0.00  0.00    +0.000 NA
ATOM     15  C   UNL     1       3.482   3.238  19.947  0.00  0.00    +0.000 A 
ATOM     16  C   UNL     1       4.216   1.998  19.608  0.00  0.00    +0.000 C 
ATOM     17  C   UNL     1       3.315   4.369  19.176  0.00  0.00    +0.000 A 
ATOM     18  N   UNL     1       1.546   7.286  20.595  0.00  0.00    +0.000 NA
ATOM     19  C   UNL     1       1.205   8.567  20.305  0.00  0.00    +0.000 A 
ENDBRANCH   4   8
BRANCH   1  23
ATOM     20  C   UNL     1      -5.443  11.308  19.265  0.00  0.00    +0.000 A 
ATOM     21  C   UNL     1      -4.573  12.014  20.101  0.00  0.00    +0.000 A 
ATOM     22  C   UNL     1      -3.315  12.460  19.654  0.00  0.00    +0.000 A 
ATOM     23  C   UNL     1      -2.857  12.210  18.350  0.00  0.00    +0.000 A 
ATOM     24  C   UNL     1      -3.690  11.461  17.506  0.00  0.00    +0.000 A 
ATOM     25  C   UNL     1      -3.342  11.030  16.105  0.00  0.00    +0.000 C 
ATOM     26  C   UNL     1      -4.959  11.054  17.971  0.00  0.00    +0.000 A 
BRANCH  20  27
ATOM     27  N   UNL     1      -6.703  10.850  19.690  0.00  0.00    +0.000 N 
BRANCH  27  29
ATOM     28  C   UNL     1      -7.807  12.144  21.515  0.00  0.00    +0.000 C 
ATOM     29  C   UNL     1      -7.746  11.830  20.026  0.00  0.00    +0.000 C 
ENDBRANCH  27  29
BRANCH  27  30
ATOM     30  C   UNL     1      -7.063   9.462  19.345  0.00  0.00    +0.000 C 
ATOM     31  C   UNL     1      -7.609   8.609  20.476  0.00  0.00    +0.000 C 
ENDBRANCH  27  30
ENDBRANCH  20  27
ENDBRANCH   1  23
TORSDOF 5
ENDMDL
MODEL 2
REMARK VINA RESULT:      -7.3      4.937      9.362
REMARK  Name = 
REMARK  9 active torsions:
REMARK  status: ('A' for Active; 'I' for Inactive)
REMARK    1  A    between atoms: C_1  and  C_2
REMARK    2  A    between atoms: C_2  and  N_3
REMARK    3  A    between atoms: N_3  and  C_4
REMARK    4  A    between atoms: N_3  and  C_6
REMARK    5  A    between atoms: C_4  and  C_5
REMARK    6  A    between atoms: C_9  and  N_10
REMARK    7  A    between atoms: C_13  and  C_14
REMARK    8  A    between atoms: C_21  and  C_22
REMARK    9  A    between atoms: C_28  and  C_29
REMARK                            x       y       z     vdW  Elec       q    Type
REMARK                         _______ _______ _______ _____ _____    ______ ____
ROOT
ATOM      1  N   UNL     1       0.140  11.097  18.923  0.00  0.00    +0.000 N 
ATOM      2  C   UNL     1       0.696  12.328  18.983  0.00  0.00    +0.000 A 
ATOM      3  N   UNL     1       1.959  12.612  18.746  0.00  0.00    +0.000 NA
ATOM      4  C   UNL     1       2.248  13.916  19.099  0.00  0.00    +0.000 A 
ATOM      5  C   UNL     1       1.156  14.665  19.479  0.00  0.00    +0.000 A 
ATOM      6  S   UNL     1      -0.260  13.696  19.417  0.00  0.00    +0.000 S 
ATOM      7  H   UNL     1      -0.857  11.038  19.088  0.00  0.00    +0.000 HD
ENDROOT
BRANCH   4   8
ATOM      8  C   UNL     1       3.617  14.393  19.052  0.00  0.00    +0.000 A 
ATOM      9  C   UNL     1       4.333  14.342  17.855  0.00  0.00    +0.000 A 
ATOM     10  C   UNL     1       5.652  14.788  17.808  0.00  0.00    +0.000 A 
ATOM     11  C   UNL     1       6.238  15.268  18.976  0.00  0.00    +0.000 A 
ATOM     12  N   UNL     1       7.567  15.770  18.949  0.00  0.00    +0.000 N 
ATOM     13  C   UNL     1       8.268  16.240  20.036  0.00  0.00    +0.000 A 
ATOM     14  N   UNL     1       9.469  16.674  19.713  0.00  0.00    +0.000 NA
ATOM     15  C   UNL     1       9.566  16.484  18.359  0.00  0.00    +0.000 A 
ATOM     16  C   UNL     1      10.780  16.880  17.611  0.00  0.00    +0.000 C 
ATOM     17  C   UNL     1       8.412  15.909  17.871  0.00  0.00    +0.000 A 
ATOM     18  N   UNL     1       5.578  15.299  20.163  0.00  0.00    +0.000 NA
ATOM     19  C   UNL     1       4.294  14.861  20.172  0.00  0.00    +0.000 A 
ENDBRANCH   4   8
BRANCH   1  23
ATOM     20  C   UNL     1       2.226   7.385  19.502  0.00  0.00    +0.000 A 
ATOM     21  C   UNL     1       2.151   8.043  18.270  0.00  0.00    +0.000 A 
ATOM     22  C   UNL     1       1.457   9.257  18.121  0.00  0.00    +0.000 A 
ATOM     23  C   UNL     1       0.790   9.871  19.193  0.00  0.00    +0.000 A 
ATOM     24  C   UNL     1       0.808   9.208  20.429  0.00  0.00    +0.000 A 
ATOM     25  C   UNL     1       0.092   9.670  21.670  0.00  0.00    +0.000 C 
ATOM     26  C   UNL     1       1.539   8.007  20.558  0.00  0.00    +0.000 A 
BRANCH  20  27
ATOM     27  N   UNL     1       2.911   6.169  19.676  0.00  0.00    +0.000 N 
BRANCH  27  29
ATOM     28  C   UNL     1       1.315   4.257  19.821  0.00  0.00    +0.000 C 
ATOM     29  C   UNL     1       2.327   5.136  20.544  0.00  0.00    +0.000 C 
ENDBRANCH  27  29
BRANCH  27  30
ATOM     30  C   UNL     1       3.911   5.810  18.653  0.00  0.00    +0.000 C 
ATOM     31  C   UNL     1       5.146   5.081  19.148  0.00  0.00    +0.000 C 
ENDBRANCH  27  30
ENDBRANCH  20  27
ENDBRANCH   1  23
TORSDOF 5
ENDMDL
MODEL 3
REMARK VINA RESULT:      -7.2      5.100      9.309
REMARK  Name = 
REMARK  9 active torsions:
REMARK  status: ('A' for Active; 'I' for Inactive)
REMARK    1  A    between atoms: C_1  and  C_2
REMARK    2  A    between atoms: C_2  and  N_3
REMARK    3  A    between atoms: N_3  and  C_4
REMARK    4  A    between atoms: N_3  and  C_6
REMARK    5  A    between atoms: C_4  and  C_5
REMARK    6  A    between atoms: C_9  and  N_10
REMARK    7  A    between atoms: C_13  and  C_14
REMARK    8  A    between atoms: C_21  and  C_22
REMARK    9  A    between atoms: C_28  and  C_29
REMARK                            x       y       z     vdW  Elec       q    Type
REMARK                         _______ _______ _______ _____ _____    ______ ____
ROOT
ATOM      1  N   UNL     1       0.323  11.376  18.555  0.00  0.00    +0.000 N 
ATOM      2  C   UNL     1       0.932  12.577  18.682  0.00  0.00    +0.000 A 
ATOM      3  N   UNL     1       2.222  12.800  18.556  0.00  0.00    +0.000 NA
ATOM      4  C   UNL     1       2.545  14.082  18.954  0.00  0.00    +0.000 A 
ATOM      5  C   UNL     1       1.463  14.880  19.255  0.00  0.00    +0.000 A 
ATOM      6  S   UNL     1       0.012  13.986  19.059  0.00  0.00    +0.000 S 
ATOM      7  H   UNL     1      -0.687  11.366  18.635  0.00  0.00    +0.000 HD
ENDROOT
BRANCH   4   8
ATOM      8  C   UNL     1       3.935  14.490  19.030  0.00  0.00    +0.000 A 
ATOM      9  C   UNL     1       4.727  14.488  17.881  0.00  0.00    +0.000 A 
ATOM     10  C   UNL     1       6.065  14.867  17.950  0.00  0.00    +0.000 A 
ATOM     11  C   UNL     1       6.594  15.231  19.185  0.00  0.00    +0.000 A 
ATOM     12  N   UNL     1       7.944  15.664  19.280  0.00  0.00    +0.000 N 
ATOM     13  C   UNL     1       8.591  16.018  20.442  0.00  0.00    +0.000 A 
ATOM     14  N   UNL     1       9.831  16.411  20.229  0.00  0.00    +0.000 NA
ATOM     15  C   UNL     1      10.009  16.314  18.873  0.00  0.00    +0.000 A 
ATOM     16  C   UNL     1      11.288  16.700  18.235  0.00  0.00    +0.000 C 
ATOM     17  C   UNL     1       8.864  15.836  18.271  0.00  0.00    +0.000 A 
ATOM     18  N   UNL     1       5.858  15.211  20.327  0.00  0.00    +0.000 NA
ATOM     19  C   UNL     1       4.557  14.841  20.223  0.00  0.00    +0.000 A 
ENDBRANCH   4   8
BRANCH   1  23
ATOM     20  C   UNL     1       2.144   7.543  19.230  0.00  0.00    +0.000 A 
ATOM     21  C   UNL     1       2.099   8.166  17.978  0.00  0.00    +0.000 A 
ATOM     22  C   UNL     1       1.493   9.422  17.797  0.00  0.00    +0.000 A 
ATOM     23  C   UNL     1       0.887  10.116  18.856  0.00  0.00    +0.000 A 
ATOM     24  C   UNL     1       0.874   9.492  20.113  0.00  0.00    +0.000 A 
ATOM     25  C   UNL     1       0.209  10.044  21.347  0.00  0.00    +0.000 C 
ATOM     26  C   UNL     1       1.518   8.246  20.272  0.00  0.00    +0.000 A 
BRANCH  20  27
ATOM     27  N   UNL     1       2.741   6.287  19.435  0.00  0.00    +0.000 N 
BRANCH  27  29
ATOM     28  C   UNL     1       3.901   4.967  17.664  0.00  0.00    +0.000 C 
ATOM     29  C   UNL     1       4.026   5.990  18.785  0.00  0.00    +0.000 C 
ENDBRANCH  27  29
BRANCH  27  30
ATOM     30  C   UNL     1       2.307   5.523  20.619  0.00  0.00    +0.000 C 
ATOM     31  C   UNL     1       1.235   4.475  20.386  0.00  0.00    +0.000 C 
ENDBRANCH  27  30
ENDBRANCH  20  27
ENDBRANCH   1  23
TORSDOF 5
ENDMDL
MODEL 4
REMARK VINA RESULT:      -7.2      5.015      9.309
REMARK  Name = 
REMARK  9 active torsions:
REMARK  status: ('A' for Active; 'I' for Inactive)
REMARK    1  A    between atoms: C_1  and  C_2
REMARK    2  A    between atoms: C_2  and  N_3
REMARK    3  A    between atoms: N_3  and  C_4
REMARK    4  A    between atoms: N_3  and  C_6
REMARK    5  A    between atoms: C_4  and  C_5
REMARK    6  A    between atoms: C_9  and  N_10
REMARK    7  A    between atoms: C_13  and  C_14
REMARK    8  A    between atoms: C_21  and  C_22
REMARK    9  A    between atoms: C_28  and  C_29
REMARK                            x       y       z     vdW  Elec       q    Type
REMARK                         _______ _______ _______ _____ _____    ______ ____
ROOT
ATOM      1  N   UNL     1       0.339  11.208  18.511  0.00  0.00    +0.000 N 
ATOM      2  C   UNL     1       0.947  12.411  18.607  0.00  0.00    +0.000 A 
ATOM      3  N   UNL     1       2.240  12.630  18.496  0.00  0.00    +0.000 NA
ATOM      4  C   UNL     1       2.557  13.925  18.855  0.00  0.00    +0.000 A 
ATOM      5  C   UNL     1       1.470  14.734  19.108  0.00  0.00    +0.000 A 
ATOM      6  S   UNL     1       0.022  13.833  18.917  0.00  0.00    +0.000 S 
ATOM      7  H   UNL     1      -0.671  11.200  18.573  0.00  0.00    +0.000 HD
ENDROOT
BRANCH   4   8
ATOM      8  C   UNL     1       3.945  14.336  18.941  0.00  0.00    +0.000 A 
ATOM      9  C   UNL     1       4.504  14.649  20.181  0.00  0.00    +0.000 A 
ATOM     10  C   UNL     1       5.834  15.055  20.267  0.00  0.00    +0.000 A 
ATOM     11  C   UNL     1       6.581  15.154  19.097  0.00  0.00    +0.000 A 
ATOM     12  N   UNL     1       7.952  15.524  19.159  0.00  0.00    +0.000 N 
ATOM     13  C   UNL     1       8.786  15.689  18.076  0.00  0.00    +0.000 A 
ATOM     14  N   UNL     1      10.016  16.002  18.431  0.00  0.00    +0.000 NA
ATOM     15  C   UNL     1       9.993  16.046  19.800  0.00  0.00    +0.000 A 
ATOM     16  C   UNL     1      11.215  16.345  20.581  0.00  0.00    +0.000 C 
ATOM     17  C   UNL     1       8.726  15.774  20.269  0.00  0.00    +0.000 A 
ATOM     18  N   UNL     1       6.056  14.889  17.872  0.00  0.00    +0.000 NA
ATOM     19  C   UNL     1       4.759  14.492  17.825  0.00  0.00    +0.000 A 
ENDBRANCH   4   8
BRANCH   1  23
ATOM     20  C   UNL     1       2.150   7.404  19.356  0.00  0.00    +0.000 A 
ATOM     21  C   UNL     1       2.152   7.993  18.088  0.00  0.00    +0.000 A 
ATOM     22  C   UNL     1       1.548   9.241  17.851  0.00  0.00    +0.000 A 
ATOM     23  C   UNL     1       0.897   9.959  18.867  0.00  0.00    +0.000 A 
ATOM     24  C   UNL     1       0.837   9.367  20.138  0.00  0.00    +0.000 A 
ATOM     25  C   UNL     1       0.121   9.946  21.330  0.00  0.00    +0.000 C 
ATOM     26  C   UNL     1       1.480   8.129  20.354  0.00  0.00    +0.000 A 
BRANCH  20  27
ATOM     27  N   UNL     1       2.745   6.156  19.616  0.00  0.00    +0.000 N 
BRANCH  27  29
ATOM     28  C   UNL     1       4.088   4.779  18.028  0.00  0.00    +0.000 C 
ATOM     29  C   UNL     1       4.086   5.876  19.084  0.00  0.00    +0.000 C 
ENDBRANCH  27  29
BRANCH  27  30
ATOM     30  C   UNL     1       2.218   5.388  20.760  0.00  0.00    +0.000 C 
ATOM     31  C   UNL     1       1.126   4.382  20.448  0.00  0.00    +0.000 C 
ENDBRANCH  27  30
ENDBRANCH  20  27
ENDBRANCH   1  23
TORSDOF 5
ENDMDL
MODEL 5
REMARK VINA RESULT:      -7.1      3.963      8.067
REMARK  Name = 
REMARK  9 active torsions:
REMARK  status: ('A' for Active; 'I' for Inactive)
REMARK    1  A    between atoms: C_1  and  C_2
REMARK    2  A    between atoms: C_2  and  N_3
REMARK    3  A    between atoms: N_3  and  C_4
REMARK    4  A    between atoms: N_3  and  C_6
REMARK    5  A    between atoms: C_4  and  C_5
REMARK    6  A    between atoms: C_9  and  N_10
REMARK    7  A    between atoms: C_13  and  C_14
REMARK    8  A    between atoms: C_21  and  C_22
REMARK    9  A    between atoms: C_28  and  C_29
REMARK                            x       y       z     vdW  Elec       q    Type
REMARK                         _______ _______ _______ _____ _____    ______ ____
ROOT
ATOM      1  N   UNL     1       1.215  14.241  19.400  0.00  0.00    +0.000 N 
ATOM      2  C   UNL     1       0.749  12.985  19.215  0.00  0.00    +0.000 A 
ATOM      3  N   UNL     1       1.426  11.877  19.423  0.00  0.00    +0.000 NA
ATOM      4  C   UNL     1       0.742  10.779  18.940  0.00  0.00    +0.000 A 
ATOM      5  C   UNL     1      -0.530  11.049  18.484  0.00  0.00    +0.000 A 
ATOM      6  S   UNL     1      -0.857  12.727  18.643  0.00  0.00    +0.000 S 
ATOM      7  H   UNL     1       0.562  14.999  19.241  0.00  0.00    +0.000 HD
ENDROOT
BRANCH   4   8
ATOM      8  C   UNL     1       1.374   9.473  18.939  0.00  0.00    +0.000 A 
ATOM      9  C   UNL     1       1.365   8.693  20.096  0.00  0.00    +0.000 A 
ATOM     10  C   UNL     1       1.980   7.444  20.103  0.00  0.00    +0.000 A 
ATOM     11  C   UNL     1       2.611   7.002  18.944  0.00  0.00    +0.000 A 
ATOM     12  N   UNL     1       3.210   5.713  18.909  0.00  0.00    +0.000 N 
ATOM     13  C   UNL     1       3.890   5.176  17.840  0.00  0.00    +0.000 A 
ATOM     14  N   UNL     1       4.311   3.949  18.075  0.00  0.00    +0.000 NA
ATOM     15  C   UNL     1       3.893   3.666  19.349  0.00  0.00    +0.000 A 
ATOM     16  C   UNL     1       4.157   2.349  19.971  0.00  0.00    +0.000 C 
ATOM     17  C   UNL     1       3.229   4.747  19.889  0.00  0.00    +0.000 A 
ATOM     18  N   UNL     1       2.667   7.752  17.813  0.00  0.00    +0.000 NA
ATOM     19  C   UNL     1       2.054   8.962  17.839  0.00  0.00    +0.000 A 
ENDBRANCH   4   8
BRANCH   1  23
ATOM     20  C   UNL     1       5.248  15.550  18.704  0.00  0.00    +0.000 A 
ATOM     21  C   UNL     1       4.365  15.196  17.679  0.00  0.00    +0.000 A 
ATOM     22  C   UNL     1       3.051  14.771  17.947  0.00  0.00    +0.000 A 
ATOM     23  C   UNL     1       2.555  14.665  19.257  0.00  0.00    +0.000 A 
ATOM     24  C   UNL     1       3.436  14.967  20.307  0.00  0.00    +0.000 A 
ATOM     25  C   UNL     1       3.111  14.841  21.772  0.00  0.00    +0.000 C 
ATOM     26  C   UNL     1       4.738  15.421  20.007  0.00  0.00    +0.000 A 
BRANCH  20  27
ATOM     27  N   UNL     1       6.567  15.974  18.462  0.00  0.00    +0.000 N 
BRANCH  27  29
ATOM     28  C   UNL     1       8.334  17.726  18.633  0.00  0.00    +0.000 C 
ATOM     29  C   UNL     1       7.137  17.049  19.286  0.00  0.00    +0.000 C 
ENDBRANCH  27  29
BRANCH  27  30
ATOM     30  C   UNL     1       7.448  15.041  17.734  0.00  0.00    +0.000 C 
ATOM     31  C   UNL     1       8.151  13.989  18.571  0.00  0.00    +0.000 C 
ENDBRANCH  27  30
ENDBRANCH  20  27
ENDBRANCH   1  23
TORSDOF 5
ENDMDL
MODEL 6
REMARK VINA RESULT:      -7.1      4.159      8.467
REMARK  Name = 
REMARK  9 active torsions:
REMARK  status: ('A' for Active; 'I' for Inactive)
REMARK    1  A    between atoms: C_1  and  C_2
REMARK    2  A    between atoms: C_2  and  N_3
REMARK    3  A    between atoms: N_3  and  C_4
REMARK    4  A    between atoms: N_3  and  C_6
REMARK    5  A    between atoms: C_4  and  C_5
REMARK    6  A    between atoms: C_9  and  N_10
REMARK    7  A    between atoms: C_13  and  C_14
REMARK    8  A    between atoms: C_21  and  C_22
REMARK    9  A    between atoms: C_28  and  C_29
REMARK                            x       y       z     vdW  Elec       q    Type
REMARK                         _______ _______ _______ _____ _____    ______ ____
ROOT
ATOM      1  N   UNL     1       1.933  14.658  19.342  0.00  0.00    +0.000 N 
ATOM      2  C   UNL     1       1.243  13.498  19.266  0.00  0.00    +0.000 A 
ATOM      3  N   UNL     1       1.682  12.317  19.645  0.00  0.00    +0.000 NA
ATOM      4  C   UNL     1       0.823  11.315  19.240  0.00  0.00    +0.000 A 
ATOM      5  C   UNL     1      -0.349  11.758  18.667  0.00  0.00    +0.000 A 
ATOM      6  S   UNL     1      -0.353  13.474  18.613  0.00  0.00    +0.000 S 
ATOM      7  H   UNL     1       1.447  15.498  19.053  0.00  0.00    +0.000 HD
ENDROOT
BRANCH   4   8
ATOM      8  C   UNL     1       1.189   9.924  19.431  0.00  0.00    +0.000 A 
ATOM      9  C   UNL     1       0.949   9.302  20.657  0.00  0.00    +0.000 A 
ATOM     10  C   UNL     1       1.310   7.970  20.849  0.00  0.00    +0.000 A 
ATOM     11  C   UNL     1       1.923   7.286  19.804  0.00  0.00    +0.000 A 
ATOM     12  N   UNL     1       2.263   5.914  19.956  0.00  0.00    +0.000 N 
ATOM     13  C   UNL     1       2.899   5.138  19.014  0.00  0.00    +0.000 A 
ATOM     14  N   UNL     1       3.059   3.892  19.411  0.00  0.00    +0.000 NA
ATOM     15  C   UNL     1       2.506   3.843  20.664  0.00  0.00    +0.000 A 
ATOM     16  C   UNL     1       2.468   2.583  21.440  0.00  0.00    +0.000 C 
ATOM     17  C   UNL     1       2.027   5.084  21.027  0.00  0.00    +0.000 A 
ATOM     18  N   UNL     1       2.201   7.874  18.611  0.00  0.00    +0.000 NA
ATOM     19  C   UNL     1       1.832   9.171  18.456  0.00  0.00    +0.000 A 
ENDBRANCH   4   8
BRANCH   1  23
ATOM     20  C   UNL     1       6.169  15.127  18.797  0.00  0.00    +0.000 A 
ATOM     21  C   UNL     1       5.271  14.947  17.739  0.00  0.00    +0.000 A 
ATOM     22  C   UNL     1       3.890  14.797  17.959  0.00  0.00    +0.000 A 
ATOM     23  C   UNL     1       3.335  14.804  19.248  0.00  0.00    +0.000 A 
ATOM     24  C   UNL     1       4.219  14.933  20.330  0.00  0.00    +0.000 A 
ATOM     25  C   UNL     1       3.823  14.888  21.783  0.00  0.00    +0.000 C 
ATOM     26  C   UNL     1       5.596  15.115  20.079  0.00  0.00    +0.000 A 
BRANCH  20  27
ATOM     27  N   UNL     1       7.554  15.276  18.603  0.00  0.00    +0.000 N 
BRANCH  27  29
ATOM     28  C   UNL     1       9.449  16.686  17.800  0.00  0.00    +0.000 C 
ATOM     29  C   UNL     1       8.129  16.628  18.557  0.00  0.00    +0.000 C 
ENDBRANCH  27  29
BRANCH  27  30
ATOM     30  C   UNL     1       8.404  14.111  18.911  0.00  0.00    +0.000 C 
ATOM     31  C   UNL     1       8.524  13.061  17.823  0.00  0.00    +0.000 C 
ENDBRANCH  27  30
ENDBRANCH  20  27
ENDBRANCH   1  23
TORSDOF 5
ENDMDL
MODEL 7
REMARK VINA RESULT:      -7.1      4.187      8.445
REMARK  Name = 
REMARK  9 active torsions:
REMARK  status: ('A' for Active; 'I' for Inactive)
REMARK    1  A    between atoms: C_1  and  C_2
REMARK    2  A    between atoms: C_2  and  N_3
REMARK    3  A    between atoms: N_3  and  C_4
REMARK    4  A    between atoms: N_3  and  C_6
REMARK    5  A    between atoms: C_4  and  C_5
REMARK    6  A    between atoms: C_9  and  N_10
REMARK    7  A    between atoms: C_13  and  C_14
REMARK    8  A    between atoms: C_21  and  C_22
REMARK    9  A    between atoms: C_28  and  C_29
REMARK                            x       y       z     vdW  Elec       q    Type
REMARK                         _______ _______ _______ _____ _____    ______ ____
ROOT
ATOM      1  N   UNL     1       2.027  14.629  19.536  0.00  0.00    +0.000 N 
ATOM      2  C   UNL     1       1.349  13.469  19.385  0.00  0.00    +0.000 A 
ATOM      3  N   UNL     1       1.826  12.265  19.615  0.00  0.00    +0.000 NA
ATOM      4  C   UNL     1       0.956  11.292  19.163  0.00  0.00    +0.000 A 
ATOM      5  C   UNL     1      -0.255  11.769  18.710  0.00  0.00    +0.000 A 
ATOM      6  S   UNL     1      -0.284  13.481  18.831  0.00  0.00    +0.000 S 
ATOM      7  H   UNL     1       1.514  15.485  19.364  0.00  0.00    +0.000 HD
ENDROOT
BRANCH   4   8
ATOM      8  C   UNL     1       1.351   9.897  19.189  0.00  0.00    +0.000 A 
ATOM      9  C   UNL     1       1.805   9.279  18.024  0.00  0.00    +0.000 A 
ATOM     10  C   UNL     1       2.173   7.936  18.041  0.00  0.00    +0.000 A 
ATOM     11  C   UNL     1       2.065   7.227  19.234  0.00  0.00    +0.000 A 
ATOM     12  N   UNL     1       2.475   5.867  19.293  0.00  0.00    +0.000 N 
ATOM     13  C   UNL     1       2.388   5.052  20.398  0.00  0.00    +0.000 A 
ATOM     14  N   UNL     1       2.873   3.847  20.175  0.00  0.00    +0.000 NA
ATOM     15  C   UNL     1       3.296   3.868  18.872  0.00  0.00    +0.000 A 
ATOM     16  C   UNL     1       3.935   2.685  18.252  0.00  0.00    +0.000 C 
ATOM     17  C   UNL     1       3.042   5.097  18.303  0.00  0.00    +0.000 A 
ATOM     18  N   UNL     1       1.594   7.792  20.377  0.00  0.00    +0.000 NA
ATOM     19  C   UNL     1       1.248   9.103  20.326  0.00  0.00    +0.000 A 
ENDBRANCH   4   8
BRANCH   1  23
ATOM     20  C   UNL     1       6.219  15.199  18.781  0.00  0.00    +0.000 A 
ATOM     21  C   UNL     1       5.278  14.974  17.771  0.00  0.00    +0.000 A 
ATOM     22  C   UNL     1       3.913  14.792  18.059  0.00  0.00    +0.000 A 
ATOM     23  C   UNL     1       3.420  14.810  19.373  0.00  0.00    +0.000 A 
ATOM     24  C   UNL     1       4.350  14.984  20.409  0.00  0.00    +0.000 A 
ATOM     25  C   UNL     1       4.024  14.958  21.879  0.00  0.00    +0.000 C 
ATOM     26  C   UNL     1       5.708  15.197  20.089  0.00  0.00    +0.000 A 
BRANCH  20  27
ATOM     27  N   UNL     1       7.589  15.381  18.518  0.00  0.00    +0.000 N 
BRANCH  27  29
ATOM     28  C   UNL     1       9.521  16.776  17.782  0.00  0.00    +0.000 C 
ATOM     29  C   UNL     1       8.113  16.745  18.361  0.00  0.00    +0.000 C 
ENDBRANCH  27  29
BRANCH  27  30
ATOM     30  C   UNL     1       8.492  14.267  18.865  0.00  0.00    +0.000 C 
ATOM     31  C   UNL     1       8.555  13.121  17.872  0.00  0.00    +0.000 C 
ENDBRANCH  27  30
ENDBRANCH  20  27
ENDBRANCH   1  23
TORSDOF 5
ENDMDL
MODEL 8
REMARK VINA RESULT:      -7.1      0.271      1.156
REMARK  Name = 
REMARK  9 active torsions:
REMARK  status: ('A' for Active; 'I' for Inactive)
REMARK    1  A    between atoms: C_1  and  C_2
REMARK    2  A    between atoms: C_2  and  N_3
REMARK    3  A    between atoms: N_3  and  C_4
REMARK    4  A    between atoms: N_3  and  C_6
REMARK    5  A    between atoms: C_4  and  C_5
REMARK    6  A    between atoms: C_9  and  N_10
REMARK    7  A    between atoms: C_13  and  C_14
REMARK    8  A    between atoms: C_21  and  C_22
REMARK    9  A    between atoms: C_28  and  C_29
REMARK                            x       y       z     vdW  Elec       q    Type
REMARK                         _______ _______ _______ _____ _____    ______ ____
ROOT
ATOM      1  N   UNL     1      -1.696  12.753  18.220  0.00  0.00    +0.000 N 
ATOM      2  C   UNL     1      -0.509  12.178  18.517  0.00  0.00    +0.000 A 
ATOM      3  N   UNL     1      -0.263  10.885  18.527  0.00  0.00    +0.000 NA
ATOM      4  C   UNL     1       0.977  10.620  19.074  0.00  0.00    +0.000 A 
ATOM      5  C   UNL     1       1.732  11.738  19.355  0.00  0.00    +0.000 A 
ATOM      6  S   UNL     1       0.849  13.151  18.945  0.00  0.00    +0.000 S 
ATOM      7  H   UNL     1      -1.723  13.765  18.209  0.00  0.00    +0.000 HD
ENDROOT
BRANCH   4   8
ATOM      8  C   UNL     1       1.387   9.249  19.312  0.00  0.00    +0.000 A 
ATOM      9  C   UNL     1       2.069   8.544  18.320  0.00  0.00    +0.000 A 
ATOM     10  C   UNL     1       2.454   7.223  18.538  0.00  0.00    +0.000 A 
ATOM     11  C   UNL     1       2.133   6.625  19.753  0.00  0.00    +0.000 A 
ATOM     12  N   UNL     1       2.551   5.293  20.021  0.00  0.00    +0.000 N 
ATOM     13  C   UNL     1       2.270   4.581  21.165  0.00  0.00    +0.000 A 
ATOM     14  N   UNL     1       2.813   3.380  21.158  0.00  0.00    +0.000 NA
ATOM     15  C   UNL     1       3.478   3.296  19.963  0.00  0.00    +0.000 A 
ATOM     16  C   UNL     1       4.248   2.086  19.593  0.00  0.00    +0.000 C 
ATOM     17  C   UNL     1       3.314   4.457  19.238  0.00  0.00    +0.000 A 
ATOM     18  N   UNL     1       1.441   7.274  20.725  0.00  0.00    +0.000 NA
ATOM     19  C   UNL     1       1.084   8.561  20.481  0.00  0.00    +0.000 A 
ENDBRANCH   4   8
BRANCH   1  23
ATOM     20  C   UNL     1      -5.612  11.226  19.111  0.00  0.00    +0.000 A 
ATOM     21  C   UNL     1      -4.916  12.101  19.952  0.00  0.00    +0.000 A 
ATOM     22  C   UNL     1      -3.634  12.579  19.625  0.00  0.00    +0.000 A 
ATOM     23  C   UNL     1      -2.975  12.196  18.446  0.00  0.00    +0.000 A 
ATOM     24  C   UNL     1      -3.629  11.279  17.609  0.00  0.00    +0.000 A 
ATOM     25  C   UNL     1      -3.053  10.696  16.346  0.00  0.00    +0.000 C 
ATOM     26  C   UNL     1      -4.928  10.842  17.946  0.00  0.00    +0.000 A 
BRANCH  20  27
ATOM     27  N   UNL     1      -6.892  10.732  19.418  0.00  0.00    +0.000 N 
BRANCH  27  29
ATOM     28  C   UNL     1      -7.630   8.715  20.688  0.00  0.00    +0.000 C 
ATOM     29  C   UNL     1      -7.133   9.283  19.365  0.00  0.00    +0.000 C 
ENDBRANCH  27  29
BRANCH  27  30
ATOM     30  C   UNL     1      -7.779  11.610  20.205  0.00  0.00    +0.000 C 
ATOM     31  C   UNL     1      -7.296  11.980  21.595  0.00  0.00    +0.000 C 
ENDBRANCH  27  30
ENDBRANCH  20  27
ENDBRANCH   1  23
TORSDOF 5
ENDMDL
MODEL 9
REMARK VINA RESULT:      -7.0      0.493      1.431
REMARK  Name = 
REMARK  9 active torsions:
REMARK  status: ('A' for Active; 'I' for Inactive)
REMARK    1  A    between atoms: C_1  and  C_2
REMARK    2  A    between atoms: C_2  and  N_3
REMARK    3  A    between atoms: N_3  and  C_4
REMARK    4  A    between atoms: N_3  and  C_6
REMARK    5  A    between atoms: C_4  and  C_5
REMARK    6  A    between atoms: C_9  and  N_10
REMARK    7  A    between atoms: C_13  and  C_14
REMARK    8  A    between atoms: C_21  and  C_22
REMARK    9  A    between atoms: C_28  and  C_29
REMARK                            x       y       z     vdW  Elec       q    Type
REMARK                         _______ _______ _______ _____ _____    ______ ____
ROOT
ATOM      1  N   UNL     1      -1.533  12.940  18.299  0.00  0.00    +0.000 N 
ATOM      2  C   UNL     1      -0.348  12.304  18.437  0.00  0.00    +0.000 A 
ATOM      3  N   UNL     1      -0.177  11.001  18.496  0.00  0.00    +0.000 NA
ATOM      4  C   UNL     1       1.120  10.685  18.850  0.00  0.00    +0.000 A 
ATOM      5  C   UNL     1       1.974  11.764  18.925  0.00  0.00    +0.000 A 
ATOM      6  S   UNL     1       1.116  13.207  18.568  0.00  0.00    +0.000 S 
ATOM      7  H   UNL     1      -1.504  13.949  18.222  0.00  0.00    +0.000 HD
ENDROOT
BRANCH   4   8
ATOM      8  C   UNL     1       1.486   9.306  19.112  0.00  0.00    +0.000 A 
ATOM      9  C   UNL     1       2.111   8.550  18.120  0.00  0.00    +0.000 A 
ATOM     10  C   UNL     1       2.453   7.222  18.362  0.00  0.00    +0.000 A 
ATOM     11  C   UNL     1       2.146   6.667  19.601  0.00  0.00    +0.000 A 
ATOM     12  N   UNL     1       2.522   5.328  19.892  0.00  0.00    +0.000 N 
ATOM     13  C   UNL     1       2.248   4.656  21.062  0.00  0.00    +0.000 A 
ATOM     14  N   UNL     1       2.745   3.436  21.071  0.00  0.00    +0.000 NA
ATOM     15  C   UNL     1       3.372   3.296  19.860  0.00  0.00    +0.000 A 
ATOM     16  C   UNL     1       4.084   2.049  19.501  0.00  0.00    +0.000 C 
ATOM     17  C   UNL     1       3.229   4.444  19.110  0.00  0.00    +0.000 A 
ATOM     18  N   UNL     1       1.507   7.367  20.575  0.00  0.00    +0.000 NA
ATOM     19  C   UNL     1       1.192   8.659  20.307  0.00  0.00    +0.000 A 
ENDBRANCH   4   8
BRANCH   1  23
ATOM     20  C   UNL     1      -5.359  11.407  19.513  0.00  0.00    +0.000 A 
ATOM     21  C   UNL     1      -4.813  11.197  18.243  0.00  0.00    +0.000 A 
ATOM     22  C   UNL     1      -3.557  11.717  17.882  0.00  0.00    +0.000 A 
ATOM     23  C   UNL     1      -2.785  12.484  18.770  0.00  0.00    +0.000 A 
ATOM     24  C   UNL     1      -3.331  12.751  20.035  0.00  0.00    +0.000 A 
ATOM     25  C   UNL     1      -2.691  13.613  21.090  0.00  0.00    +0.000 C 
ATOM     26  C   UNL     1      -4.580  12.191  20.380  0.00  0.00    +0.000 A 
BRANCH  20  27
ATOM     27  N   UNL     1      -6.614  10.901  19.896  0.00  0.00    +0.000 N 
BRANCH  27  29
ATOM     28  C   UNL     1      -7.845  13.023  19.445  0.00  0.00    +0.000 C 
ATOM     29  C   UNL     1      -7.647  11.832  20.373  0.00  0.00    +0.000 C 
ENDBRANCH  27  29
BRANCH  27  30
ATOM     30  C   UNL     1      -6.987   9.570  19.380  0.00  0.00    +0.000 C 
ATOM     31  C   UNL     1      -7.504   8.575  20.401  0.00  0.00    +0.000 C 
ENDBRANCH  27  30
ENDBRANCH  20  27
ENDBRANCH   1  23
TORSDOF 5
ENDMDL
