MODEL 1
REMARK VINA RESULT:      -8.6      0.000      0.000
REMARK  Name = 
REMARK  7 active torsions:
REMARK  status: ('A' for Active; 'I' for Inactive)
REMARK    1  A    between atoms: C_1  and  C_2
REMARK    2  A    between atoms: C_6  and  N_7
REMARK    3  A    between atoms: N_10  and  C_11
REMARK    4  A    between atoms: C_16  and  S_17
REMARK    5  A    between atoms: S_17  and  C_20
REMARK    6  A    between atoms: N_23  and  C_24
REMARK    7  A    between atoms: C_30  and  O_31
REMARK                            x       y       z     vdW  Elec       q    Type
REMARK                         _______ _______ _______ _____ _____    ______ ____
ROOT
ATOM      1  C   UNL     1       7.547   6.492  18.083  0.00  0.00    +0.000 A 
ATOM      2  C   UNL     1       7.359   6.556  16.705  0.00  0.00    +0.000 A 
ATOM      3  C   UNL     1       6.485   5.667  16.048  0.00  0.00    +0.000 A 
ATOM      4  C   UNL     1       5.698   4.754  16.758  0.00  0.00    +0.000 A 
ATOM      5 CL   UNL     1       4.712   3.738  15.767  0.00  0.00    +0.000 Cl
ATOM      6  C   UNL     1       5.787   4.697  18.159  0.00  0.00    +0.000 A 
ATOM      7  C   UNL     1       6.771   5.525  18.792  0.00  0.00    +0.000 A 
ENDROOT
BRANCH   1  11
ATOM      8  N   UNL     1       9.359   9.471  19.345  0.00  0.00    +0.000 N 
ATOM      9  C   UNL     1       8.476   8.785  18.518  0.00  0.00    +0.000 C 
ATOM     10  O   UNL     1       7.776   9.393  17.705  0.00  0.00    +0.000 OA
ATOM     11  N   UNL     1       8.451   7.408  18.737  0.00  0.00    +0.000 N 
ATOM     12  H   UNL     1      10.011   8.994  19.948  0.00  0.00    +0.000 HD
ATOM     13  H   UNL     1       8.995   7.103  19.521  0.00  0.00    +0.000 HD
BRANCH   8  19
ATOM     14  C   UNL     1       8.891  11.742  21.663  0.00  0.00    +0.000 C 
ATOM     15  C   UNL     1       9.845  11.565  20.538  0.00  0.00    +0.000 C 
ATOM     16  C   UNL     1      11.072  12.099  20.490  0.00  0.00    +0.000 C 
ATOM     17  C   UNL     1      11.708  11.893  19.160  0.00  0.00    +0.000 C 
ATOM     18  C   UNL     1      10.554  11.406  18.284  0.00  0.00    +0.000 C 
ATOM     19  C   UNL     1       9.445  10.925  19.236  0.00  0.00    +0.000 C 
ENDBRANCH   8  19
ENDBRANCH   1  11
BRANCH   6  20
ATOM     20  S   UNL     1       4.347   4.077  19.136  0.00  0.00    +0.000 S 
ATOM     21  O   UNL     1       4.470   2.633  19.046  0.00  0.00    +0.000 OA
ATOM     22  O   UNL     1       4.418   4.654  20.466  0.00  0.00    +0.000 OA
BRANCH  20  23
ATOM     23  C   UNL     1       2.756   4.650  18.451  0.00  0.00    +0.000 C 
ATOM     24  C   UNL     1       2.724   6.119  17.904  0.00  0.00    +0.000 C 
ATOM     25  C   UNL     1       2.241   7.268  18.862  0.00  0.00    +0.000 C 
ATOM     26  N   UNL     1       1.344   6.882  19.978  0.00  0.00    +0.000 NA
ATOM     27  C   UNL     1       1.784   5.589  20.509  0.00  0.00    +0.000 C 
ATOM     28  C   UNL     1       1.606   4.545  19.420  0.00  0.00    +0.000 C 
BRANCH  26  29
ATOM     29  C   UNL     1       1.443   7.858  21.091  0.00  0.00    +0.000 C 
ATOM     30  C   UNL     1       1.377   9.324  20.597  0.00  0.00    +0.000 C 
ATOM     31  C   UNL     1       0.415   9.593  21.784  0.00  0.00    +0.000 C 
ATOM     32  C   UNL     1       0.020   8.114  21.684  0.00  0.00    +0.000 C 
ENDBRANCH  26  29
ENDBRANCH  20  23
ENDBRANCH   6  20
BRANCH   7  33
ATOM     33  O   UNL     1       6.960   5.391  20.140  0.00  0.00    +0.000 OA
ATOM     34  H   UNL     1       6.529   4.589  20.465  0.00  0.00    +0.000 HD
ENDBRANCH   7  33
TORSDOF 6
ENDMDL
MODEL 2
REMARK VINA RESULT:      -8.1      3.998      7.784
REMARK  Name = 
REMARK  7 active torsions:
REMARK  status: ('A' for Active; 'I' for Inactive)
REMARK    1  A    between atoms: C_1  and  C_2
REMARK    2  A    between atoms: C_6  and  N_7
REMARK    3  A    between atoms: N_10  and  C_11
REMARK    4  A    between atoms: C_16  and  S_17
REMARK    5  A    between atoms: S_17  and  C_20
REMARK    6  A    between atoms: N_23  and  C_24
REMARK    7  A    between atoms: C_30  and  O_31
REMARK                            x       y       z     vdW  Elec       q    Type
REMARK                         _______ _______ _______ _____ _____    ______ ____
ROOT
ATOM      1  C   UNL     1       1.810   6.307  20.334  0.00  0.00    +0.000 A 
ATOM      2  C   UNL     1       1.093   5.237  20.865  0.00  0.00    +0.000 A 
ATOM      3  C   UNL     1       1.279   3.927  20.381  0.00  0.00    +0.000 A 
ATOM      4  C   UNL     1       2.256   3.628  19.425  0.00  0.00    +0.000 A 
ATOM      5 CL   UNL     1       2.307   1.968  18.949  0.00  0.00    +0.000 Cl
ATOM      6  C   UNL     1       3.065   4.655  18.911  0.00  0.00    +0.000 A 
ATOM      7  C   UNL     1       2.774   5.996  19.327  0.00  0.00    +0.000 A 
ENDROOT
BRANCH   1  11
ATOM      8  N   UNL     1       1.079   9.917  20.761  0.00  0.00    +0.000 N 
ATOM      9  C   UNL     1       1.358   8.760  20.040  0.00  0.00    +0.000 C 
ATOM     10  O   UNL     1       1.345   8.769  18.808  0.00  0.00    +0.000 OA
ATOM     11  N   UNL     1       1.601   7.643  20.839  0.00  0.00    +0.000 N 
ATOM     12  H   UNL     1       1.177   9.962  21.763  0.00  0.00    +0.000 HD
ATOM     13  H   UNL     1       1.448   7.791  21.818  0.00  0.00    +0.000 HD
BRANCH   8  19
ATOM     14  C   UNL     1      -1.564  10.632  18.956  0.00  0.00    +0.000 C 
ATOM     15  C   UNL     1      -0.714  11.376  19.922  0.00  0.00    +0.000 C 
ATOM     16  C   UNL     1      -1.125  12.423  20.648  0.00  0.00    +0.000 C 
ATOM     17  C   UNL     1       0.004  13.060  21.379  0.00  0.00    +0.000 C 
ATOM     18  C   UNL     1       1.242  12.421  20.751  0.00  0.00    +0.000 C 
ATOM     19  C   UNL     1       0.769  11.145  20.034  0.00  0.00    +0.000 C 
ENDBRANCH   8  19
ENDBRANCH   1  11
BRANCH   6  20
ATOM     20  S   UNL     1       4.739   4.247  18.246  0.00  0.00    +0.000 S 
ATOM     21  O   UNL     1       5.446   3.722  19.401  0.00  0.00    +0.000 OA
ATOM     22  O   UNL     1       4.574   3.345  17.121  0.00  0.00    +0.000 OA
BRANCH  20  23
ATOM     23  C   UNL     1       5.582   5.714  17.563  0.00  0.00    +0.000 C 
ATOM     24  C   UNL     1       5.043   6.248  16.191  0.00  0.00    +0.000 C 
ATOM     25  C   UNL     1       5.738   5.759  14.868  0.00  0.00    +0.000 C 
ATOM     26  N   UNL     1       7.144   5.302  14.975  0.00  0.00    +0.000 NA
ATOM     27  C   UNL     1       7.305   4.565  16.231  0.00  0.00    +0.000 C 
ATOM     28  C   UNL     1       7.067   5.529  17.380  0.00  0.00    +0.000 C 
BRANCH  26  29
ATOM     29  C   UNL     1       7.473   4.358  13.879  0.00  0.00    +0.000 C 
ATOM     30  C   UNL     1       6.207   3.760  13.217  0.00  0.00    +0.000 C 
ATOM     31  C   UNL     1       6.906   4.009  11.853  0.00  0.00    +0.000 C 
ATOM     32  C   UNL     1       7.656   5.153  12.546  0.00  0.00    +0.000 C 
ENDBRANCH  26  29
ENDBRANCH  20  23
ENDBRANCH   6  20
BRANCH   7  33
ATOM     33  O   UNL     1       3.465   7.021  18.741  0.00  0.00    +0.000 OA
ATOM     34  H   UNL     1       2.985   7.357  17.972  0.00  0.00    +0.000 HD
ENDBRANCH   7  33
TORSDOF 6
ENDMDL
MODEL 3
REMARK VINA RESULT:      -7.8      3.941      7.492
REMARK  Name = 
REMARK  7 active torsions:
REMARK  status: ('A' for Active; 'I' for Inactive)
REMARK    1  A    between atoms: C_1  and  C_2
REMARK    2  A    between atoms: C_6  and  N_7
REMARK    3  A    between atoms: N_10  and  C_11
REMARK    4  A    between atoms: C_16  and  S_17
REMARK    5  A    between atoms: S_17  and  C_20
REMARK    6  A    between atoms: N_23  and  C_24
REMARK    7  A    between atoms: C_30  and  O_31
REMARK                            x       y       z     vdW  Elec       q    Type
REMARK                         _______ _______ _______ _____ _____    ______ ____
ROOT
ATOM      1  C   UNL     1       1.854   6.443  20.366  0.00  0.00    +0.000 A 
ATOM      2  C   UNL     1       1.103   5.387  20.878  0.00  0.00    +0.000 A 
ATOM      3  C   UNL     1       1.237   4.083  20.363  0.00  0.00    +0.000 A 
ATOM      4  C   UNL     1       2.194   3.771  19.392  0.00  0.00    +0.000 A 
ATOM      5 CL   UNL     1       2.181   2.122  18.877  0.00  0.00    +0.000 Cl
ATOM      6  C   UNL     1       3.035   4.780  18.893  0.00  0.00    +0.000 A 
ATOM      7  C   UNL     1       2.797   6.121  19.343  0.00  0.00    +0.000 A 
ENDROOT
BRANCH   1  11
ATOM      8  N   UNL     1       1.057  10.017  20.944  0.00  0.00    +0.000 N 
ATOM      9  C   UNL     1       1.223   8.866  20.181  0.00  0.00    +0.000 C 
ATOM     10  O   UNL     1       0.928   8.859  18.984  0.00  0.00    +0.000 OA
ATOM     11  N   UNL     1       1.698   7.773  20.903  0.00  0.00    +0.000 N 
ATOM     12  H   UNL     1       1.380  10.081  21.898  0.00  0.00    +0.000 HD
ATOM     13  H   UNL     1       1.766   7.927  21.891  0.00  0.00    +0.000 HD
BRANCH   8  19
ATOM     14  C   UNL     1      -0.827  12.373  22.230  0.00  0.00    +0.000 C 
ATOM     15  C   UNL     1       0.325  12.339  21.291  0.00  0.00    +0.000 C 
ATOM     16  C   UNL     1       1.180  13.351  21.100  0.00  0.00    +0.000 C 
ATOM     17  C   UNL     1       2.109  13.077  19.969  0.00  0.00    +0.000 C 
ATOM     18  C   UNL     1       1.494  11.854  19.290  0.00  0.00    +0.000 C 
ATOM     19  C   UNL     1       0.528  11.219  20.306  0.00  0.00    +0.000 C 
ENDBRANCH   8  19
ENDBRANCH   1  11
BRANCH   6  20
ATOM     20  S   UNL     1       4.689   4.327  18.204  0.00  0.00    +0.000 S 
ATOM     21  O   UNL     1       5.391   3.765  19.344  0.00  0.00    +0.000 OA
ATOM     22  O   UNL     1       4.481   3.445  17.070  0.00  0.00    +0.000 OA
BRANCH  20  23
ATOM     23  C   UNL     1       5.570   5.775  17.529  0.00  0.00    +0.000 C 
ATOM     24  C   UNL     1       5.066   6.312  16.146  0.00  0.00    +0.000 C 
ATOM     25  C   UNL     1       5.774   5.804  14.837  0.00  0.00    +0.000 C 
ATOM     26  N   UNL     1       7.170   5.321  14.971  0.00  0.00    +0.000 NA
ATOM     27  C   UNL     1       7.295   4.587  16.233  0.00  0.00    +0.000 C 
ATOM     28  C   UNL     1       7.054   5.562  17.373  0.00  0.00    +0.000 C 
BRANCH  26  29
ATOM     29  C   UNL     1       7.500   4.366  13.886  0.00  0.00    +0.000 C 
ATOM     30  C   UNL     1       6.236   3.749  13.238  0.00  0.00    +0.000 C 
ATOM     31  C   UNL     1       6.925   3.986  11.868  0.00  0.00    +0.000 C 
ATOM     32  C   UNL     1       7.670   5.145  12.542  0.00  0.00    +0.000 C 
ENDBRANCH  26  29
ENDBRANCH  20  23
ENDBRANCH   6  20
BRANCH   7  33
ATOM     33  O   UNL     1       3.521   7.133  18.775  0.00  0.00    +0.000 OA
ATOM     34  H   UNL     1       3.745   6.917  17.860  0.00  0.00    +0.000 HD
ENDBRANCH   7  33
TORSDOF 6
ENDMDL
MODEL 4
REMARK VINA RESULT:      -7.7      5.625      9.338
REMARK  Name = 
REMARK  7 active torsions:
REMARK  status: ('A' for Active; 'I' for Inactive)
REMARK    1  A    between atoms: C_1  and  C_2
REMARK    2  A    between atoms: C_6  and  N_7
REMARK    3  A    between atoms: N_10  and  C_11
REMARK    4  A    between atoms: C_16  and  S_17
REMARK    5  A    between atoms: S_17  and  C_20
REMARK    6  A    between atoms: N_23  and  C_24
REMARK    7  A    between atoms: C_30  and  O_31
REMARK                            x       y       z     vdW  Elec       q    Type
REMARK                         _______ _______ _______ _____ _____    ______ ____
ROOT
ATOM      1  C   UNL     1       1.000   9.224  20.227  0.00  0.00    +0.000 A 
ATOM      2  C   UNL     1       0.423   8.675  21.370  0.00  0.00    +0.000 A 
ATOM      3  C   UNL     1      -0.385   9.452  22.222  0.00  0.00    +0.000 A 
ATOM      4  C   UNL     1      -0.725  10.773  21.909  0.00  0.00    +0.000 A 
ATOM      5 CL   UNL     1      -1.705  11.560  23.095  0.00  0.00    +0.000 Cl
ATOM      6  C   UNL     1      -0.237  11.357  20.728  0.00  0.00    +0.000 A 
ATOM      7  C   UNL     1       0.681  10.587  19.941  0.00  0.00    +0.000 A 
ENDROOT
BRANCH   1  11
ATOM      8  N   UNL     1       2.953   6.499  18.644  0.00  0.00    +0.000 N 
ATOM      9  C   UNL     1       2.254   7.120  19.674  0.00  0.00    +0.000 C 
ATOM     10  O   UNL     1       2.029   6.523  20.729  0.00  0.00    +0.000 OA
ATOM     11  N   UNL     1       1.829   8.413  19.370  0.00  0.00    +0.000 N 
ATOM     12  H   UNL     1       3.235   6.994  17.812  0.00  0.00    +0.000 HD
ATOM     13  H   UNL     1       1.994   8.691  18.421  0.00  0.00    +0.000 HD
BRANCH   8  19
ATOM     14  C   UNL     1       1.342   3.692  18.119  0.00  0.00    +0.000 C 
ATOM     15  C   UNL     1       2.732   4.168  17.893  0.00  0.00    +0.000 C 
ATOM     16  C   UNL     1       3.563   3.677  16.966  0.00  0.00    +0.000 C 
ATOM     17  C   UNL     1       4.936   4.233  17.112  0.00  0.00    +0.000 C 
ATOM     18  C   UNL     1       4.900   4.924  18.474  0.00  0.00    +0.000 C 
ATOM     19  C   UNL     1       3.417   5.127  18.830  0.00  0.00    +0.000 C 
ENDBRANCH   8  19
ENDBRANCH   1  11
BRANCH   6  20
ATOM     20  S   UNL     1      -1.176  12.742  19.944  0.00  0.00    +0.000 S 
ATOM     21  O   UNL     1      -0.669  12.771  18.584  0.00  0.00    +0.000 OA
ATOM     22  O   UNL     1      -2.594  12.476  20.103  0.00  0.00    +0.000 OA
BRANCH  20  23
ATOM     23  C   UNL     1      -0.889  14.331  20.794  0.00  0.00    +0.000 C 
ATOM     24  C   UNL     1      -0.832  15.605  19.882  0.00  0.00    +0.000 C 
ATOM     25  C   UNL     1       0.570  16.107  19.376  0.00  0.00    +0.000 C 
ATOM     26  N   UNL     1       1.752  15.735  20.190  0.00  0.00    +0.000 NA
ATOM     27  C   UNL     1       1.571  14.368  20.685  0.00  0.00    +0.000 C 
ATOM     28  C   UNL     1       0.373  14.357  21.618  0.00  0.00    +0.000 C 
BRANCH  26  29
ATOM     29  C   UNL     1       2.980  15.730  19.358  0.00  0.00    +0.000 C 
ATOM     30  C   UNL     1       2.987  14.578  18.324  0.00  0.00    +0.000 C 
ATOM     31  C   UNL     1       3.506  15.617  17.294  0.00  0.00    +0.000 C 
ATOM     32  C   UNL     1       2.779  16.678  18.131  0.00  0.00    +0.000 C 
ENDBRANCH  26  29
ENDBRANCH  20  23
ENDBRANCH   6  20
BRANCH   7  33
ATOM     33  O   UNL     1       1.264  11.184  18.857  0.00  0.00    +0.000 OA
ATOM     34  H   UNL     1       1.020  12.118  18.812  0.00  0.00    +0.000 HD
ENDBRANCH   7  33
TORSDOF 6
ENDMDL
MODEL 5
REMARK VINA RESULT:      -7.7      5.854      9.298
REMARK  Name = 
REMARK  7 active torsions:
REMARK  status: ('A' for Active; 'I' for Inactive)
REMARK    1  A    between atoms: C_1  and  C_2
REMARK    2  A    between atoms: C_6  and  N_7
REMARK    3  A    between atoms: N_10  and  C_11
REMARK    4  A    between atoms: C_16  and  S_17
REMARK    5  A    between atoms: S_17  and  C_20
REMARK    6  A    between atoms: N_23  and  C_24
REMARK    7  A    between atoms: C_30  and  O_31
REMARK                            x       y       z     vdW  Elec       q    Type
REMARK                         _______ _______ _______ _____ _____    ______ ____
ROOT
ATOM      1  C   UNL     1       0.101  10.137  18.194  0.00  0.00    +0.000 A 
ATOM      2  C   UNL     1      -1.147  10.066  17.580  0.00  0.00    +0.000 A 
ATOM      3  C   UNL     1      -2.260  10.744  18.115  0.00  0.00    +0.000 A 
ATOM      4  C   UNL     1      -2.141  11.594  19.220  0.00  0.00    +0.000 A 
ATOM      5 CL   UNL     1      -3.626  12.312  19.735  0.00  0.00    +0.000 Cl
ATOM      6  C   UNL     1      -0.889  11.768  19.833  0.00  0.00    +0.000 A 
ATOM      7  C   UNL     1       0.201  10.974  19.348  0.00  0.00    +0.000 A 
ENDROOT
BRANCH   1  11
ATOM      8  N   UNL     1       2.931   7.838  17.521  0.00  0.00    +0.000 N 
ATOM      9  C   UNL     1       1.962   8.455  18.306  0.00  0.00    +0.000 C 
ATOM     10  O   UNL     1       1.788   8.108  19.477  0.00  0.00    +0.000 OA
ATOM     11  N   UNL     1       1.228   9.430  17.634  0.00  0.00    +0.000 N 
ATOM     12  H   UNL     1       3.161   8.166  16.596  0.00  0.00    +0.000 HD
ATOM     13  H   UNL     1       1.423   9.493  16.653  0.00  0.00    +0.000 HD
BRANCH   8  19
ATOM     14  C   UNL     1       2.033   4.800  18.367  0.00  0.00    +0.000 C 
ATOM     15  C   UNL     1       3.230   5.406  17.727  0.00  0.00    +0.000 C 
ATOM     16  C   UNL     1       4.064   4.758  16.905  0.00  0.00    +0.000 C 
ATOM     17  C   UNL     1       5.261   5.580  16.579  0.00  0.00    +0.000 C 
ATOM     18  C   UNL     1       5.185   6.735  17.576  0.00  0.00    +0.000 C 
ATOM     19  C   UNL     1       3.740   6.771  18.105  0.00  0.00    +0.000 C 
ENDBRANCH   8  19
ENDBRANCH   1  11
BRANCH   6  20
ATOM     20  S   UNL     1      -0.541  13.326  20.763  0.00  0.00    +0.000 S 
ATOM     21  O   UNL     1       0.825  13.648  20.391  0.00  0.00    +0.000 OA
ATOM     22  O   UNL     1      -1.557  14.301  20.411  0.00  0.00    +0.000 OA
BRANCH  20  23
ATOM     23  C   UNL     1      -0.702  13.098  22.567  0.00  0.00    +0.000 C 
ATOM     24  C   UNL     1      -1.689  11.977  23.039  0.00  0.00    +0.000 C 
ATOM     25  C   UNL     1      -3.171  12.374  23.386  0.00  0.00    +0.000 C 
ATOM     26  N   UNL     1      -3.413  13.781  23.787  0.00  0.00    +0.000 NA
ATOM     27  C   UNL     1      -2.566  14.656  22.972  0.00  0.00    +0.000 C 
ATOM     28  C   UNL     1      -1.115  14.348  23.301  0.00  0.00    +0.000 C 
BRANCH  26  29
ATOM     29  C   UNL     1      -4.818  14.169  23.511  0.00  0.00    +0.000 C 
ATOM     30  C   UNL     1      -4.968  14.926  22.168  0.00  0.00    +0.000 C 
ATOM     31  C   UNL     1      -6.220  14.046  21.908  0.00  0.00    +0.000 C 
ATOM     32  C   UNL     1      -5.552  12.989  22.796  0.00  0.00    +0.000 C 
ENDBRANCH  26  29
ENDBRANCH  20  23
ENDBRANCH   6  20
BRANCH   7  33
ATOM     33  O   UNL     1       1.395  11.035  20.013  0.00  0.00    +0.000 OA
ATOM     34  H   UNL     1       2.131  11.046  19.387  0.00  0.00    +0.000 HD
ENDBRANCH   7  33
TORSDOF 6
ENDMDL
MODEL 6
REMARK VINA RESULT:      -7.6      3.820      7.802
REMARK  Name = 
REMARK  7 active torsions:
REMARK  status: ('A' for Active; 'I' for Inactive)
REMARK    1  A    between atoms: C_1  and  C_2
REMARK    2  A    between atoms: C_6  and  N_7
REMARK    3  A    between atoms: N_10  and  C_11
REMARK    4  A    between atoms: C_16  and  S_17
REMARK    5  A    between atoms: S_17  and  C_20
REMARK    6  A    between atoms: N_23  and  C_24
REMARK    7  A    between atoms: C_30  and  O_31
REMARK                            x       y       z     vdW  Elec       q    Type
REMARK                         _______ _______ _______ _____ _____    ______ ____
ROOT
ATOM      1  C   UNL     1       1.818   7.314  20.162  0.00  0.00    +0.000 A 
ATOM      2  C   UNL     1       1.209   6.305  20.905  0.00  0.00    +0.000 A 
ATOM      3  C   UNL     1       1.541   4.951  20.702  0.00  0.00    +0.000 A 
ATOM      4  C   UNL     1       2.561   4.569  19.823  0.00  0.00    +0.000 A 
ATOM      5 CL   UNL     1       2.796   2.861  19.699  0.00  0.00    +0.000 Cl
ATOM      6  C   UNL     1       3.265   5.549  19.105  0.00  0.00    +0.000 A 
ATOM      7  C   UNL     1       2.827   6.908  19.236  0.00  0.00    +0.000 A 
ENDROOT
BRANCH   1  11
ATOM      8  N   UNL     1       0.640  10.816  19.856  0.00  0.00    +0.000 N 
ATOM      9  C   UNL     1       1.032   9.568  19.383  0.00  0.00    +0.000 C 
ATOM     10  O   UNL     1       0.956   9.300  18.182  0.00  0.00    +0.000 OA
ATOM     11  N   UNL     1       1.461   8.695  20.382  0.00  0.00    +0.000 N 
ATOM     12  H   UNL     1       0.782  11.096  20.814  0.00  0.00    +0.000 HD
ATOM     13  H   UNL     1       1.339   9.040  21.314  0.00  0.00    +0.000 HD
BRANCH   8  19
ATOM     14  C   UNL     1      -2.326  12.207  19.715  0.00  0.00    +0.000 C 
ATOM     15  C   UNL     1      -0.930  12.677  19.517  0.00  0.00    +0.000 C 
ATOM     16  C   UNL     1      -0.523  13.942  19.683  0.00  0.00    +0.000 C 
ATOM     17  C   UNL     1       0.883  14.128  19.233  0.00  0.00    +0.000 C 
ATOM     18  C   UNL     1       1.190  12.837  18.474  0.00  0.00    +0.000 C 
ATOM     19  C   UNL     1       0.134  11.805  18.908  0.00  0.00    +0.000 C 
ENDBRANCH   8  19
ENDBRANCH   1  11
BRANCH   6  20
ATOM     20  S   UNL     1       4.986   5.194  18.531  0.00  0.00    +0.000 S 
ATOM     21  O   UNL     1       5.757   5.172  19.761  0.00  0.00    +0.000 OA
ATOM     22  O   UNL     1       4.962   3.967  17.757  0.00  0.00    +0.000 OA
BRANCH  20  23
ATOM     23  C   UNL     1       5.602   6.472  17.384  0.00  0.00    +0.000 C 
ATOM     24  C   UNL     1       4.863   6.582  16.006  0.00  0.00    +0.000 C 
ATOM     25  C   UNL     1       5.446   5.799  14.773  0.00  0.00    +0.000 C 
ATOM     26  N   UNL     1       6.892   5.474  14.805  0.00  0.00    +0.000 NA
ATOM     27  C   UNL     1       7.264   5.113  16.176  0.00  0.00    +0.000 C 
ATOM     28  C   UNL     1       7.067   6.336  17.056  0.00  0.00    +0.000 C 
BRANCH  26  29
ATOM     29  C   UNL     1       7.182   4.291  13.958  0.00  0.00    +0.000 C 
ATOM     30  C   UNL     1       5.898   3.658  13.369  0.00  0.00    +0.000 C 
ATOM     31  C   UNL     1       6.667   3.551  12.026  0.00  0.00    +0.000 C 
ATOM     32  C   UNL     1       7.484   4.760  12.498  0.00  0.00    +0.000 C 
ENDBRANCH  26  29
ENDBRANCH  20  23
ENDBRANCH   6  20
BRANCH   7  33
ATOM     33  O   UNL     1       3.417   7.858  18.449  0.00  0.00    +0.000 OA
ATOM     34  H   UNL     1       2.748   8.348  17.952  0.00  0.00    +0.000 HD
ENDBRANCH   7  33
TORSDOF 6
ENDMDL
MODEL 7
REMARK VINA RESULT:      -7.5      5.065      8.892
REMARK  Name = 
REMARK  7 active torsions:
REMARK  status: ('A' for Active; 'I' for Inactive)
REMARK    1  A    between atoms: C_1  and  C_2
REMARK    2  A    between atoms: C_6  and  N_7
REMARK    3  A    between atoms: N_10  and  C_11
REMARK    4  A    between atoms: C_16  and  S_17
REMARK    5  A    between atoms: S_17  and  C_20
REMARK    6  A    between atoms: N_23  and  C_24
REMARK    7  A    between atoms: C_30  and  O_31
REMARK                            x       y       z     vdW  Elec       q    Type
REMARK                         _______ _______ _______ _____ _____    ______ ____
ROOT
ATOM      1  C   UNL     1       8.480  10.551  18.172  0.00  0.00    +0.000 A 
ATOM      2  C   UNL     1       9.231  10.223  19.298  0.00  0.00    +0.000 A 
ATOM      3  C   UNL     1       9.966  11.203  19.993  0.00  0.00    +0.000 A 
ATOM      4  C   UNL     1       9.895  12.557  19.646  0.00  0.00    +0.000 A 
ATOM      5 CL   UNL     1      10.890  13.594  20.606  0.00  0.00    +0.000 Cl
ATOM      6  C   UNL     1       9.091  12.959  18.567  0.00  0.00    +0.000 A 
ATOM      7  C   UNL     1       8.450  11.930  17.801  0.00  0.00    +0.000 A 
ENDROOT
BRANCH   1  11
ATOM      8  N   UNL     1       6.901   7.397  17.030  0.00  0.00    +0.000 N 
ATOM      9  C   UNL     1       7.787   8.170  17.772  0.00  0.00    +0.000 C 
ATOM     10  O   UNL     1       8.505   7.653  18.631  0.00  0.00    +0.000 OA
ATOM     11  N   UNL     1       7.738   9.531  17.471  0.00  0.00    +0.000 N 
ATOM     12  H   UNL     1       6.374   7.775  16.258  0.00  0.00    +0.000 HD
ATOM     13  H   UNL     1       7.009   9.789  16.834  0.00  0.00    +0.000 HD
BRANCH   8  19
ATOM     14  C   UNL     1       4.844   5.743  18.976  0.00  0.00    +0.000 C 
ATOM     15  C   UNL     1       5.438   5.515  17.633  0.00  0.00    +0.000 C 
ATOM     16  C   UNL     1       4.889   4.755  16.677  0.00  0.00    +0.000 C 
ATOM     17  C   UNL     1       5.810   4.577  15.522  0.00  0.00    +0.000 C 
ATOM     18  C   UNL     1       7.146   5.101  16.045  0.00  0.00    +0.000 C 
ATOM     19  C   UNL     1       6.833   5.960  17.283  0.00  0.00    +0.000 C 
ENDBRANCH   8  19
ENDBRANCH   1  11
BRANCH   6  20
ATOM     20  S   UNL     1       8.423  14.681  18.524  0.00  0.00    +0.000 S 
ATOM     21  O   UNL     1       9.508  15.453  17.947  0.00  0.00    +0.000 OA
ATOM     22  O   UNL     1       7.173  14.665  17.787  0.00  0.00    +0.000 OA
BRANCH  20  23
ATOM     23  C   UNL     1       7.989  15.289  20.189  0.00  0.00    +0.000 C 
ATOM     24  C   UNL     1       6.829  14.533  20.924  0.00  0.00    +0.000 C 
ATOM     25  C   UNL     1       5.366  15.095  20.800  0.00  0.00    +0.000 C 
ATOM     26  N   UNL     1       5.223  16.540  20.500  0.00  0.00    +0.000 NA
ATOM     27  C   UNL     1       6.266  16.928  19.546  0.00  0.00    +0.000 C 
ATOM     28  C   UNL     1       7.615  16.749  20.221  0.00  0.00    +0.000 C 
BRANCH  26  29
ATOM     29  C   UNL     1       3.921  16.813  19.844  0.00  0.00    +0.000 C 
ATOM     30  C   UNL     1       3.973  16.586  18.313  0.00  0.00    +0.000 C 
ATOM     31  C   UNL     1       2.606  15.865  18.458  0.00  0.00    +0.000 C 
ATOM     32  C   UNL     1       3.037  15.525  19.890  0.00  0.00    +0.000 C 
ENDBRANCH  26  29
ENDBRANCH  20  23
ENDBRANCH   6  20
BRANCH   7  33
ATOM     33  O   UNL     1       7.767  12.292  16.673  0.00  0.00    +0.000 OA
ATOM     34  H   UNL     1       7.037  11.681  16.509  0.00  0.00    +0.000 HD
ENDBRANCH   7  33
TORSDOF 6
ENDMDL
MODEL 8
REMARK VINA RESULT:      -7.5      4.454      8.457
REMARK  Name = 
REMARK  7 active torsions:
REMARK  status: ('A' for Active; 'I' for Inactive)
REMARK    1  A    between atoms: C_1  and  C_2
REMARK    2  A    between atoms: C_6  and  N_7
REMARK    3  A    between atoms: N_10  and  C_11
REMARK    4  A    between atoms: C_16  and  S_17
REMARK    5  A    between atoms: S_17  and  C_20
REMARK    6  A    between atoms: N_23  and  C_24
REMARK    7  A    between atoms: C_30  and  O_31
REMARK                            x       y       z     vdW  Elec       q    Type
REMARK                         _______ _______ _______ _____ _____    ______ ____
ROOT
ATOM      1  C   UNL     1       1.073   9.136  20.053  0.00  0.00    +0.000 A 
ATOM      2  C   UNL     1       1.293   9.761  18.828  0.00  0.00    +0.000 A 
ATOM      3  C   UNL     1       2.123   9.177  17.852  0.00  0.00    +0.000 A 
ATOM      4  C   UNL     1       2.679   7.905  18.027  0.00  0.00    +0.000 A 
ATOM      5 CL   UNL     1       3.686   7.379  16.724  0.00  0.00    +0.000 Cl
ATOM      6  C   UNL     1       2.427   7.191  19.210  0.00  0.00    +0.000 A 
ATOM      7  C   UNL     1       1.682   7.856  20.238  0.00  0.00    +0.000 A 
ENDROOT
BRANCH   1  11
ATOM      8  N   UNL     1      -1.132  11.401  21.991  0.00  0.00    +0.000 N 
ATOM      9  C   UNL     1      -0.238  11.068  20.979  0.00  0.00    +0.000 C 
ATOM     10  O   UNL     1       0.060  11.889  20.109  0.00  0.00    +0.000 OA
ATOM     11  N   UNL     1       0.223   9.753  21.043  0.00  0.00    +0.000 N 
ATOM     12  H   UNL     1      -1.318  10.785  22.767  0.00  0.00    +0.000 HD
ATOM     13  H   UNL     1      -0.220   9.192  21.745  0.00  0.00    +0.000 HD
BRANCH   8  19
ATOM     14  C   UNL     1      -3.508  12.638  20.100  0.00  0.00    +0.000 C 
ATOM     15  C   UNL     1      -3.144  12.739  21.538  0.00  0.00    +0.000 C 
ATOM     16  C   UNL     1      -4.007  13.013  22.524  0.00  0.00    +0.000 C 
ATOM     17  C   UNL     1      -3.308  13.227  23.820  0.00  0.00    +0.000 C 
ATOM     18  C   UNL     1      -1.838  13.340  23.419  0.00  0.00    +0.000 C 
ATOM     19  C   UNL     1      -1.714  12.740  22.008  0.00  0.00    +0.000 C 
ENDBRANCH   8  19
ENDBRANCH   1  11
BRANCH   6  20
ATOM     20  S   UNL     1       2.516   5.345  19.194  0.00  0.00    +0.000 S 
ATOM     21  O   UNL     1       1.485   4.946  20.135  0.00  0.00    +0.000 OA
ATOM     22  O   UNL     1       2.354   4.895  17.824  0.00  0.00    +0.000 OA
BRANCH  20  23
ATOM     23  C   UNL     1       4.156   4.734  19.708  0.00  0.00    +0.000 C 
ATOM     24  C   UNL     1       5.386   5.616  19.299  0.00  0.00    +0.000 C 
ATOM     25  C   UNL     1       6.147   5.275  17.966  0.00  0.00    +0.000 C 
ATOM     26  N   UNL     1       6.050   3.880  17.473  0.00  0.00    +0.000 NA
ATOM     27  C   UNL     1       4.690   3.389  17.715  0.00  0.00    +0.000 C 
ATOM     28  C   UNL     1       4.465   3.342  19.217  0.00  0.00    +0.000 C 
BRANCH  26  29
ATOM     29  C   UNL     1       6.269   3.826  16.007  0.00  0.00    +0.000 C 
ATOM     30  C   UNL     1       5.065   4.383  15.209  0.00  0.00    +0.000 C 
ATOM     31  C   UNL     1       6.101   5.122  14.322  0.00  0.00    +0.000 C 
ATOM     32  C   UNL     1       7.024   5.115  15.547  0.00  0.00    +0.000 C 
ENDBRANCH  26  29
ENDBRANCH  20  23
ENDBRANCH   6  20
BRANCH   7  33
ATOM     33  O   UNL     1       1.535   7.227  21.443  0.00  0.00    +0.000 OA
ATOM     34  H   UNL     1       0.755   6.657  21.435  0.00  0.00    +0.000 HD
ENDBRANCH   7  33
TORSDOF 6
ENDMDL
MODEL 9
REMARK VINA RESULT:      -7.5      5.475      8.133
REMARK  Name = 
REMARK  7 active torsions:
REMARK  status: ('A' for Active; 'I' for Inactive)
REMARK    1  A    between atoms: C_1  and  C_2
REMARK    2  A    between atoms: C_6  and  N_7
REMARK    3  A    between atoms: N_10  and  C_11
REMARK    4  A    between atoms: C_16  and  S_17
REMARK    5  A    between atoms: S_17  and  C_20
REMARK    6  A    between atoms: N_23  and  C_24
REMARK    7  A    between atoms: C_30  and  O_31
REMARK                            x       y       z     vdW  Elec       q    Type
REMARK                         _______ _______ _______ _____ _____    ______ ____
ROOT
ATOM      1  C   UNL     1       2.126   8.418  18.816  0.00  0.00    +0.000 A 
ATOM      2  C   UNL     1       1.874   7.772  20.024  0.00  0.00    +0.000 A 
ATOM      3  C   UNL     1       0.965   8.308  20.958  0.00  0.00    +0.000 A 
ATOM      4  C   UNL     1       0.207   9.448  20.674  0.00  0.00    +0.000 A 
ATOM      5 CL   UNL     1      -0.831   9.956  21.959  0.00  0.00    +0.000 Cl
ATOM      6  C   UNL     1       0.361  10.098  19.438  0.00  0.00    +0.000 A 
ATOM      7  C   UNL     1       1.378   9.606  18.556  0.00  0.00    +0.000 A 
ENDROOT
BRANCH   1  11
ATOM      8  N   UNL     1       4.653   6.356  17.052  0.00  0.00    +0.000 N 
ATOM      9  C   UNL     1       3.920   6.790  18.152  0.00  0.00    +0.000 C 
ATOM     10  O   UNL     1       4.031   6.226  19.243  0.00  0.00    +0.000 OA
ATOM     11  N   UNL     1       3.065   7.856  17.875  0.00  0.00    +0.000 N 
ATOM     12  H   UNL     1       4.657   6.856  16.177  0.00  0.00    +0.000 HD
ATOM     13  H   UNL     1       3.015   8.106  16.906  0.00  0.00    +0.000 HD
BRANCH   8  19
ATOM     14  C   UNL     1       3.961   3.151  16.995  0.00  0.00    +0.000 C 
ATOM     15  C   UNL     1       5.063   4.001  16.475  0.00  0.00    +0.000 C 
ATOM     16  C   UNL     1       5.835   3.689  15.425  0.00  0.00    +0.000 C 
ATOM     17  C   UNL     1       6.961   4.649  15.269  0.00  0.00    +0.000 C 
ATOM     18  C   UNL     1       6.941   5.440  16.576  0.00  0.00    +0.000 C 
ATOM     19  C   UNL     1       5.557   5.219  17.209  0.00  0.00    +0.000 C 
ENDBRANCH   8  19
ENDBRANCH   1  11
BRANCH   6  20
ATOM     20  S   UNL     1      -1.036  11.098  18.757  0.00  0.00    +0.000 S 
ATOM     21  O   UNL     1      -1.876  11.345  19.915  0.00  0.00    +0.000 OA
ATOM     22  O   UNL     1      -0.479  12.265  18.097  0.00  0.00    +0.000 OA
BRANCH  20  23
ATOM     23  C   UNL     1      -1.948  10.202  17.455  0.00  0.00    +0.000 C 
ATOM     24  C   UNL     1      -2.454  11.062  16.245  0.00  0.00    +0.000 C 
ATOM     25  C   UNL     1      -3.918  11.632  16.287  0.00  0.00    +0.000 C 
ATOM     26  N   UNL     1      -4.899  10.910  17.132  0.00  0.00    +0.000 NA
ATOM     27  C   UNL     1      -4.226  10.462  18.355  0.00  0.00    +0.000 C 
ATOM     28  C   UNL     1      -3.155   9.457  17.965  0.00  0.00    +0.000 C 
BRANCH  26  29
ATOM     29  C   UNL     1      -5.994  11.816  17.555  0.00  0.00    +0.000 C 
ATOM     30  C   UNL     1      -6.965  11.142  18.555  0.00  0.00    +0.000 C 
ATOM     31  C   UNL     1      -6.917  12.465  19.365  0.00  0.00    +0.000 C 
ATOM     32  C   UNL     1      -5.518  12.675  18.771  0.00  0.00    +0.000 C 
ENDBRANCH  26  29
ENDBRANCH  20  23
ENDBRANCH   6  20
BRANCH   7  33
ATOM     33  O   UNL     1       1.629  10.301  17.405  0.00  0.00    +0.000 OA
ATOM     34  H   UNL     1       1.358  11.224  17.501  0.00  0.00    +0.000 HD
ENDBRANCH   7  33
TORSDOF 6
ENDMDL
