MODEL 1
REMARK VINA RESULT:      -7.5      0.000      0.000
REMARK  Name = 
REMARK  9 active torsions:
REMARK  status: ('A' for Active; 'I' for Inactive)
REMARK    1  A    between atoms: C_1  and  C_2
REMARK    2  A    between atoms: C_2  and  C_3
REMARK    3  A    between atoms: C_2  and  O_4
REMARK    4  A    between atoms: O_4  and  C_5
REMARK    5  A    between atoms: C_5  and  C_6
REMARK    6  A    between atoms: C_6  and  C_7
REMARK    7  A    between atoms: C_7  and  N_8
REMARK    8  A    between atoms: C_9  and  C_11
REMARK    9  A    between atoms: C_14  and  N_15
REMARK                            x       y       z     vdW  Elec       q    Type
REMARK                         _______ _______ _______ _____ _____    ______ ____
ROOT
ATOM      1  C   UNL     1       2.607   7.449  18.574  0.00  0.00    +0.000 A 
ATOM      2  C   UNL     1       2.090   8.544  17.878  0.00  0.00    +0.000 A 
ATOM      3  C   UNL     1       1.270   9.473  18.533  0.00  0.00    +0.000 A 
ATOM      4  C   UNL     1       0.936   9.314  19.881  0.00  0.00    +0.000 A 
ATOM      5  C   UNL     1       1.477   8.232  20.584  0.00  0.00    +0.000 A 
ATOM      6  C   UNL     1       2.295   7.295  19.932  0.00  0.00    +0.000 A 
ENDROOT
BRANCH   4   7
ATOM      7  N   UNL     1       0.073  10.204  20.566  0.00  0.00    +0.000 N 
ATOM      8  C   UNL     1       0.444  11.428  21.085  0.00  0.00    +0.000 C 
ATOM      9  O   UNL     1       1.545  11.949  20.926  0.00  0.00    +0.000 OA
ATOM     10  N   UNL     1      -0.531  12.079  21.802  0.00  0.00    +0.000 N 
ATOM     11  C   UNL     1      -0.250  13.420  22.317  0.00  0.00    +0.000 C 
ATOM     12  C   UNL     1      -1.442  13.732  23.156  0.00  0.00    +0.000 A 
ATOM     13  C   UNL     1      -1.737  14.883  23.859  0.00  0.00    +0.000 A 
ATOM     14  C   UNL     1      -2.924  14.878  24.575  0.00  0.00    +0.000 A 
ATOM     15  N   UNL     1      -3.789  13.829  24.623  0.00  0.00    +0.000 NA
ATOM     16  C   UNL     1      -3.463  12.719  23.919  0.00  0.00    +0.000 A 
ATOM     17  C   UNL     1      -2.309  12.640  23.180  0.00  0.00    +0.000 A 
ATOM     18  C   UNL     1      -1.772  11.525  22.351  0.00  0.00    +0.000 C 
ATOM     19  H   UNL     1      -0.917  10.079  20.405  0.00  0.00    +0.000 HD
ENDBRANCH   4   7
BRANCH   1  21
ATOM     20  N   UNL     1       2.859   5.187  17.692  0.00  0.00    +0.000 N 
ATOM     21  C   UNL     1       3.448   6.418  17.903  0.00  0.00    +0.000 C 
ATOM     22  O   UNL     1       4.588   6.699  17.550  0.00  0.00    +0.000 OA
ATOM     23  H   UNL     1       1.880   5.058  17.907  0.00  0.00    +0.000 HD
BRANCH  20  24
ATOM     24  C   UNL     1       3.557   4.095  17.032  0.00  0.00    +0.000 C 
BRANCH  24  25
ATOM     25  C   UNL     1       3.515   2.816  17.863  0.00  0.00    +0.000 C 
BRANCH  25  26
ATOM     26  C   UNL     1       4.199   2.983  19.218  0.00  0.00    +0.000 C 
BRANCH  26  27
ATOM     27  O   UNL     1       3.329   3.664  20.120  0.00  0.00    +0.000 OA
BRANCH  27  29
ATOM     28  C   UNL     1       2.103   2.475  21.775  0.00  0.00    +0.000 C 
ATOM     29  C   UNL     1       2.077   3.007  20.345  0.00  0.00    +0.000 C 
ATOM     30  C   UNL     1       0.897   3.959  20.170  0.00  0.00    +0.000 C 
ENDBRANCH  27  29
ENDBRANCH  26  27
ENDBRANCH  25  26
ENDBRANCH  24  25
ENDBRANCH  20  24
ENDBRANCH   1  21
TORSDOF 7
ENDMDL
MODEL 2
REMARK VINA RESULT:      -7.4      0.458      1.019
REMARK  Name = 
REMARK  9 active torsions:
REMARK  status: ('A' for Active; 'I' for Inactive)
REMARK    1  A    between atoms: C_1  and  C_2
REMARK    2  A    between atoms: C_2  and  C_3
REMARK    3  A    between atoms: C_2  and  O_4
REMARK    4  A    between atoms: O_4  and  C_5
REMARK    5  A    between atoms: C_5  and  C_6
REMARK    6  A    between atoms: C_6  and  C_7
REMARK    7  A    between atoms: C_7  and  N_8
REMARK    8  A    between atoms: C_9  and  C_11
REMARK    9  A    between atoms: C_14  and  N_15
REMARK                            x       y       z     vdW  Elec       q    Type
REMARK                         _______ _______ _______ _____ _____    ______ ____
ROOT
ATOM      1  C   UNL     1       2.570   7.507  18.561  0.00  0.00    +0.000 A 
ATOM      2  C   UNL     1       2.276   7.286  19.908  0.00  0.00    +0.000 A 
ATOM      3  C   UNL     1       1.422   8.157  20.597  0.00  0.00    +0.000 A 
ATOM      4  C   UNL     1       0.866   9.272  19.962  0.00  0.00    +0.000 A 
ATOM      5  C   UNL     1       1.138   9.477  18.605  0.00  0.00    +0.000 A 
ATOM      6  C   UNL     1       1.998   8.610  17.911  0.00  0.00    +0.000 A 
ENDROOT
BRANCH   4   7
ATOM      7  N   UNL     1       0.036  10.202  20.635  0.00  0.00    +0.000 N 
ATOM      8  C   UNL     1       0.450  11.422  21.129  0.00  0.00    +0.000 C 
ATOM      9  O   UNL     1       1.567  11.903  20.955  0.00  0.00    +0.000 OA
ATOM     10  N   UNL     1      -0.499  12.118  21.839  0.00  0.00    +0.000 N 
ATOM     11  C   UNL     1      -0.171  13.458  22.327  0.00  0.00    +0.000 C 
ATOM     12  C   UNL     1      -1.347  13.825  23.166  0.00  0.00    +0.000 A 
ATOM     13  C   UNL     1      -1.600  14.997  23.849  0.00  0.00    +0.000 A 
ATOM     14  C   UNL     1      -2.783  15.046  24.571  0.00  0.00    +0.000 A 
ATOM     15  N   UNL     1      -3.681  14.027  24.643  0.00  0.00    +0.000 NA
ATOM     16  C   UNL     1      -3.396  12.893  23.958  0.00  0.00    +0.000 A 
ATOM     17  C   UNL     1      -2.249  12.763  23.215  0.00  0.00    +0.000 A 
ATOM     18  C   UNL     1      -1.755  11.615  22.404  0.00  0.00    +0.000 C 
ATOM     19  H   UNL     1      -0.958  10.106  20.482  0.00  0.00    +0.000 HD
ENDBRANCH   4   7
BRANCH   1  21
ATOM     20  N   UNL     1       3.181   5.285  17.758  0.00  0.00    +0.000 N 
ATOM     21  C   UNL     1       3.505   6.627  17.806  0.00  0.00    +0.000 C 
ATOM     22  O   UNL     1       4.484   7.113  17.251  0.00  0.00    +0.000 OA
ATOM     23  H   UNL     1       2.302   4.969  18.143  0.00  0.00    +0.000 HD
BRANCH  20  24
ATOM     24  C   UNL     1       3.994   4.314  17.042  0.00  0.00    +0.000 C 
BRANCH  24  25
ATOM     25  C   UNL     1       4.122   3.005  17.815  0.00  0.00    +0.000 C 
BRANCH  25  26
ATOM     26  C   UNL     1       3.530   3.103  19.220  0.00  0.00    +0.000 C 
BRANCH  26  27
ATOM     27  O   UNL     1       2.276   2.427  19.266  0.00  0.00    +0.000 OA
BRANCH  27  29
ATOM     28  C   UNL     1       2.413   2.693  21.625  0.00  0.00    +0.000 C 
ATOM     29  C   UNL     1       1.481   2.728  20.417  0.00  0.00    +0.000 C 
ATOM     30  C   UNL     1       0.825   4.101  20.310  0.00  0.00    +0.000 C 
ENDBRANCH  27  29
ENDBRANCH  26  27
ENDBRANCH  25  26
ENDBRANCH  24  25
ENDBRANCH  20  24
ENDBRANCH   1  21
TORSDOF 7
ENDMDL
MODEL 3
REMARK VINA RESULT:      -7.2      1.353      1.779
REMARK  Name = 
REMARK  9 active torsions:
REMARK  status: ('A' for Active; 'I' for Inactive)
REMARK    1  A    between atoms: C_1  and  C_2
REMARK    2  A    between atoms: C_2  and  C_3
REMARK    3  A    between atoms: C_2  and  O_4
REMARK    4  A    between atoms: O_4  and  C_5
REMARK    5  A    between atoms: C_5  and  C_6
REMARK    6  A    between atoms: C_6  and  C_7
REMARK    7  A    between atoms: C_7  and  N_8
REMARK    8  A    between atoms: C_9  and  C_11
REMARK    9  A    between atoms: C_14  and  N_15
REMARK                            x       y       z     vdW  Elec       q    Type
REMARK                         _______ _______ _______ _____ _____    ______ ____
ROOT
ATOM      1  C   UNL     1       2.860   7.147  18.501  0.00  0.00    +0.000 A 
ATOM      2  C   UNL     1       2.356   6.995  19.794  0.00  0.00    +0.000 A 
ATOM      3  C   UNL     1       1.510   7.969  20.341  0.00  0.00    +0.000 A 
ATOM      4  C   UNL     1       1.170   9.115  19.617  0.00  0.00    +0.000 A 
ATOM      5  C   UNL     1       1.652   9.252  18.311  0.00  0.00    +0.000 A 
ATOM      6  C   UNL     1       2.506   8.283  17.760  0.00  0.00    +0.000 A 
ENDROOT
BRANCH   4   7
ATOM      7  N   UNL     1       0.356  10.144  20.150  0.00  0.00    +0.000 N 
ATOM      8  C   UNL     1      -0.147  10.174  21.435  0.00  0.00    +0.000 C 
ATOM      9  O   UNL     1       0.136   9.363  22.314  0.00  0.00    +0.000 OA
ATOM     10  N   UNL     1      -1.000  11.216  21.706  0.00  0.00    +0.000 N 
ATOM     11  C   UNL     1      -1.513  11.371  23.068  0.00  0.00    +0.000 C 
ATOM     12  C   UNL     1      -2.505  12.477  22.947  0.00  0.00    +0.000 A 
ATOM     13  C   UNL     1      -3.272  13.072  23.928  0.00  0.00    +0.000 A 
ATOM     14  C   UNL     1      -4.133  14.076  23.512  0.00  0.00    +0.000 A 
ATOM     15  N   UNL     1      -4.260  14.493  22.223  0.00  0.00    +0.000 NA
ATOM     16  C   UNL     1      -3.490  13.884  21.291  0.00  0.00    +0.000 A 
ATOM     17  C   UNL     1      -2.607  12.884  21.618  0.00  0.00    +0.000 A 
ATOM     18  C   UNL     1      -1.686  12.094  20.754  0.00  0.00    +0.000 C 
ATOM     19  H   UNL     1       0.393  11.035  19.674  0.00  0.00    +0.000 HD
ENDBRANCH   4   7
BRANCH   1  21
ATOM     20  N   UNL     1       3.826   4.905  18.491  0.00  0.00    +0.000 N 
ATOM     21  C   UNL     1       3.796   6.154  17.901  0.00  0.00    +0.000 C 
ATOM     22  O   UNL     1       4.465   6.463  16.921  0.00  0.00    +0.000 OA
ATOM     23  H   UNL     1       3.169   4.683  19.225  0.00  0.00    +0.000 HD
BRANCH  20  24
ATOM     24  C   UNL     1       4.679   3.835  17.998  0.00  0.00    +0.000 C 
BRANCH  24  25
ATOM     25  C   UNL     1       3.865   2.617  17.571  0.00  0.00    +0.000 C 
BRANCH  25  26
ATOM     26  C   UNL     1       2.517   2.542  18.284  0.00  0.00    +0.000 C 
BRANCH  26  27
ATOM     27  O   UNL     1       2.715   2.267  19.669  0.00  0.00    +0.000 OA
BRANCH  27  29
ATOM     28  C   UNL     1       2.232   3.308  21.751  0.00  0.00    +0.000 C 
ATOM     29  C   UNL     1       1.626   2.654  20.513  0.00  0.00    +0.000 C 
ATOM     30  C   UNL     1       0.688   3.635  19.816  0.00  0.00    +0.000 C 
ENDBRANCH  27  29
ENDBRANCH  26  27
ENDBRANCH  25  26
ENDBRANCH  24  25
ENDBRANCH  20  24
ENDBRANCH   1  21
TORSDOF 7
ENDMDL
MODEL 4
REMARK VINA RESULT:      -7.1      1.279      1.457
REMARK  Name = 
REMARK  9 active torsions:
REMARK  status: ('A' for Active; 'I' for Inactive)
REMARK    1  A    between atoms: C_1  and  C_2
REMARK    2  A    between atoms: C_2  and  C_3
REMARK    3  A    between atoms: C_2  and  O_4
REMARK    4  A    between atoms: O_4  and  C_5
REMARK    5  A    between atoms: C_5  and  C_6
REMARK    6  A    between atoms: C_6  and  C_7
REMARK    7  A    between atoms: C_7  and  N_8
REMARK    8  A    between atoms: C_9  and  C_11
REMARK    9  A    between atoms: C_14  and  N_15
REMARK                            x       y       z     vdW  Elec       q    Type
REMARK                         _______ _______ _______ _____ _____    ______ ____
ROOT
ATOM      1  C   UNL     1       2.820   7.205  18.319  0.00  0.00    +0.000 A 
ATOM      2  C   UNL     1       2.486   8.430  17.737  0.00  0.00    +0.000 A 
ATOM      3  C   UNL     1       1.736   9.371  18.454  0.00  0.00    +0.000 A 
ATOM      4  C   UNL     1       1.290   9.099  19.751  0.00  0.00    +0.000 A 
ATOM      5  C   UNL     1       1.650   7.883  20.344  0.00  0.00    +0.000 A 
ATOM      6  C   UNL     1       2.397   6.934  19.628  0.00  0.00    +0.000 A 
ENDROOT
BRANCH   4   7
ATOM      7  N   UNL     1       0.491  10.004  20.492  0.00  0.00    +0.000 N 
ATOM      8  C   UNL     1      -0.594  10.696  19.993  0.00  0.00    +0.000 C 
ATOM      9  O   UNL     1      -1.069  10.535  18.871  0.00  0.00    +0.000 OA
ATOM     10  N   UNL     1      -1.160  11.600  20.860  0.00  0.00    +0.000 N 
ATOM     11  C   UNL     1      -2.366  12.317  20.442  0.00  0.00    +0.000 C 
ATOM     12  C   UNL     1      -2.590  13.298  21.541  0.00  0.00    +0.000 A 
ATOM     13  C   UNL     1      -3.609  14.217  21.696  0.00  0.00    +0.000 A 
ATOM     14  C   UNL     1      -3.545  15.023  22.823  0.00  0.00    +0.000 A 
ATOM     15  N   UNL     1      -2.557  14.960  23.756  0.00  0.00    +0.000 NA
ATOM     16  C   UNL     1      -1.576  14.046  23.567  0.00  0.00    +0.000 A 
ATOM     17  C   UNL     1      -1.565  13.205  22.482  0.00  0.00    +0.000 A 
ATOM     18  C   UNL     1      -0.590  12.148  22.094  0.00  0.00    +0.000 C 
ATOM     19  H   UNL     1       0.526   9.911  21.498  0.00  0.00    +0.000 HD
ENDBRANCH   4   7
BRANCH   1  21
ATOM     20  N   UNL     1       3.240   4.850  17.835  0.00  0.00    +0.000 N 
ATOM     21  C   UNL     1       3.581   6.163  17.574  0.00  0.00    +0.000 C 
ATOM     22  O   UNL     1       4.437   6.497  16.763  0.00  0.00    +0.000 OA
ATOM     23  H   UNL     1       2.450   4.648  18.431  0.00  0.00    +0.000 HD
BRANCH  20  24
ATOM     24  C   UNL     1       3.888   3.732  17.167  0.00  0.00    +0.000 C 
BRANCH  24  25
ATOM     25  C   UNL     1       3.467   2.394  17.769  0.00  0.00    +0.000 C 
BRANCH  25  26
ATOM     26  C   UNL     1       3.915   2.247  19.221  0.00  0.00    +0.000 C 
BRANCH  26  27
ATOM     27  O   UNL     1       3.168   3.133  20.052  0.00  0.00    +0.000 OA
BRANCH  27  29
ATOM     28  C   UNL     1       1.805   2.515  21.900  0.00  0.00    +0.000 C 
ATOM     29  C   UNL     1       1.855   2.671  20.382  0.00  0.00    +0.000 C 
ATOM     30  C   UNL     1       0.777   3.651  19.928  0.00  0.00    +0.000 C 
ENDBRANCH  27  29
ENDBRANCH  26  27
ENDBRANCH  25  26
ENDBRANCH  24  25
ENDBRANCH  20  24
ENDBRANCH   1  21
TORSDOF 7
ENDMDL
MODEL 5
REMARK VINA RESULT:      -7.1      1.401      1.868
REMARK  Name = 
REMARK  9 active torsions:
REMARK  status: ('A' for Active; 'I' for Inactive)
REMARK    1  A    between atoms: C_1  and  C_2
REMARK    2  A    between atoms: C_2  and  C_3
REMARK    3  A    between atoms: C_2  and  O_4
REMARK    4  A    between atoms: O_4  and  C_5
REMARK    5  A    between atoms: C_5  and  C_6
REMARK    6  A    between atoms: C_6  and  C_7
REMARK    7  A    between atoms: C_7  and  N_8
REMARK    8  A    between atoms: C_9  and  C_11
REMARK    9  A    between atoms: C_14  and  N_15
REMARK                            x       y       z     vdW  Elec       q    Type
REMARK                         _______ _______ _______ _____ _____    ______ ____
ROOT
ATOM      1  C   UNL     1       2.804   7.010  18.421  0.00  0.00    +0.000 A 
ATOM      2  C   UNL     1       2.393   6.744  19.729  0.00  0.00    +0.000 A 
ATOM      3  C   UNL     1       1.634   7.685  20.436  0.00  0.00    +0.000 A 
ATOM      4  C   UNL     1       1.291   8.912  19.861  0.00  0.00    +0.000 A 
ATOM      5  C   UNL     1       1.679   9.166  18.541  0.00  0.00    +0.000 A 
ATOM      6  C   UNL     1       2.445   8.229  17.829  0.00  0.00    +0.000 A 
ENDROOT
BRANCH   4   7
ATOM      7  N   UNL     1       0.565   9.908  20.559  0.00  0.00    +0.000 N 
ATOM      8  C   UNL     1      -0.557  10.553  20.081  0.00  0.00    +0.000 C 
ATOM      9  O   UNL     1      -1.133  10.269  19.033  0.00  0.00    +0.000 OA
ATOM     10  N   UNL     1      -1.040  11.560  20.883  0.00  0.00    +0.000 N 
ATOM     11  C   UNL     1      -2.275  12.241  20.493  0.00  0.00    +0.000 C 
ATOM     12  C   UNL     1      -2.395  13.348  21.484  0.00  0.00    +0.000 A 
ATOM     13  C   UNL     1      -3.392  14.293  21.620  0.00  0.00    +0.000 A 
ATOM     14  C   UNL     1      -3.223  15.224  22.634  0.00  0.00    +0.000 A 
ATOM     15  N   UNL     1      -2.155  15.256  23.476  0.00  0.00    +0.000 NA
ATOM     16  C   UNL     1      -1.199  14.312  23.309  0.00  0.00    +0.000 A 
ATOM     17  C   UNL     1      -1.290  13.350  22.333  0.00  0.00    +0.000 A 
ATOM     18  C   UNL     1      -0.357  12.241  21.987  0.00  0.00    +0.000 C 
ATOM     19  H   UNL     1       0.691   9.933  21.561  0.00  0.00    +0.000 HD
ENDBRANCH   4   7
BRANCH   1  21
ATOM     20  N   UNL     1       3.382   4.710  17.844  0.00  0.00    +0.000 N 
ATOM     21  C   UNL     1       3.647   6.052  17.652  0.00  0.00    +0.000 C 
ATOM     22  O   UNL     1       4.501   6.476  16.881  0.00  0.00    +0.000 OA
ATOM     23  H   UNL     1       2.592   4.433  18.408  0.00  0.00    +0.000 HD
BRANCH  20  24
ATOM     24  C   UNL     1       4.115   3.666  17.146  0.00  0.00    +0.000 C 
BRANCH  24  25
ATOM     25  C   UNL     1       3.712   2.275  17.627  0.00  0.00    +0.000 C 
BRANCH  25  26
ATOM     26  C   UNL     1       2.393   2.289  18.395  0.00  0.00    +0.000 C 
BRANCH  26  27
ATOM     27  O   UNL     1       2.646   2.195  19.795  0.00  0.00    +0.000 OA
BRANCH  27  29
ATOM     28  C   UNL     1       2.232   3.528  21.721  0.00  0.00    +0.000 C 
ATOM     29  C   UNL     1       1.587   2.685  20.624  0.00  0.00    +0.000 C 
ATOM     30  C   UNL     1       0.595   3.535  19.835  0.00  0.00    +0.000 C 
ENDBRANCH  27  29
ENDBRANCH  26  27
ENDBRANCH  25  26
ENDBRANCH  24  25
ENDBRANCH  20  24
ENDBRANCH   1  21
TORSDOF 7
ENDMDL
MODEL 6
REMARK VINA RESULT:      -7.0      1.405      1.563
REMARK  Name = 
REMARK  9 active torsions:
REMARK  status: ('A' for Active; 'I' for Inactive)
REMARK    1  A    between atoms: C_1  and  C_2
REMARK    2  A    between atoms: C_2  and  C_3
REMARK    3  A    between atoms: C_2  and  O_4
REMARK    4  A    between atoms: O_4  and  C_5
REMARK    5  A    between atoms: C_5  and  C_6
REMARK    6  A    between atoms: C_6  and  C_7
REMARK    7  A    between atoms: C_7  and  N_8
REMARK    8  A    between atoms: C_9  and  C_11
REMARK    9  A    between atoms: C_14  and  N_15
REMARK                            x       y       z     vdW  Elec       q    Type
REMARK                         _______ _______ _______ _____ _____    ______ ____
ROOT
ATOM      1  C   UNL     1       2.669   7.169  18.608  0.00  0.00    +0.000 A 
ATOM      2  C   UNL     1       2.229   8.191  17.764  0.00  0.00    +0.000 A 
ATOM      3  C   UNL     1       1.436   9.230  18.268  0.00  0.00    +0.000 A 
ATOM      4  C   UNL     1       1.053   9.257  19.612  0.00  0.00    +0.000 A 
ATOM      5  C   UNL     1       1.518   8.248  20.463  0.00  0.00    +0.000 A 
ATOM      6  C   UNL     1       2.308   7.201  19.962  0.00  0.00    +0.000 A 
ENDROOT
BRANCH   4   7
ATOM      7  N   UNL     1       0.214  10.264  20.149  0.00  0.00    +0.000 N 
ATOM      8  C   UNL     1      -0.288  10.277  21.435  0.00  0.00    +0.000 C 
ATOM      9  O   UNL     1       0.016   9.470  22.310  0.00  0.00    +0.000 OA
ATOM     10  N   UNL     1      -1.166  11.297  21.710  0.00  0.00    +0.000 N 
ATOM     11  C   UNL     1      -1.682  11.434  23.073  0.00  0.00    +0.000 C 
ATOM     12  C   UNL     1      -2.700  12.517  22.957  0.00  0.00    +0.000 A 
ATOM     13  C   UNL     1      -3.481  13.089  23.941  0.00  0.00    +0.000 A 
ATOM     14  C   UNL     1      -4.366  14.073  23.528  0.00  0.00    +0.000 A 
ATOM     15  N   UNL     1      -4.504  14.492  22.241  0.00  0.00    +0.000 NA
ATOM     16  C   UNL     1      -3.720  13.904  21.306  0.00  0.00    +0.000 A 
ATOM     17  C   UNL     1      -2.814  12.925  21.629  0.00  0.00    +0.000 A 
ATOM     18  C   UNL     1      -1.874  12.162  20.761  0.00  0.00    +0.000 C 
ATOM     19  H   UNL     1       0.229  11.157  19.677  0.00  0.00    +0.000 HD
ENDBRANCH   4   7
BRANCH   1  21
ATOM     20  N   UNL     1       2.775   4.913  17.684  0.00  0.00    +0.000 N 
ATOM     21  C   UNL     1       3.479   6.025  18.101  0.00  0.00    +0.000 C 
ATOM     22  O   UNL     1       4.700   6.120  18.050  0.00  0.00    +0.000 OA
ATOM     23  H   UNL     1       1.766   4.944  17.649  0.00  0.00    +0.000 HD
BRANCH  20  24
ATOM     24  C   UNL     1       3.435   3.732  17.150  0.00  0.00    +0.000 C 
BRANCH  24  25
ATOM     25  C   UNL     1       2.625   2.465  17.413  0.00  0.00    +0.000 C 
BRANCH  25  26
ATOM     26  C   UNL     1       2.805   1.949  18.839  0.00  0.00    +0.000 C 
BRANCH  26  27
ATOM     27  O   UNL     1       1.535   1.833  19.477  0.00  0.00    +0.000 OA
BRANCH  27  29
ATOM     28  C   UNL     1       2.794   2.761  21.268  0.00  0.00    +0.000 C 
ATOM     29  C   UNL     1       1.397   2.608  20.672  0.00  0.00    +0.000 C 
ATOM     30  C   UNL     1       0.801   3.984  20.391  0.00  0.00    +0.000 C 
ENDBRANCH  27  29
ENDBRANCH  26  27
ENDBRANCH  25  26
ENDBRANCH  24  25
ENDBRANCH  20  24
ENDBRANCH   1  21
TORSDOF 7
ENDMDL
MODEL 7
REMARK VINA RESULT:      -7.0      1.957      2.032
REMARK  Name = 
REMARK  9 active torsions:
REMARK  status: ('A' for Active; 'I' for Inactive)
REMARK    1  A    between atoms: C_1  and  C_2
REMARK    2  A    between atoms: C_2  and  C_3
REMARK    3  A    between atoms: C_2  and  O_4
REMARK    4  A    between atoms: O_4  and  C_5
REMARK    5  A    between atoms: C_5  and  C_6
REMARK    6  A    between atoms: C_6  and  C_7
REMARK    7  A    between atoms: C_7  and  N_8
REMARK    8  A    between atoms: C_9  and  C_11
REMARK    9  A    between atoms: C_14  and  N_15
REMARK                            x       y       z     vdW  Elec       q    Type
REMARK                         _______ _______ _______ _____ _____    ______ ____
ROOT
ATOM      1  C   UNL     1       2.571   7.181  18.920  0.00  0.00    +0.000 A 
ATOM      2  C   UNL     1       2.342   8.024  17.830  0.00  0.00    +0.000 A 
ATOM      3  C   UNL     1       1.565   9.179  17.983  0.00  0.00    +0.000 A 
ATOM      4  C   UNL     1       0.987   9.501  19.214  0.00  0.00    +0.000 A 
ATOM      5  C   UNL     1       1.240   8.671  20.312  0.00  0.00    +0.000 A 
ATOM      6  C   UNL     1       2.014   7.508  20.163  0.00  0.00    +0.000 A 
ENDROOT
BRANCH   4   7
ATOM      7  N   UNL     1       0.156  10.633  19.398  0.00  0.00    +0.000 N 
ATOM      8  C   UNL     1       0.602  11.933  19.524  0.00  0.00    +0.000 C 
ATOM      9  O   UNL     1       1.771  12.286  19.386  0.00  0.00    +0.000 OA
ATOM     10  N   UNL     1      -0.372  12.862  19.800  0.00  0.00    +0.000 N 
ATOM     11  C   UNL     1       0.002  14.276  19.867  0.00  0.00    +0.000 C 
ATOM     12  C   UNL     1      -1.245  14.947  20.334  0.00  0.00    +0.000 A 
ATOM     13  C   UNL     1      -1.487  16.290  20.542  0.00  0.00    +0.000 A 
ATOM     14  C   UNL     1      -2.751  16.623  21.005  0.00  0.00    +0.000 A 
ATOM     15  N   UNL     1      -3.737  15.721  21.260  0.00  0.00    +0.000 NA
ATOM     16  C   UNL     1      -3.459  14.414  21.043  0.00  0.00    +0.000 A 
ATOM     17  C   UNL     1      -2.235  13.997  20.581  0.00  0.00    +0.000 A 
ATOM     18  C   UNL     1      -1.735  12.626  20.286  0.00  0.00    +0.000 C 
ATOM     19  H   UNL     1      -0.811  10.527  19.125  0.00  0.00    +0.000 HD
ENDBRANCH   4   7
BRANCH   1  21
ATOM     20  N   UNL     1       3.157   5.192  17.632  0.00  0.00    +0.000 N 
ATOM     21  C   UNL     1       3.358   5.922  18.788  0.00  0.00    +0.000 C 
ATOM     22  O   UNL     1       4.149   5.604  19.668  0.00  0.00    +0.000 OA
ATOM     23  H   UNL     1       2.574   5.568  16.898  0.00  0.00    +0.000 HD
BRANCH  20  24
ATOM     24  C   UNL     1       3.871   3.953  17.363  0.00  0.00    +0.000 C 
BRANCH  24  25
ATOM     25  C   UNL     1       2.977   2.733  17.561  0.00  0.00    +0.000 C 
BRANCH  25  26
ATOM     26  C   UNL     1       3.045   2.191  18.987  0.00  0.00    +0.000 C 
BRANCH  26  27
ATOM     27  O   UNL     1       1.730   1.910  19.463  0.00  0.00    +0.000 OA
BRANCH  27  29
ATOM     28  C   UNL     1       2.610   2.774  21.496  0.00  0.00    +0.000 C 
ATOM     29  C   UNL     1       1.356   2.637  20.637  0.00  0.00    +0.000 C 
ATOM     30  C   UNL     1       0.809   4.020  20.299  0.00  0.00    +0.000 C 
ENDBRANCH  27  29
ENDBRANCH  26  27
ENDBRANCH  25  26
ENDBRANCH  24  25
ENDBRANCH  20  24
ENDBRANCH   1  21
TORSDOF 7
ENDMDL
MODEL 8
REMARK VINA RESULT:      -6.8      2.129      3.447
REMARK  Name = 
REMARK  9 active torsions:
REMARK  status: ('A' for Active; 'I' for Inactive)
REMARK    1  A    between atoms: C_1  and  C_2
REMARK    2  A    between atoms: C_2  and  C_3
REMARK    3  A    between atoms: C_2  and  O_4
REMARK    4  A    between atoms: O_4  and  C_5
REMARK    5  A    between atoms: C_5  and  C_6
REMARK    6  A    between atoms: C_6  and  C_7
REMARK    7  A    between atoms: C_7  and  N_8
REMARK    8  A    between atoms: C_9  and  C_11
REMARK    9  A    between atoms: C_14  and  N_15
REMARK                            x       y       z     vdW  Elec       q    Type
REMARK                         _______ _______ _______ _____ _____    ______ ____
ROOT
ATOM      1  C   UNL     1       2.633   6.081  18.591  0.00  0.00    +0.000 A 
ATOM      2  C   UNL     1       2.543   7.277  17.874  0.00  0.00    +0.000 A 
ATOM      3  C   UNL     1       2.101   8.447  18.505  0.00  0.00    +0.000 A 
ATOM      4  C   UNL     1       1.723   8.440  19.851  0.00  0.00    +0.000 A 
ATOM      5  C   UNL     1       1.840   7.249  20.575  0.00  0.00    +0.000 A 
ATOM      6  C   UNL     1       2.277   6.072  19.946  0.00  0.00    +0.000 A 
ENDROOT
BRANCH   4   7
ATOM      7  N   UNL     1       1.228   9.590  20.513  0.00  0.00    +0.000 N 
ATOM      8  C   UNL     1       0.147   9.608  21.370  0.00  0.00    +0.000 C 
ATOM      9  O   UNL     1      -0.459   8.609  21.751  0.00  0.00    +0.000 OA
ATOM     10  N   UNL     1      -0.225  10.854  21.818  0.00  0.00    +0.000 N 
ATOM     11  C   UNL     1      -1.308  10.956  22.796  0.00  0.00    +0.000 C 
ATOM     12  C   UNL     1      -1.533  12.425  22.919  0.00  0.00    +0.000 A 
ATOM     13  C   UNL     1      -2.416  13.107  23.732  0.00  0.00    +0.000 A 
ATOM     14  C   UNL     1      -2.419  14.489  23.614  0.00  0.00    +0.000 A 
ATOM     15  N   UNL     1      -1.621  15.188  22.763  0.00  0.00    +0.000 NA
ATOM     16  C   UNL     1      -0.769  14.481  21.983  0.00  0.00    +0.000 A 
ATOM     17  C   UNL     1      -0.698  13.111  22.039  0.00  0.00    +0.000 A 
ATOM     18  C   UNL     1       0.155  12.160  21.273  0.00  0.00    +0.000 C 
ATOM     19  H   UNL     1       1.869  10.366  20.600  0.00  0.00    +0.000 HD
ENDBRANCH   4   7
BRANCH   1  21
ATOM     20  N   UNL     1       4.150   4.883  17.101  0.00  0.00    +0.000 N 
ATOM     21  C   UNL     1       3.058   4.808  17.944  0.00  0.00    +0.000 C 
ATOM     22  O   UNL     1       2.460   3.768  18.196  0.00  0.00    +0.000 OA
ATOM     23  H   UNL     1       4.664   5.749  17.025  0.00  0.00    +0.000 HD
BRANCH  20  24
ATOM     24  C   UNL     1       4.685   3.715  16.418  0.00  0.00    +0.000 C 
BRANCH  24  25
ATOM     25  C   UNL     1       5.875   4.075  15.533  0.00  0.00    +0.000 C 
BRANCH  25  26
ATOM     26  C   UNL     1       7.085   4.527  16.348  0.00  0.00    +0.000 C 
BRANCH  26  27
ATOM     27  O   UNL     1       7.321   5.917  16.135  0.00  0.00    +0.000 OA
BRANCH  27  29
ATOM     28  C   UNL     1       6.257   7.592  17.445  0.00  0.00    +0.000 C 
ATOM     29  C   UNL     1       7.477   6.683  17.334  0.00  0.00    +0.000 C 
ATOM     30  C   UNL     1       7.571   5.791  18.569  0.00  0.00    +0.000 C 
ENDBRANCH  27  29
ENDBRANCH  26  27
ENDBRANCH  25  26
ENDBRANCH  24  25
ENDBRANCH  20  24
ENDBRANCH   1  21
TORSDOF 7
ENDMDL
MODEL 9
REMARK VINA RESULT:      -6.8      2.558      3.596
REMARK  Name = 
REMARK  9 active torsions:
REMARK  status: ('A' for Active; 'I' for Inactive)
REMARK    1  A    between atoms: C_1  and  C_2
REMARK    2  A    between atoms: C_2  and  C_3
REMARK    3  A    between atoms: C_2  and  O_4
REMARK    4  A    between atoms: O_4  and  C_5
REMARK    5  A    between atoms: C_5  and  C_6
REMARK    6  A    between atoms: C_6  and  C_7
REMARK    7  A    between atoms: C_7  and  N_8
REMARK    8  A    between atoms: C_9  and  C_11
REMARK    9  A    between atoms: C_14  and  N_15
REMARK                            x       y       z     vdW  Elec       q    Type
REMARK                         _______ _______ _______ _____ _____    ______ ____
ROOT
ATOM      1  C   UNL     1       2.832   6.976  18.785  0.00  0.00    +0.000 A 
ATOM      2  C   UNL     1       2.709   7.873  17.721  0.00  0.00    +0.000 A 
ATOM      3  C   UNL     1       1.952   9.042  17.868  0.00  0.00    +0.000 A 
ATOM      4  C   UNL     1       1.290   9.326  19.066  0.00  0.00    +0.000 A 
ATOM      5  C   UNL     1       1.437   8.441  20.140  0.00  0.00    +0.000 A 
ATOM      6  C   UNL     1       2.190   7.265  19.997  0.00  0.00    +0.000 A 
ENDROOT
BRANCH   4   7
ATOM      7  N   UNL     1       0.478  10.473  19.239  0.00  0.00    +0.000 N 
ATOM      8  C   UNL     1       0.916  11.778  19.142  0.00  0.00    +0.000 C 
ATOM      9  O   UNL     1       2.044  12.111  18.787  0.00  0.00    +0.000 OA
ATOM     10  N   UNL     1      -0.022  12.735  19.451  0.00  0.00    +0.000 N 
ATOM     11  C   UNL     1       0.334  14.146  19.293  0.00  0.00    +0.000 C 
ATOM     12  C   UNL     1      -0.839  14.870  19.861  0.00  0.00    +0.000 A 
ATOM     13  C   UNL     1      -1.070  16.228  19.944  0.00  0.00    +0.000 A 
ATOM     14  C   UNL     1      -2.255  16.615  20.551  0.00  0.00    +0.000 A 
ATOM     15  N   UNL     1      -3.176  15.751  21.057  0.00  0.00    +0.000 NA
ATOM     16  C   UNL     1      -2.912  14.427  20.957  0.00  0.00    +0.000 A 
ATOM     17  C   UNL     1      -1.765  13.957  20.367  0.00  0.00    +0.000 A 
ATOM     18  C   UNL     1      -1.291  12.560  20.163  0.00  0.00    +0.000 C 
ATOM     19  H   UNL     1      -0.518  10.336  19.131  0.00  0.00    +0.000 HD
ENDBRANCH   4   7
BRANCH   1  21
ATOM     20  N   UNL     1       3.533   5.074  17.425  0.00  0.00    +0.000 N 
ATOM     21  C   UNL     1       3.593   5.702  18.654  0.00  0.00    +0.000 C 
ATOM     22  O   UNL     1       4.246   5.283  19.603  0.00  0.00    +0.000 OA
ATOM     23  H   UNL     1       3.068   5.530  16.653  0.00  0.00    +0.000 HD
BRANCH  20  24
ATOM     24  C   UNL     1       4.241   3.834  17.151  0.00  0.00    +0.000 C 
BRANCH  24  25
ATOM     25  C   UNL     1       5.305   4.018  16.073  0.00  0.00    +0.000 C 
BRANCH  25  26
ATOM     26  C   UNL     1       6.629   4.518  16.646  0.00  0.00    +0.000 C 
BRANCH  26  27
ATOM     27  O   UNL     1       6.548   5.919  16.903  0.00  0.00    +0.000 OA
BRANCH  27  29
ATOM     28  C   UNL     1       7.538   7.978  17.562  0.00  0.00    +0.000 C 
ATOM     29  C   UNL     1       7.670   6.458  17.610  0.00  0.00    +0.000 C 
ATOM     30  C   UNL     1       7.705   5.988  19.061  0.00  0.00    +0.000 C 
ENDBRANCH  27  29
ENDBRANCH  26  27
ENDBRANCH  25  26
ENDBRANCH  24  25
ENDBRANCH  20  24
ENDBRANCH   1  21
TORSDOF 7
ENDMDL
