MODEL 1
REMARK VINA RESULT:      -7.3      0.000      0.000
REMARK  Name = 
REMARK  1 active torsions:
REMARK  status: ('A' for Active; 'I' for Inactive)
REMARK    1  A    between atoms: C_1  and  N_2
REMARK                            x       y       z     vdW  Elec       q    Type
REMARK                         _______ _______ _______ _____ _____    ______ ____
ROOT
ATOM      1  C   UNL     1       1.215  10.873  18.616  0.00  0.00    +0.000 C 
ATOM      2  N   UNL     1       0.885  10.146  19.855  0.00  0.00    +0.000 N 
ATOM      3  C   UNL     1       0.132  10.690  20.856  0.00  0.00    +0.000 A 
ATOM      4  C   UNL     1      -0.400  11.997  20.795  0.00  0.00    +0.000 A 
ATOM      5  C   UNL     1      -1.168  12.530  21.833  0.00  0.00    +0.000 A 
ATOM      6  C   UNL     1      -1.427  11.772  22.962  0.00  0.00    +0.000 A 
ATOM      7  C   UNL     1      -0.918  10.479  23.056  0.00  0.00    +0.000 A 
ATOM      8  C   UNL     1      -0.144   9.926  22.023  0.00  0.00    +0.000 A 
ATOM      9  C   UNL     1       0.342   8.624  22.167  0.00  0.00    +0.000 A 
ATOM     10  C   UNL     1       1.104   8.108  21.126  0.00  0.00    +0.000 A 
ATOM     11  N   UNL     1       1.706   6.878  20.994  0.00  0.00    +0.000 N 
ATOM     12  C   UNL     1       2.369   6.785  19.791  0.00  0.00    +0.000 A 
ATOM     13  C   UNL     1       3.111   5.724  19.252  0.00  0.00    +0.000 A 
ATOM     14  C   UNL     1       3.686   5.907  17.992  0.00  0.00    +0.000 A 
ATOM     15 CL   UNL     1       4.605   4.636  17.284  0.00  0.00    +0.000 Cl
ATOM     16  C   UNL     1       3.530   7.099  17.298  0.00  0.00    +0.000 A 
ATOM     17  C   UNL     1       2.787   8.148  17.851  0.00  0.00    +0.000 A 
ATOM     18  C   UNL     1       2.189   8.000  19.124  0.00  0.00    +0.000 A 
ATOM     19  C   UNL     1       1.386   8.835  19.977  0.00  0.00    +0.000 A 
ATOM     20  H   UNL     1       1.670   6.133  21.684  0.00  0.00    +0.000 HD
ENDROOT
TORSDOF 0
ENDMDL
MODEL 2
REMARK VINA RESULT:      -7.0      5.564      6.927
REMARK  Name = 
REMARK  1 active torsions:
REMARK  status: ('A' for Active; 'I' for Inactive)
REMARK    1  A    between atoms: C_1  and  N_2
REMARK                            x       y       z     vdW  Elec       q    Type
REMARK                         _______ _______ _______ _____ _____    ______ ____
ROOT
ATOM      1  C   UNL     1       2.946   2.302  16.728  0.00  0.00    +0.000 C 
ATOM      2  N   UNL     1       3.353   3.320  17.713  0.00  0.00    +0.000 N 
ATOM      3  C   UNL     1       2.755   3.451  18.935  0.00  0.00    +0.000 A 
ATOM      4  C   UNL     1       1.695   2.623  19.364  0.00  0.00    +0.000 A 
ATOM      5  C   UNL     1       1.101   2.776  20.620  0.00  0.00    +0.000 A 
ATOM      6  C   UNL     1       1.551   3.762  21.481  0.00  0.00    +0.000 A 
ATOM      7  C   UNL     1       2.595   4.598  21.090  0.00  0.00    +0.000 A 
ATOM      8  C   UNL     1       3.204   4.458  19.832  0.00  0.00    +0.000 A 
ATOM      9  C   UNL     1       4.248   5.321  19.489  0.00  0.00    +0.000 A 
ATOM     10  C   UNL     1       4.827   5.155  18.237  0.00  0.00    +0.000 A 
ATOM     11  N   UNL     1       5.854   5.848  17.637  0.00  0.00    +0.000 N 
ATOM     12  C   UNL     1       6.112   5.348  16.381  0.00  0.00    +0.000 A 
ATOM     13  C   UNL     1       7.061   5.751  15.430  0.00  0.00    +0.000 A 
ATOM     14  C   UNL     1       7.102   5.057  14.219  0.00  0.00    +0.000 A 
ATOM     15 CL   UNL     1       8.248   5.509  13.017  0.00  0.00    +0.000 Cl
ATOM     16  C   UNL     1       6.233   4.005  13.964  0.00  0.00    +0.000 A 
ATOM     17  C   UNL     1       5.291   3.617  14.924  0.00  0.00    +0.000 A 
ATOM     18  C   UNL     1       5.220   4.295  16.163  0.00  0.00    +0.000 A 
ATOM     19  C   UNL     1       4.407   4.178  17.344  0.00  0.00    +0.000 A 
ATOM     20  H   UNL     1       6.358   6.623  18.058  0.00  0.00    +0.000 HD
ENDROOT
TORSDOF 0
ENDMDL
MODEL 3
REMARK VINA RESULT:      -7.0      2.700      6.863
REMARK  Name = 
REMARK  1 active torsions:
REMARK  status: ('A' for Active; 'I' for Inactive)
REMARK    1  A    between atoms: C_1  and  N_2
REMARK                            x       y       z     vdW  Elec       q    Type
REMARK                         _______ _______ _______ _____ _____    ______ ____
ROOT
ATOM      1  C   UNL     1       2.136   5.373  20.851  0.00  0.00    +0.000 C 
ATOM      2  N   UNL     1       2.573   6.131  19.665  0.00  0.00    +0.000 N 
ATOM      3  C   UNL     1       3.408   5.609  18.718  0.00  0.00    +0.000 A 
ATOM      4  C   UNL     1       3.925   4.297  18.787  0.00  0.00    +0.000 A 
ATOM      5  C   UNL     1       4.777   3.786  17.804  0.00  0.00    +0.000 A 
ATOM      6  C   UNL     1       5.134   4.574  16.723  0.00  0.00    +0.000 A 
ATOM      7  C   UNL     1       4.642   5.873  16.622  0.00  0.00    +0.000 A 
ATOM      8  C   UNL     1       3.786   6.403  17.600  0.00  0.00    +0.000 A 
ATOM      9  C   UNL     1       3.319   7.711  17.451  0.00  0.00    +0.000 A 
ATOM     10  C   UNL     1       2.474   8.204  18.438  0.00  0.00    +0.000 A 
ATOM     11  N   UNL     1       1.873   9.437  18.554  0.00  0.00    +0.000 N 
ATOM     12  C   UNL     1       1.109   9.501  19.698  0.00  0.00    +0.000 A 
ATOM     13  C   UNL     1       0.335  10.555  20.205  0.00  0.00    +0.000 A 
ATOM     14  C   UNL     1      -0.345  10.343  21.406  0.00  0.00    +0.000 A 
ATOM     15 CL   UNL     1      -1.310  11.602  22.072  0.00  0.00    +0.000 Cl
ATOM     16  C   UNL     1      -0.258   9.129  22.076  0.00  0.00    +0.000 A 
ATOM     17  C   UNL     1       0.519   8.088  21.556  0.00  0.00    +0.000 A 
ATOM     18  C   UNL     1       1.222   8.266  20.342  0.00  0.00    +0.000 A 
ATOM     19  C   UNL     1       2.090   7.448  19.537  0.00  0.00    +0.000 A 
ATOM     20  H   UNL     1       1.973  10.200  17.891  0.00  0.00    +0.000 HD
ENDROOT
TORSDOF 0
ENDMDL
MODEL 4
REMARK VINA RESULT:      -6.9      1.162      1.698
REMARK  Name = 
REMARK  1 active torsions:
REMARK  status: ('A' for Active; 'I' for Inactive)
REMARK    1  A    between atoms: C_1  and  N_2
REMARK                            x       y       z     vdW  Elec       q    Type
REMARK                         _______ _______ _______ _____ _____    ______ ____
ROOT
ATOM      1  C   UNL     1       1.985   9.795  17.801  0.00  0.00    +0.000 C 
ATOM      2  N   UNL     1       1.698   9.014  19.017  0.00  0.00    +0.000 N 
ATOM      3  C   UNL     1       0.874   9.463  20.010  0.00  0.00    +0.000 A 
ATOM      4  C   UNL     1       0.222  10.714  19.960  0.00  0.00    +0.000 A 
ATOM      5  C   UNL     1      -0.618  11.150  20.988  0.00  0.00    +0.000 A 
ATOM      6  C   UNL     1      -0.829  10.347  22.096  0.00  0.00    +0.000 A 
ATOM      7  C   UNL     1      -0.201   9.106  22.179  0.00  0.00    +0.000 A 
ATOM      8  C   UNL     1       0.646   8.651  21.155  0.00  0.00    +0.000 A 
ATOM      9  C   UNL     1       1.250   7.398  21.286  0.00  0.00    +0.000 A 
ATOM     10  C   UNL     1       2.082   6.980  20.255  0.00  0.00    +0.000 A 
ATOM     11  N   UNL     1       2.801   5.815  20.114  0.00  0.00    +0.000 N 
ATOM     12  C   UNL     1       3.497   5.812  18.927  0.00  0.00    +0.000 A 
ATOM     13  C   UNL     1       4.349   4.837  18.386  0.00  0.00    +0.000 A 
ATOM     14  C   UNL     1       4.933   5.100  17.145  0.00  0.00    +0.000 A 
ATOM     15 CL   UNL     1       5.985   3.938  16.436  0.00  0.00    +0.000 Cl
ATOM     16  C   UNL     1       4.680   6.287  16.470  0.00  0.00    +0.000 A 
ATOM     17  C   UNL     1       3.828   7.248  17.024  0.00  0.00    +0.000 A 
ATOM     18  C   UNL     1       3.218   7.017  18.279  0.00  0.00    +0.000 A 
ATOM     19  C   UNL     1       2.319   7.754  19.127  0.00  0.00    +0.000 A 
ATOM     20  H   UNL     1       2.820   5.056  20.789  0.00  0.00    +0.000 HD
ENDROOT
TORSDOF 0
ENDMDL
MODEL 5
REMARK VINA RESULT:      -6.8      1.172      1.564
REMARK  Name = 
REMARK  1 active torsions:
REMARK  status: ('A' for Active; 'I' for Inactive)
REMARK    1  A    between atoms: C_1  and  N_2
REMARK                            x       y       z     vdW  Elec       q    Type
REMARK                         _______ _______ _______ _____ _____    ______ ____
ROOT
ATOM      1  C   UNL     1       1.982   9.454  17.663  0.00  0.00    +0.000 C 
ATOM      2  N   UNL     1       1.517   9.260  19.048  0.00  0.00    +0.000 N 
ATOM      3  C   UNL     1       0.869  10.232  19.757  0.00  0.00    +0.000 A 
ATOM      4  C   UNL     1       0.586  11.509  19.227  0.00  0.00    +0.000 A 
ATOM      5  C   UNL     1      -0.079  12.487  19.972  0.00  0.00    +0.000 A 
ATOM      6  C   UNL     1      -0.479  12.213  21.269  0.00  0.00    +0.000 A 
ATOM      7  C   UNL     1      -0.216  10.963  21.824  0.00  0.00    +0.000 A 
ATOM      8  C   UNL     1       0.451   9.969  21.090  0.00  0.00    +0.000 A 
ATOM      9  C   UNL     1       0.689   8.731  21.693  0.00  0.00    +0.000 A 
ATOM     10  C   UNL     1       1.352   7.771  20.938  0.00  0.00    +0.000 A 
ATOM     11  N   UNL     1       1.719   6.485  21.265  0.00  0.00    +0.000 N 
ATOM     12  C   UNL     1       2.362   5.878  20.211  0.00  0.00    +0.000 A 
ATOM     13  C   UNL     1       2.901   4.587  20.108  0.00  0.00    +0.000 A 
ATOM     14  C   UNL     1       3.508   4.230  18.902  0.00  0.00    +0.000 A 
ATOM     15 CL   UNL     1       4.184   2.657  18.722  0.00  0.00    +0.000 Cl
ATOM     16  C   UNL     1       3.577   5.123  17.841  0.00  0.00    +0.000 A 
ATOM     17  C   UNL     1       3.035   6.407  17.961  0.00  0.00    +0.000 A 
ATOM     18  C   UNL     1       2.411   6.805  19.166  0.00  0.00    +0.000 A 
ATOM     19  C   UNL     1       1.769   8.004  19.635  0.00  0.00    +0.000 A 
ATOM     20  H   UNL     1       1.542   6.038  22.160  0.00  0.00    +0.000 HD
ENDROOT
TORSDOF 0
ENDMDL
MODEL 6
REMARK VINA RESULT:      -6.6      1.584      3.187
REMARK  Name = 
REMARK  1 active torsions:
REMARK  status: ('A' for Active; 'I' for Inactive)
REMARK    1  A    between atoms: C_1  and  N_2
REMARK                            x       y       z     vdW  Elec       q    Type
REMARK                         _______ _______ _______ _____ _____    ______ ____
ROOT
ATOM      1  C   UNL     1      -0.311   9.543  22.772  0.00  0.00    +0.000 C 
ATOM      2  N   UNL     1      -0.578  10.509  21.692  0.00  0.00    +0.000 N 
ATOM      3  C   UNL     1      -1.383  11.601  21.856  0.00  0.00    +0.000 A 
ATOM      4  C   UNL     1      -2.031  11.902  23.074  0.00  0.00    +0.000 A 
ATOM      5  C   UNL     1      -2.849  13.026  23.216  0.00  0.00    +0.000 A 
ATOM      6  C   UNL     1      -3.043  13.881  22.144  0.00  0.00    +0.000 A 
ATOM      7  C   UNL     1      -2.419  13.613  20.927  0.00  0.00    +0.000 A 
ATOM      8  C   UNL     1      -1.594  12.489  20.766  0.00  0.00    +0.000 A 
ATOM      9  C   UNL     1      -0.991  12.267  19.525  0.00  0.00    +0.000 A 
ATOM     10  C   UNL     1      -0.181  11.145  19.400  0.00  0.00    +0.000 A 
ATOM     11  N   UNL     1       0.527  10.680  18.316  0.00  0.00    +0.000 N 
ATOM     12  C   UNL     1       1.202   9.523  18.633  0.00  0.00    +0.000 A 
ATOM     13  C   UNL     1       2.033   8.719  17.839  0.00  0.00    +0.000 A 
ATOM     14  C   UNL     1       2.594   7.583  18.427  0.00  0.00    +0.000 A 
ATOM     15 CL   UNL     1       3.623   6.564  17.498  0.00  0.00    +0.000 Cl
ATOM     16  C   UNL     1       2.337   7.260  19.753  0.00  0.00    +0.000 A 
ATOM     17  C   UNL     1       1.504   8.072  20.530  0.00  0.00    +0.000 A 
ATOM     18  C   UNL     1       0.919   9.231  19.970  0.00  0.00    +0.000 A 
ATOM     19  C   UNL     1       0.040  10.264  20.450  0.00  0.00    +0.000 A 
ATOM     20  H   UNL     1       0.554  11.124  17.403  0.00  0.00    +0.000 HD
ENDROOT
TORSDOF 0
ENDMDL
MODEL 7
REMARK VINA RESULT:      -6.6      1.549      2.449
REMARK  Name = 
REMARK  1 active torsions:
REMARK  status: ('A' for Active; 'I' for Inactive)
REMARK    1  A    between atoms: C_1  and  N_2
REMARK                            x       y       z     vdW  Elec       q    Type
REMARK                         _______ _______ _______ _____ _____    ______ ____
ROOT
ATOM      1  C   UNL     1       2.476   8.456  17.373  0.00  0.00    +0.000 C 
ATOM      2  N   UNL     1       1.982   8.369  18.759  0.00  0.00    +0.000 N 
ATOM      3  C   UNL     1       1.448   9.436  19.425  0.00  0.00    +0.000 A 
ATOM      4  C   UNL     1       1.320  10.717  18.846  0.00  0.00    +0.000 A 
ATOM      5  C   UNL     1       0.770  11.793  19.548  0.00  0.00    +0.000 A 
ATOM      6  C   UNL     1       0.331  11.617  20.849  0.00  0.00    +0.000 A 
ATOM      7  C   UNL     1       0.442  10.366  21.452  0.00  0.00    +0.000 A 
ATOM      8  C   UNL     1       0.993   9.273  20.762  0.00  0.00    +0.000 A 
ATOM      9  C   UNL     1       1.080   8.040  21.411  0.00  0.00    +0.000 A 
ATOM     10  C   UNL     1       1.630   6.981  20.699  0.00  0.00    +0.000 A 
ATOM     11  N   UNL     1       1.842   5.675  21.077  0.00  0.00    +0.000 N 
ATOM     12  C   UNL     1       2.417   4.958  20.053  0.00  0.00    +0.000 A 
ATOM     13  C   UNL     1       2.801   3.610  20.003  0.00  0.00    +0.000 A 
ATOM     14  C   UNL     1       3.371   3.139  18.818  0.00  0.00    +0.000 A 
ATOM     15 CL   UNL     1       3.859   1.493  18.703  0.00  0.00    +0.000 Cl
ATOM     16  C   UNL     1       3.551   3.977  17.725  0.00  0.00    +0.000 A 
ATOM     17  C   UNL     1       3.162   5.320  17.793  0.00  0.00    +0.000 A 
ATOM     18  C   UNL     1       2.582   5.832  18.976  0.00  0.00    +0.000 A 
ATOM     19  C   UNL     1       2.081   7.115  19.393  0.00  0.00    +0.000 A 
ATOM     20  H   UNL     1       1.609   5.285  21.985  0.00  0.00    +0.000 HD
ENDROOT
TORSDOF 0
ENDMDL
MODEL 8
REMARK VINA RESULT:      -6.6      1.742      3.524
REMARK  Name = 
REMARK  1 active torsions:
REMARK  status: ('A' for Active; 'I' for Inactive)
REMARK    1  A    between atoms: C_1  and  N_2
REMARK                            x       y       z     vdW  Elec       q    Type
REMARK                         _______ _______ _______ _____ _____    ______ ____
ROOT
ATOM      1  C   UNL     1       1.976   5.712  20.814  0.00  0.00    +0.000 C 
ATOM      2  N   UNL     1       1.972   6.947  20.009  0.00  0.00    +0.000 N 
ATOM      3  C   UNL     1       1.259   8.059  20.360  0.00  0.00    +0.000 A 
ATOM      4  C   UNL     1       0.463   8.125  21.525  0.00  0.00    +0.000 A 
ATOM      5  C   UNL     1      -0.256   9.275  21.862  0.00  0.00    +0.000 A 
ATOM      6  C   UNL     1      -0.200  10.391  21.044  0.00  0.00    +0.000 A 
ATOM      7  C   UNL     1       0.575  10.360  19.887  0.00  0.00    +0.000 A 
ATOM      8  C   UNL     1       1.304   9.214  19.531  0.00  0.00    +0.000 A 
ATOM      9  C   UNL     1       2.067   9.235  18.361  0.00  0.00    +0.000 A 
ATOM     10  C   UNL     1       2.776   8.084  18.040  0.00  0.00    +0.000 A 
ATOM     11  N   UNL     1       3.595   7.819  16.966  0.00  0.00    +0.000 N 
ATOM     12  C   UNL     1       4.099   6.540  17.041  0.00  0.00    +0.000 A 
ATOM     13  C   UNL     1       4.962   5.861  16.169  0.00  0.00    +0.000 A 
ATOM     14  C   UNL     1       5.315   4.549  16.494  0.00  0.00    +0.000 A 
ATOM     15 CL   UNL     1       6.373   3.671  15.459  0.00  0.00    +0.000 Cl
ATOM     16  C   UNL     1       4.827   3.938  17.642  0.00  0.00    +0.000 A 
ATOM     17  C   UNL     1       3.966   4.630  18.500  0.00  0.00    +0.000 A 
ATOM     18  C   UNL     1       3.587   5.960  18.205  0.00  0.00    +0.000 A 
ATOM     19  C   UNL     1       2.748   6.945  18.833  0.00  0.00    +0.000 A 
ATOM     20  H   UNL     1       3.804   8.472  16.217  0.00  0.00    +0.000 HD
ENDROOT
TORSDOF 0
ENDMDL
MODEL 9
REMARK VINA RESULT:      -6.6      2.987      6.499
REMARK  Name = 
REMARK  1 active torsions:
REMARK  status: ('A' for Active; 'I' for Inactive)
REMARK    1  A    between atoms: C_1  and  N_2
REMARK                            x       y       z     vdW  Elec       q    Type
REMARK                         _______ _______ _______ _____ _____    ______ ____
ROOT
ATOM      1  C   UNL     1       0.855   8.091  21.589  0.00  0.00    +0.000 C 
ATOM      2  N   UNL     1       1.457   8.152  20.245  0.00  0.00    +0.000 N 
ATOM      3  C   UNL     1       2.124   7.100  19.683  0.00  0.00    +0.000 A 
ATOM      4  C   UNL     1       2.295   5.861  20.337  0.00  0.00    +0.000 A 
ATOM      5  C   UNL     1       2.981   4.799  19.740  0.00  0.00    +0.000 A 
ATOM      6  C   UNL     1       3.514   4.948  18.470  0.00  0.00    +0.000 A 
ATOM      7  C   UNL     1       3.363   6.158  17.796  0.00  0.00    +0.000 A 
ATOM      8  C   UNL     1       2.678   7.235  18.380  0.00  0.00    +0.000 A 
ATOM      9  C   UNL     1       2.554   8.426  17.661  0.00  0.00    +0.000 A 
ATOM     10  C   UNL     1       1.869   9.471  18.269  0.00  0.00    +0.000 A 
ATOM     11  N   UNL     1       1.599  10.739  17.809  0.00  0.00    +0.000 N 
ATOM     12  C   UNL     1       0.888  11.456  18.744  0.00  0.00    +0.000 A 
ATOM     13  C   UNL     1       0.409  12.774  18.695  0.00  0.00    +0.000 A 
ATOM     14  C   UNL     1      -0.290  13.254  19.803  0.00  0.00    +0.000 A 
ATOM     15 CL   UNL     1      -0.901  14.863  19.794  0.00  0.00    +0.000 Cl
ATOM     16  C   UNL     1      -0.505  12.455  20.918  0.00  0.00    +0.000 A 
ATOM     17  C   UNL     1      -0.019  11.143  20.952  0.00  0.00    +0.000 A 
ATOM     18  C   UNL     1       0.693  10.621  19.847  0.00  0.00    +0.000 A 
ATOM     19  C   UNL     1       1.319   9.363  19.539  0.00  0.00    +0.000 A 
ATOM     20  H   UNL     1       1.881  11.104  16.904  0.00  0.00    +0.000 HD
ENDROOT
TORSDOF 0
ENDMDL
