MODEL 1
REMARK VINA RESULT:      -5.8      0.000      0.000
REMARK  Name = 
REMARK  5 active torsions:
REMARK  status: ('A' for Active; 'I' for Inactive)
REMARK    1  A    between atoms: C_1  and  C_2
REMARK    2  A    between atoms: C_2  and  C_3
REMARK    3  A    between atoms: C_4  and  C_5
REMARK    4  A    between atoms: C_6  and  C_7
REMARK    5  A    between atoms: C_12  and  C_13
REMARK                            x       y       z     vdW  Elec       q    Type
REMARK                         _______ _______ _______ _____ _____    ______ ____
ROOT
ATOM      1  C   UNL     1       3.192   4.458  18.905  0.00  0.00    +0.000 C 
ATOM      2  C   UNL     1       3.448   5.663  18.366  0.00  0.00    +0.000 C 
ATOM      3  C   UNL     1       2.387   6.635  17.889  0.00  0.00    +0.000 C 
ATOM      4  C   UNL     1       4.866   6.156  18.190  0.00  0.00    +0.000 C 
ATOM      5  C   UNL     1       5.960   5.230  18.711  0.00  0.00    +0.000 C 
ATOM      6  S   UNL     1       7.562   5.774  18.760  0.00  0.00    +0.000 S 
ATOM      7  N   UNL     1       5.623   3.990  19.197  0.00  0.00    +0.000 NA
ATOM      8  C   UNL     1       4.389   3.634  19.303  0.00  0.00    +0.000 C 
ATOM      9  C   UNL     1       4.159   2.258  19.897  0.00  0.00    +0.000 C 
ENDROOT
BRANCH   1  11
ATOM     10  C   UNL     1       1.258   4.369  20.468  0.00  0.00    +0.000 C 
ATOM     11  C   UNL     1       1.806   3.916  19.125  0.00  0.00    +0.000 C 
ENDBRANCH   1  11
BRANCH   4  12
ATOM     12  C   UNL     1       5.082   6.440  16.713  0.00  0.00    +0.000 C 
ATOM     13  N   UNL     1       5.262   6.676  15.487  0.00  0.00    +0.000 NA
ENDBRANCH   4  12
TORSDOF 2
ENDMDL
MODEL 2
REMARK VINA RESULT:      -5.7      2.086      2.518
REMARK  Name = 
REMARK  5 active torsions:
REMARK  status: ('A' for Active; 'I' for Inactive)
REMARK    1  A    between atoms: C_1  and  C_2
REMARK    2  A    between atoms: C_2  and  C_3
REMARK    3  A    between atoms: C_4  and  C_5
REMARK    4  A    between atoms: C_6  and  C_7
REMARK    5  A    between atoms: C_12  and  C_13
REMARK                            x       y       z     vdW  Elec       q    Type
REMARK                         _______ _______ _______ _____ _____    ______ ____
ROOT
ATOM      1  C   UNL     1       1.950   4.519  19.268  0.00  0.00    +0.000 C 
ATOM      2  C   UNL     1       2.305   5.796  19.496  0.00  0.00    +0.000 C 
ATOM      3  C   UNL     1       1.741   6.660  20.607  0.00  0.00    +0.000 C 
ATOM      4  C   UNL     1       3.331   6.488  18.630  0.00  0.00    +0.000 C 
ATOM      5  C   UNL     1       3.964   5.633  17.538  0.00  0.00    +0.000 C 
ATOM      6  S   UNL     1       5.273   6.242  16.653  0.00  0.00    +0.000 S 
ATOM      7  N   UNL     1       3.507   4.354  17.329  0.00  0.00    +0.000 NA
ATOM      8  C   UNL     1       2.617   3.836  18.103  0.00  0.00    +0.000 C 
ATOM      9  C   UNL     1       2.238   2.402  17.787  0.00  0.00    +0.000 C 
ENDROOT
BRANCH   1  11
ATOM     10  C   UNL     1       1.626   3.118  21.299  0.00  0.00    +0.000 C 
ATOM     11  C   UNL     1       0.949   3.766  20.103  0.00  0.00    +0.000 C 
ENDBRANCH   1  11
BRANCH   4  12
ATOM     12  C   UNL     1       2.676   7.715  18.019  0.00  0.00    +0.000 C 
ATOM     13  N   UNL     1       2.132   8.734  17.511  0.00  0.00    +0.000 NA
ENDBRANCH   4  12
TORSDOF 2
ENDMDL
MODEL 3
REMARK VINA RESULT:      -5.3      1.842      3.176
REMARK  Name = 
REMARK  5 active torsions:
REMARK  status: ('A' for Active; 'I' for Inactive)
REMARK    1  A    between atoms: C_1  and  C_2
REMARK    2  A    between atoms: C_2  and  C_3
REMARK    3  A    between atoms: C_4  and  C_5
REMARK    4  A    between atoms: C_6  and  C_7
REMARK    5  A    between atoms: C_12  and  C_13
REMARK                            x       y       z     vdW  Elec       q    Type
REMARK                         _______ _______ _______ _____ _____    ______ ____
ROOT
ATOM      1  C   UNL     1       3.131   4.887  19.878  0.00  0.00    +0.000 C 
ATOM      2  C   UNL     1       4.019   4.119  19.223  0.00  0.00    +0.000 C 
ATOM      3  C   UNL     1       4.373   2.695  19.606  0.00  0.00    +0.000 C 
ATOM      4  C   UNL     1       4.757   4.638  18.011  0.00  0.00    +0.000 C 
ATOM      5  C   UNL     1       4.385   6.046  17.560  0.00  0.00    +0.000 C 
ATOM      6  S   UNL     1       4.990   6.642  16.095  0.00  0.00    +0.000 S 
ATOM      7  N   UNL     1       3.511   6.790  18.314  0.00  0.00    +0.000 NA
ATOM      8  C   UNL     1       2.930   6.282  19.347  0.00  0.00    +0.000 C 
ATOM      9  C   UNL     1       1.956   7.199  20.060  0.00  0.00    +0.000 C 
ENDROOT
BRANCH   1  11
ATOM     10  C   UNL     1       1.102   3.671  20.652  0.00  0.00    +0.000 C 
ATOM     11  C   UNL     1       2.349   4.425  21.079  0.00  0.00    +0.000 C 
ENDBRANCH   1  11
BRANCH   4  12
ATOM     12  C   UNL     1       6.246   4.558  18.300  0.00  0.00    +0.000 C 
ATOM     13  N   UNL     1       7.483   4.492  18.540  0.00  0.00    +0.000 NA
ENDBRANCH   4  12
TORSDOF 2
ENDMDL
MODEL 4
REMARK VINA RESULT:      -5.3      2.748      4.326
REMARK  Name = 
REMARK  5 active torsions:
REMARK  status: ('A' for Active; 'I' for Inactive)
REMARK    1  A    between atoms: C_1  and  C_2
REMARK    2  A    between atoms: C_2  and  C_3
REMARK    3  A    between atoms: C_4  and  C_5
REMARK    4  A    between atoms: C_6  and  C_7
REMARK    5  A    between atoms: C_12  and  C_13
REMARK                            x       y       z     vdW  Elec       q    Type
REMARK                         _______ _______ _______ _____ _____    ______ ____
ROOT
ATOM      1  C   UNL     1       4.303   5.686  17.028  0.00  0.00    +0.000 C 
ATOM      2  C   UNL     1       3.236   6.015  17.777  0.00  0.00    +0.000 C 
ATOM      3  C   UNL     1       2.823   7.435  18.109  0.00  0.00    +0.000 C 
ATOM      4  C   UNL     1       2.334   4.953  18.363  0.00  0.00    +0.000 C 
ATOM      5  C   UNL     1       2.683   3.513  18.002  0.00  0.00    +0.000 C 
ATOM      6  S   UNL     1       1.620   2.265  18.426  0.00  0.00    +0.000 S 
ATOM      7  N   UNL     1       3.822   3.253  17.280  0.00  0.00    +0.000 NA
ATOM      8  C   UNL     1       4.551   4.213  16.825  0.00  0.00    +0.000 C 
ATOM      9  C   UNL     1       5.753   3.785  16.006  0.00  0.00    +0.000 C 
ENDROOT
BRANCH   1  11
ATOM     10  C   UNL     1       6.401   6.991  17.318  0.00  0.00    +0.000 C 
ATOM     11  C   UNL     1       5.229   6.692  16.400  0.00  0.00    +0.000 C 
ENDBRANCH   1  11
BRANCH   4  12
ATOM     12  C   UNL     1       2.328   5.127  19.872  0.00  0.00    +0.000 C 
ATOM     13  N   UNL     1       2.322   5.271  21.126  0.00  0.00    +0.000 NA
ENDBRANCH   4  12
TORSDOF 2
ENDMDL
MODEL 5
REMARK VINA RESULT:      -5.2      2.321      2.983
REMARK  Name = 
REMARK  5 active torsions:
REMARK  status: ('A' for Active; 'I' for Inactive)
REMARK    1  A    between atoms: C_1  and  C_2
REMARK    2  A    between atoms: C_2  and  C_3
REMARK    3  A    between atoms: C_4  and  C_5
REMARK    4  A    between atoms: C_6  and  C_7
REMARK    5  A    between atoms: C_12  and  C_13
REMARK                            x       y       z     vdW  Elec       q    Type
REMARK                         _______ _______ _______ _____ _____    ______ ____
ROOT
ATOM      1  C   UNL     1       3.695   4.090  18.723  0.00  0.00    +0.000 C 
ATOM      2  C   UNL     1       4.185   4.642  17.600  0.00  0.00    +0.000 C 
ATOM      3  C   UNL     1       5.012   3.901  16.567  0.00  0.00    +0.000 C 
ATOM      4  C   UNL     1       3.938   6.095  17.269  0.00  0.00    +0.000 C 
ATOM      5  C   UNL     1       3.061   6.860  18.255  0.00  0.00    +0.000 C 
ATOM      6  S   UNL     1       2.545   8.427  17.874  0.00  0.00    +0.000 S 
ATOM      7  N   UNL     1       2.644   6.244  19.410  0.00  0.00    +0.000 NA
ATOM      8  C   UNL     1       2.907   5.002  19.629  0.00  0.00    +0.000 C 
ATOM      9  C   UNL     1       2.349   4.438  20.920  0.00  0.00    +0.000 C 
ENDROOT
BRANCH   1  11
ATOM     10  C   UNL     1       2.839   1.772  18.438  0.00  0.00    +0.000 C 
ATOM     11  C   UNL     1       3.888   2.647  19.102  0.00  0.00    +0.000 C 
ENDBRANCH   1  11
BRANCH   4  12
ATOM     12  C   UNL     1       5.287   6.780  17.132  0.00  0.00    +0.000 C 
ATOM     13  N   UNL     1       6.408   7.348  17.018  0.00  0.00    +0.000 NA
ENDBRANCH   4  12
TORSDOF 2
ENDMDL
MODEL 6
REMARK VINA RESULT:      -5.1      2.420      4.231
REMARK  Name = 
REMARK  5 active torsions:
REMARK  status: ('A' for Active; 'I' for Inactive)
REMARK    1  A    between atoms: C_1  and  C_2
REMARK    2  A    between atoms: C_2  and  C_3
REMARK    3  A    between atoms: C_4  and  C_5
REMARK    4  A    between atoms: C_6  and  C_7
REMARK    5  A    between atoms: C_12  and  C_13
REMARK                            x       y       z     vdW  Elec       q    Type
REMARK                         _______ _______ _______ _____ _____    ______ ____
ROOT
ATOM      1  C   UNL     1       6.536   6.253  17.763  0.00  0.00    +0.000 C 
ATOM      2  C   UNL     1       5.317   6.192  17.198  0.00  0.00    +0.000 C 
ATOM      3  C   UNL     1       4.936   6.873  15.898  0.00  0.00    +0.000 C 
ATOM      4  C   UNL     1       4.195   5.410  17.841  0.00  0.00    +0.000 C 
ATOM      5  C   UNL     1       4.555   4.663  19.121  0.00  0.00    +0.000 C 
ATOM      6  S   UNL     1       3.440   3.588  19.803  0.00  0.00    +0.000 S 
ATOM      7  N   UNL     1       5.806   4.821  19.668  0.00  0.00    +0.000 NA
ATOM      8  C   UNL     1       6.708   5.517  19.067  0.00  0.00    +0.000 C 
ATOM      9  C   UNL     1       8.055   5.570  19.759  0.00  0.00    +0.000 C 
ENDROOT
BRANCH   1  11
ATOM     10  C   UNL     1       7.745   8.426  17.682  0.00  0.00    +0.000 C 
ATOM     11  C   UNL     1       7.699   6.998  17.166  0.00  0.00    +0.000 C 
ENDBRANCH   1  11
BRANCH   4  12
ATOM     12  C   UNL     1       3.046   6.369  18.102  0.00  0.00    +0.000 C 
ATOM     13  N   UNL     1       2.092   7.166  18.319  0.00  0.00    +0.000 NA
ENDBRANCH   4  12
TORSDOF 2
ENDMDL
MODEL 7
REMARK VINA RESULT:      -5.1      1.692      2.104
REMARK  Name = 
REMARK  5 active torsions:
REMARK  status: ('A' for Active; 'I' for Inactive)
REMARK    1  A    between atoms: C_1  and  C_2
REMARK    2  A    between atoms: C_2  and  C_3
REMARK    3  A    between atoms: C_4  and  C_5
REMARK    4  A    between atoms: C_6  and  C_7
REMARK    5  A    between atoms: C_12  and  C_13
REMARK                            x       y       z     vdW  Elec       q    Type
REMARK                         _______ _______ _______ _____ _____    ______ ____
ROOT
ATOM      1  C   UNL     1       2.654   3.579  19.449  0.00  0.00    +0.000 C 
ATOM      2  C   UNL     1       2.706   4.884  19.767  0.00  0.00    +0.000 C 
ATOM      3  C   UNL     1       1.719   5.589  20.676  0.00  0.00    +0.000 C 
ATOM      4  C   UNL     1       3.796   5.778  19.222  0.00  0.00    +0.000 C 
ATOM      5  C   UNL     1       4.842   5.093  18.350  0.00  0.00    +0.000 C 
ATOM      6  S   UNL     1       6.219   5.952  17.865  0.00  0.00    +0.000 S 
ATOM      7  N   UNL     1       4.689   3.768  18.022  0.00  0.00    +0.000 NA
ATOM      8  C   UNL     1       3.723   3.072  18.517  0.00  0.00    +0.000 C 
ATOM      9  C   UNL     1       3.699   1.612  18.108  0.00  0.00    +0.000 C 
ENDROOT
BRANCH   1  11
ATOM     10  C   UNL     1       0.475   2.476  18.972  0.00  0.00    +0.000 C 
ATOM     11  C   UNL     1       1.608   2.631  19.972  0.00  0.00    +0.000 C 
ENDBRANCH   1  11
BRANCH   4  12
ATOM     12  C   UNL     1       3.132   6.907  18.452  0.00  0.00    +0.000 C 
ATOM     13  N   UNL     1       2.581   7.845  17.812  0.00  0.00    +0.000 NA
ENDBRANCH   4  12
TORSDOF 2
ENDMDL
MODEL 8
REMARK VINA RESULT:      -5.0      2.589      4.585
REMARK  Name = 
REMARK  5 active torsions:
REMARK  status: ('A' for Active; 'I' for Inactive)
REMARK    1  A    between atoms: C_1  and  C_2
REMARK    2  A    between atoms: C_2  and  C_3
REMARK    3  A    between atoms: C_4  and  C_5
REMARK    4  A    between atoms: C_6  and  C_7
REMARK    5  A    between atoms: C_12  and  C_13
REMARK                            x       y       z     vdW  Elec       q    Type
REMARK                         _______ _______ _______ _____ _____    ______ ____
ROOT
ATOM      1  C   UNL     1       4.470   6.102  17.995  0.00  0.00    +0.000 C 
ATOM      2  C   UNL     1       4.909   4.910  18.435  0.00  0.00    +0.000 C 
ATOM      3  C   UNL     1       6.233   4.284  18.043  0.00  0.00    +0.000 C 
ATOM      4  C   UNL     1       4.086   4.075  19.388  0.00  0.00    +0.000 C 
ATOM      5  C   UNL     1       2.773   4.697  19.851  0.00  0.00    +0.000 C 
ATOM      6  S   UNL     1       1.880   3.948  21.078  0.00  0.00    +0.000 S 
ATOM      7  N   UNL     1       2.364   5.894  19.313  0.00  0.00    +0.000 NA
ATOM      8  C   UNL     1       3.117   6.542  18.492  0.00  0.00    +0.000 C 
ATOM      9  C   UNL     1       2.562   7.868  18.012  0.00  0.00    +0.000 C 
ENDROOT
BRANCH   1  11
ATOM     10  C   UNL     1       5.104   6.516  15.626  0.00  0.00    +0.000 C 
ATOM     11  C   UNL     1       5.247   6.990  17.062  0.00  0.00    +0.000 C 
ENDBRANCH   1  11
BRANCH   4  12
ATOM     12  C   UNL     1       3.823   2.733  18.727  0.00  0.00    +0.000 C 
ATOM     13  N   UNL     1       3.605   1.618  18.178  0.00  0.00    +0.000 NA
ENDBRANCH   4  12
TORSDOF 2
ENDMDL
MODEL 9
REMARK VINA RESULT:      -5.0      2.488      3.203
REMARK  Name = 
REMARK  5 active torsions:
REMARK  status: ('A' for Active; 'I' for Inactive)
REMARK    1  A    between atoms: C_1  and  C_2
REMARK    2  A    between atoms: C_2  and  C_3
REMARK    3  A    between atoms: C_4  and  C_5
REMARK    4  A    between atoms: C_6  and  C_7
REMARK    5  A    between atoms: C_12  and  C_13
REMARK                            x       y       z     vdW  Elec       q    Type
REMARK                         _______ _______ _______ _____ _____    ______ ____
ROOT
ATOM      1  C   UNL     1       4.914   4.269  18.394  0.00  0.00    +0.000 C 
ATOM      2  C   UNL     1       6.147   4.803  18.375  0.00  0.00    +0.000 C 
ATOM      3  C   UNL     1       6.942   5.178  19.610  0.00  0.00    +0.000 C 
ATOM      4  C   UNL     1       6.861   5.077  17.071  0.00  0.00    +0.000 C 
ATOM      5  C   UNL     1       6.117   4.659  15.807  0.00  0.00    +0.000 C 
ATOM      6  S   UNL     1       6.909   4.722  14.312  0.00  0.00    +0.000 S 
ATOM      7  N   UNL     1       4.835   4.173  15.905  0.00  0.00    +0.000 NA
ATOM      8  C   UNL     1       4.287   3.979  17.055  0.00  0.00    +0.000 C 
ATOM      9  C   UNL     1       2.888   3.397  17.017  0.00  0.00    +0.000 C 
ENDROOT
BRANCH   1  11
ATOM     10  C   UNL     1       4.353   2.501  20.053  0.00  0.00    +0.000 C 
ATOM     11  C   UNL     1       4.157   3.954  19.656  0.00  0.00    +0.000 C 
ENDBRANCH   1  11
BRANCH   4  12
ATOM     12  C   UNL     1       7.186   6.560  17.019  0.00  0.00    +0.000 C 
ATOM     13  N   UNL     1       7.456   7.792  16.975  0.00  0.00    +0.000 NA
ENDBRANCH   4  12
TORSDOF 2
ENDMDL
