MODEL 1
REMARK VINA RESULT:      -6.8      0.000      0.000
REMARK  Name = 
REMARK  6 active torsions:
REMARK  status: ('A' for Active; 'I' for Inactive)
REMARK    1  A    between atoms: C_1  and  C_2
REMARK    2  A    between atoms: C_2  and  N_3
REMARK    3  A    between atoms: C_4  and  S_5
REMARK    4  A    between atoms: S_5  and  C_6
REMARK    5  A    between atoms: C_6  and  C_7
REMARK    6  A    between atoms: C_14  and  C_15
REMARK                            x       y       z     vdW  Elec       q    Type
REMARK                         _______ _______ _______ _____ _____    ______ ____
ROOT
ATOM      1  N   UNL     1       4.446   5.630  18.476  0.00  0.00    +0.000 N 
ATOM      2  C   UNL     1       3.265   6.396  18.462  0.00  0.00    +0.000 A 
ATOM      3  N   UNL     1       2.157   6.094  19.076  0.00  0.00    +0.000 NA
ATOM      4  C   UNL     1       2.182   4.888  19.781  0.00  0.00    +0.000 A 
ATOM      5  C   UNL     1       1.082   4.369  20.497  0.00  0.00    +0.000 A 
ATOM      6  C   UNL     1       1.398   3.156  21.081  0.00  0.00    +0.000 A 
ATOM      7  S   UNL     1       3.016   2.681  20.745  0.00  0.00    +0.000 S 
ATOM      8  C   UNL     1       3.280   4.085  19.833  0.00  0.00    +0.000 A 
ATOM      9  C   UNL     1       4.506   4.408  19.174  0.00  0.00    +0.000 A 
ATOM     10  O   UNL     1       5.507   3.693  19.193  0.00  0.00    +0.000 OA
ENDROOT
BRANCH   1  12
ATOM     11  C   UNL     1       5.601   5.482  16.294  0.00  0.00    +0.000 C 
ATOM     12  C   UNL     1       5.670   5.967  17.738  0.00  0.00    +0.000 C 
ENDBRANCH   1  12
BRANCH   2  13
ATOM     13  S   UNL     1       3.277   7.900  17.532  0.00  0.00    +0.000 S 
BRANCH  13  14
ATOM     14  C   UNL     1       1.666   8.650  17.967  0.00  0.00    +0.000 C 
BRANCH  14  15
ATOM     15  C   UNL     1       1.736  10.182  18.107  0.00  0.00    +0.000 C 
ATOM     16  O   UNL     1       2.680  10.840  17.666  0.00  0.00    +0.000 OA
ATOM     17  N   UNL     1       0.649  10.814  18.738  0.00  0.00    +0.000 N 
ATOM     18  C   UNL     1       0.582  12.282  18.735  0.00  0.00    +0.000 C 
ATOM     19  C   UNL     1      -0.772  12.770  18.211  0.00  0.00    +0.000 C 
ATOM     20  C   UNL     1      -1.945  12.109  18.933  0.00  0.00    +0.000 C 
ATOM     21  C   UNL     1      -1.796  10.588  18.940  0.00  0.00    +0.000 C 
ATOM     22  C   UNL     1      -0.429  10.131  19.478  0.00  0.00    +0.000 C 
ATOM     23  C   UNL     1      -0.317  10.364  20.993  0.00  0.00    +0.000 C 
ENDBRANCH  14  15
ENDBRANCH  13  14
ENDBRANCH   2  13
TORSDOF 4
ENDMDL
MODEL 2
REMARK VINA RESULT:      -6.8      2.239      3.802
REMARK  Name = 
REMARK  6 active torsions:
REMARK  status: ('A' for Active; 'I' for Inactive)
REMARK    1  A    between atoms: C_1  and  C_2
REMARK    2  A    between atoms: C_2  and  N_3
REMARK    3  A    between atoms: C_4  and  S_5
REMARK    4  A    between atoms: S_5  and  C_6
REMARK    5  A    between atoms: C_6  and  C_7
REMARK    6  A    between atoms: C_14  and  C_15
REMARK                            x       y       z     vdW  Elec       q    Type
REMARK                         _______ _______ _______ _____ _____    ______ ____
ROOT
ATOM      1  N   UNL     1       2.997   4.021  18.857  0.00  0.00    +0.000 N 
ATOM      2  C   UNL     1       2.972   5.426  18.958  0.00  0.00    +0.000 A 
ATOM      3  N   UNL     1       3.601   6.255  18.174  0.00  0.00    +0.000 NA
ATOM      4  C   UNL     1       4.368   5.653  17.173  0.00  0.00    +0.000 A 
ATOM      5  C   UNL     1       5.140   6.370  16.233  0.00  0.00    +0.000 A 
ATOM      6  C   UNL     1       5.801   5.510  15.376  0.00  0.00    +0.000 A 
ATOM      7  S   UNL     1       5.470   3.861  15.734  0.00  0.00    +0.000 S 
ATOM      8  C   UNL     1       4.455   4.304  17.017  0.00  0.00    +0.000 A 
ATOM      9  C   UNL     1       3.762   3.382  17.862  0.00  0.00    +0.000 A 
ATOM     10  O   UNL     1       3.835   2.160  17.752  0.00  0.00    +0.000 OA
ENDROOT
BRANCH   1  12
ATOM     11  C   UNL     1       0.913   2.763  19.295  0.00  0.00    +0.000 C 
ATOM     12  C   UNL     1       2.317   3.105  19.781  0.00  0.00    +0.000 C 
ENDBRANCH   1  12
BRANCH   2  13
ATOM     13  S   UNL     1       2.008   6.135  20.259  0.00  0.00    +0.000 S 
BRANCH  13  14
ATOM     14  C   UNL     1       1.966   7.906  19.804  0.00  0.00    +0.000 C 
BRANCH  14  15
ATOM     15  C   UNL     1       1.112   8.753  20.766  0.00  0.00    +0.000 C 
ATOM     16  O   UNL     1       0.919   8.422  21.937  0.00  0.00    +0.000 OA
ATOM     17  N   UNL     1       0.580   9.951  20.259  0.00  0.00    +0.000 N 
ATOM     18  C   UNL     1      -0.087  10.880  21.182  0.00  0.00    +0.000 C 
ATOM     19  C   UNL     1       0.492  12.292  21.056  0.00  0.00    +0.000 C 
ATOM     20  C   UNL     1       0.514  12.783  19.610  0.00  0.00    +0.000 C 
ATOM     21  C   UNL     1       1.179  11.758  18.693  0.00  0.00    +0.000 C 
ATOM     22  C   UNL     1       0.570  10.353  18.839  0.00  0.00    +0.000 C 
ATOM     23  C   UNL     1      -0.844  10.290  18.239  0.00  0.00    +0.000 C 
ENDBRANCH  14  15
ENDBRANCH  13  14
ENDBRANCH   2  13
TORSDOF 4
ENDMDL
MODEL 3
REMARK VINA RESULT:      -6.7      2.962      7.930
REMARK  Name = 
REMARK  6 active torsions:
REMARK  status: ('A' for Active; 'I' for Inactive)
REMARK    1  A    between atoms: C_1  and  C_2
REMARK    2  A    between atoms: C_2  and  N_3
REMARK    3  A    between atoms: C_4  and  S_5
REMARK    4  A    between atoms: S_5  and  C_6
REMARK    5  A    between atoms: C_6  and  C_7
REMARK    6  A    between atoms: C_14  and  C_15
REMARK                            x       y       z     vdW  Elec       q    Type
REMARK                         _______ _______ _______ _____ _____    ______ ____
ROOT
ATOM      1  N   UNL     1      -0.996  11.585  19.761  0.00  0.00    +0.000 N 
ATOM      2  C   UNL     1      -0.203  10.732  18.970  0.00  0.00    +0.000 A 
ATOM      3  N   UNL     1      -0.570  10.175  17.851  0.00  0.00    +0.000 NA
ATOM      4  C   UNL     1      -1.878  10.461  17.451  0.00  0.00    +0.000 A 
ATOM      5  C   UNL     1      -2.477   9.943  16.282  0.00  0.00    +0.000 A 
ATOM      6  C   UNL     1      -3.779  10.388  16.153  0.00  0.00    +0.000 A 
ATOM      7  S   UNL     1      -4.240  11.418  17.451  0.00  0.00    +0.000 S 
ATOM      8  C   UNL     1      -2.711  11.264  18.166  0.00  0.00    +0.000 A 
ATOM      9  C   UNL     1      -2.319  11.892  19.389  0.00  0.00    +0.000 A 
ATOM     10  O   UNL     1      -3.057  12.610  20.062  0.00  0.00    +0.000 OA
ENDROOT
BRANCH   1  12
ATOM     11  C   UNL     1      -0.882  11.226  22.206  0.00  0.00    +0.000 C 
ATOM     12  C   UNL     1      -0.576  12.164  21.044  0.00  0.00    +0.000 C 
ENDBRANCH   1  12
BRANCH   2  13
ATOM     13  S   UNL     1       1.435  10.380  19.535  0.00  0.00    +0.000 S 
BRANCH  13  14
ATOM     14  C   UNL     1       1.705   8.673  18.935  0.00  0.00    +0.000 C 
BRANCH  14  15
ATOM     15  C   UNL     1       1.754   7.637  20.073  0.00  0.00    +0.000 C 
ATOM     16  O   UNL     1       1.486   7.930  21.240  0.00  0.00    +0.000 OA
ATOM     17  N   UNL     1       2.089   6.318  19.720  0.00  0.00    +0.000 N 
ATOM     18  C   UNL     1       1.973   5.260  20.733  0.00  0.00    +0.000 C 
ATOM     19  C   UNL     1       1.135   4.089  20.212  0.00  0.00    +0.000 C 
ATOM     20  C   UNL     1       1.626   3.582  18.857  0.00  0.00    +0.000 C 
ATOM     21  C   UNL     1       1.768   4.732  17.861  0.00  0.00    +0.000 C 
ATOM     22  C   UNL     1       2.620   5.888  18.413  0.00  0.00    +0.000 C 
ATOM     23  C   UNL     1       4.104   5.498  18.501  0.00  0.00    +0.000 C 
ENDBRANCH  14  15
ENDBRANCH  13  14
ENDBRANCH   2  13
TORSDOF 4
ENDMDL
MODEL 4
REMARK VINA RESULT:      -6.6      2.886      8.012
REMARK  Name = 
REMARK  6 active torsions:
REMARK  status: ('A' for Active; 'I' for Inactive)
REMARK    1  A    between atoms: C_1  and  C_2
REMARK    2  A    between atoms: C_2  and  N_3
REMARK    3  A    between atoms: C_4  and  S_5
REMARK    4  A    between atoms: S_5  and  C_6
REMARK    5  A    between atoms: C_6  and  C_7
REMARK    6  A    between atoms: C_14  and  C_15
REMARK                            x       y       z     vdW  Elec       q    Type
REMARK                         _______ _______ _______ _____ _____    ______ ____
ROOT
ATOM      1  N   UNL     1       0.851  10.602  20.016  0.00  0.00    +0.000 N 
ATOM      2  C   UNL     1       1.433  10.494  18.738  0.00  0.00    +0.000 A 
ATOM      3  N   UNL     1       2.100  11.429  18.126  0.00  0.00    +0.000 NA
ATOM      4  C   UNL     1       2.207  12.633  18.827  0.00  0.00    +0.000 A 
ATOM      5  C   UNL     1       2.872  13.778  18.335  0.00  0.00    +0.000 A 
ATOM      6  C   UNL     1       2.803  14.819  19.241  0.00  0.00    +0.000 A 
ATOM      7  S   UNL     1       1.934  14.384  20.660  0.00  0.00    +0.000 S 
ATOM      8  C   UNL     1       1.662  12.822  20.060  0.00  0.00    +0.000 A 
ATOM      9  C   UNL     1       0.937  11.801  20.750  0.00  0.00    +0.000 A 
ATOM     10  O   UNL     1       0.423  11.951  21.857  0.00  0.00    +0.000 OA
ENDROOT
BRANCH   1  12
ATOM     11  C   UNL     1       0.940   8.641  21.520  0.00  0.00    +0.000 C 
ATOM     12  C   UNL     1       0.062   9.549  20.667  0.00  0.00    +0.000 C 
ENDBRANCH   1  12
BRANCH   2  13
ATOM     13  S   UNL     1       1.244   8.958  17.882  0.00  0.00    +0.000 S 
BRANCH  13  14
ATOM     14  C   UNL     1       2.967   8.354  17.765  0.00  0.00    +0.000 C 
BRANCH  14  15
ATOM     15  C   UNL     1       3.132   6.910  18.276  0.00  0.00    +0.000 C 
ATOM     16  O   UNL     1       2.389   6.427  19.131  0.00  0.00    +0.000 OA
ATOM     17  N   UNL     1       4.159   6.144  17.697  0.00  0.00    +0.000 N 
ATOM     18  C   UNL     1       4.243   4.712  18.016  0.00  0.00    +0.000 C 
ATOM     19  C   UNL     1       4.303   3.866  16.741  0.00  0.00    +0.000 C 
ATOM     20  C   UNL     1       5.393   4.340  15.781  0.00  0.00    +0.000 C 
ATOM     21  C   UNL     1       5.280   5.842  15.523  0.00  0.00    +0.000 C 
ATOM     22  C   UNL     1       5.229   6.662  16.824  0.00  0.00    +0.000 C 
ATOM     23  C   UNL     1       6.591   6.670  17.534  0.00  0.00    +0.000 C 
ENDBRANCH  14  15
ENDBRANCH  13  14
ENDBRANCH   2  13
TORSDOF 4
ENDMDL
MODEL 5
REMARK VINA RESULT:      -6.6      1.380      1.770
REMARK  Name = 
REMARK  6 active torsions:
REMARK  status: ('A' for Active; 'I' for Inactive)
REMARK    1  A    between atoms: C_1  and  C_2
REMARK    2  A    between atoms: C_2  and  N_3
REMARK    3  A    between atoms: C_4  and  S_5
REMARK    4  A    between atoms: S_5  and  C_6
REMARK    5  A    between atoms: C_6  and  C_7
REMARK    6  A    between atoms: C_14  and  C_15
REMARK                            x       y       z     vdW  Elec       q    Type
REMARK                         _______ _______ _______ _____ _____    ______ ____
ROOT
ATOM      1  N   UNL     1       3.953   5.975  17.931  0.00  0.00    +0.000 N 
ATOM      2  C   UNL     1       2.929   6.684  18.588  0.00  0.00    +0.000 A 
ATOM      3  N   UNL     1       2.233   6.249  19.599  0.00  0.00    +0.000 NA
ATOM      4  C   UNL     1       2.552   4.956  20.022  0.00  0.00    +0.000 A 
ATOM      5  C   UNL     1       1.904   4.291  21.087  0.00  0.00    +0.000 A 
ATOM      6  C   UNL     1       2.421   3.022  21.267  0.00  0.00    +0.000 A 
ATOM      7  S   UNL     1       3.673   2.670  20.142  0.00  0.00    +0.000 S 
ATOM      8  C   UNL     1       3.518   4.201  19.432  0.00  0.00    +0.000 A 
ATOM      9  C   UNL     1       4.298   4.669  18.329  0.00  0.00    +0.000 A 
ATOM     10  O   UNL     1       5.167   4.002  17.769  0.00  0.00    +0.000 OA
ENDROOT
BRANCH   1  12
ATOM     11  C   UNL     1       6.047   7.044  17.162  0.00  0.00    +0.000 C 
ATOM     12  C   UNL     1       4.693   6.467  16.762  0.00  0.00    +0.000 C 
ENDBRANCH   1  12
BRANCH   2  13
ATOM     13  S   UNL     1       2.547   8.305  17.996  0.00  0.00    +0.000 S 
BRANCH  13  14
ATOM     14  C   UNL     1       1.406   8.938  19.277  0.00  0.00    +0.000 C 
BRANCH  14  15
ATOM     15  C   UNL     1       0.380   9.945  18.723  0.00  0.00    +0.000 C 
ATOM     16  O   UNL     1      -0.168   9.790  17.630  0.00  0.00    +0.000 OA
ATOM     17  N   UNL     1       0.065  11.047  19.537  0.00  0.00    +0.000 N 
ATOM     18  C   UNL     1      -1.035  11.935  19.137  0.00  0.00    +0.000 C 
ATOM     19  C   UNL     1      -2.039  12.118  20.279  0.00  0.00    +0.000 C 
ATOM     20  C   UNL     1      -1.362  12.538  21.583  0.00  0.00    +0.000 C 
ATOM     21  C   UNL     1      -0.202  11.604  21.923  0.00  0.00    +0.000 C 
ATOM     22  C   UNL     1       0.791  11.447  20.758  0.00  0.00    +0.000 C 
ATOM     23  C   UNL     1       1.607  12.731  20.541  0.00  0.00    +0.000 C 
ENDBRANCH  14  15
ENDBRANCH  13  14
ENDBRANCH   2  13
TORSDOF 4
ENDMDL
MODEL 6
REMARK VINA RESULT:      -6.6      1.614      2.000
REMARK  Name = 
REMARK  6 active torsions:
REMARK  status: ('A' for Active; 'I' for Inactive)
REMARK    1  A    between atoms: C_1  and  C_2
REMARK    2  A    between atoms: C_2  and  N_3
REMARK    3  A    between atoms: C_4  and  S_5
REMARK    4  A    between atoms: S_5  and  C_6
REMARK    5  A    between atoms: C_6  and  C_7
REMARK    6  A    between atoms: C_14  and  C_15
REMARK                            x       y       z     vdW  Elec       q    Type
REMARK                         _______ _______ _______ _____ _____    ______ ____
ROOT
ATOM      1  N   UNL     1       3.816   5.836  17.729  0.00  0.00    +0.000 N 
ATOM      2  C   UNL     1       2.889   6.676  18.375  0.00  0.00    +0.000 A 
ATOM      3  N   UNL     1       2.058   6.314  19.310  0.00  0.00    +0.000 NA
ATOM      4  C   UNL     1       2.114   4.961  19.656  0.00  0.00    +0.000 A 
ATOM      5  C   UNL     1       1.287   4.361  20.631  0.00  0.00    +0.000 A 
ATOM      6  C   UNL     1       1.559   3.011  20.749  0.00  0.00    +0.000 A 
ATOM      7  S   UNL     1       2.806   2.508  19.677  0.00  0.00    +0.000 S 
ATOM      8  C   UNL     1       2.972   4.082  19.071  0.00  0.00    +0.000 A 
ATOM      9  C   UNL     1       3.898   4.467  18.052  0.00  0.00    +0.000 A 
ATOM     10  O   UNL     1       4.673   3.691  17.497  0.00  0.00    +0.000 OA
ENDROOT
BRANCH   1  12
ATOM     11  C   UNL     1       6.043   6.766  17.185  0.00  0.00    +0.000 C 
ATOM     12  C   UNL     1       4.711   6.257  16.644  0.00  0.00    +0.000 C 
ENDBRANCH   1  12
BRANCH   2  13
ATOM     13  S   UNL     1       2.840   8.373  17.879  0.00  0.00    +0.000 S 
BRANCH  13  14
ATOM     14  C   UNL     1       1.165   8.892  18.401  0.00  0.00    +0.000 C 
BRANCH  14  15
ATOM     15  C   UNL     1       1.155  10.256  19.116  0.00  0.00    +0.000 C 
ATOM     16  O   UNL     1       1.378  11.311  18.521  0.00  0.00    +0.000 OA
ATOM     17  N   UNL     1       0.846  10.253  20.488  0.00  0.00    +0.000 N 
ATOM     18  C   UNL     1       0.646  11.537  21.174  0.00  0.00    +0.000 C 
ATOM     19  C   UNL     1      -0.686  11.557  21.930  0.00  0.00    +0.000 C 
ATOM     20  C   UNL     1      -0.850  10.345  22.846  0.00  0.00    +0.000 C 
ATOM     21  C   UNL     1      -0.587   9.045  22.088  0.00  0.00    +0.000 C 
ATOM     22  C   UNL     1       0.761   9.056  21.346  0.00  0.00    +0.000 C 
ATOM     23  C   UNL     1       1.941   8.972  22.327  0.00  0.00    +0.000 C 
ENDBRANCH  14  15
ENDBRANCH  13  14
ENDBRANCH   2  13
TORSDOF 4
ENDMDL
MODEL 7
REMARK VINA RESULT:      -6.4      1.577      3.248
REMARK  Name = 
REMARK  6 active torsions:
REMARK  status: ('A' for Active; 'I' for Inactive)
REMARK    1  A    between atoms: C_1  and  C_2
REMARK    2  A    between atoms: C_2  and  N_3
REMARK    3  A    between atoms: C_4  and  S_5
REMARK    4  A    between atoms: S_5  and  C_6
REMARK    5  A    between atoms: C_6  and  C_7
REMARK    6  A    between atoms: C_14  and  C_15
REMARK                            x       y       z     vdW  Elec       q    Type
REMARK                         _______ _______ _______ _____ _____    ______ ____
ROOT
ATOM      1  N   UNL     1       2.826   5.170  18.433  0.00  0.00    +0.000 N 
ATOM      2  C   UNL     1       3.125   6.530  18.222  0.00  0.00    +0.000 A 
ATOM      3  N   UNL     1       4.040   6.990  17.418  0.00  0.00    +0.000 NA
ATOM      4  C   UNL     1       4.776   6.014  16.741  0.00  0.00    +0.000 A 
ATOM      5  C   UNL     1       5.824   6.300  15.840  0.00  0.00    +0.000 A 
ATOM      6  C   UNL     1       6.375   5.136  15.335  0.00  0.00    +0.000 A 
ATOM      7  S   UNL     1       5.609   3.733  15.968  0.00  0.00    +0.000 S 
ATOM      8  C   UNL     1       4.557   4.681  16.900  0.00  0.00    +0.000 A 
ATOM      9  C   UNL     1       3.549   4.160  17.770  0.00  0.00    +0.000 A 
ATOM     10  O   UNL     1       3.341   2.961  17.942  0.00  0.00    +0.000 OA
ENDROOT
BRANCH   1  12
ATOM     11  C   UNL     1       2.402   4.522  20.783  0.00  0.00    +0.000 C 
ATOM     12  C   UNL     1       1.821   4.673  19.381  0.00  0.00    +0.000 C 
ENDBRANCH   1  12
BRANCH   2  13
ATOM     13  S   UNL     1       2.183   7.723  19.125  0.00  0.00    +0.000 S 
BRANCH  13  14
ATOM     14  C   UNL     1       1.561   8.822  17.801  0.00  0.00    +0.000 C 
BRANCH  14  15
ATOM     15  C   UNL     1       1.711  10.317  18.142  0.00  0.00    +0.000 C 
ATOM     16  O   UNL     1       2.712  10.965  17.829  0.00  0.00    +0.000 OA
ATOM     17  N   UNL     1       0.634  10.931  18.805  0.00  0.00    +0.000 N 
ATOM     18  C   UNL     1       0.650  12.388  18.990  0.00  0.00    +0.000 C 
ATOM     19  C   UNL     1      -0.646  13.024  18.479  0.00  0.00    +0.000 C 
ATOM     20  C   UNL     1      -1.889  12.351  19.060  0.00  0.00    +0.000 C 
ATOM     21  C   UNL     1      -1.828  10.835  18.876  0.00  0.00    +0.000 C 
ATOM     22  C   UNL     1      -0.517  10.229  19.405  0.00  0.00    +0.000 C 
ATOM     23  C   UNL     1      -0.465  10.259  20.940  0.00  0.00    +0.000 C 
ENDBRANCH  14  15
ENDBRANCH  13  14
ENDBRANCH   2  13
TORSDOF 4
ENDMDL
MODEL 8
REMARK VINA RESULT:      -6.4      0.844      1.056
REMARK  Name = 
REMARK  6 active torsions:
REMARK  status: ('A' for Active; 'I' for Inactive)
REMARK    1  A    between atoms: C_1  and  C_2
REMARK    2  A    between atoms: C_2  and  N_3
REMARK    3  A    between atoms: C_4  and  S_5
REMARK    4  A    between atoms: S_5  and  C_6
REMARK    5  A    between atoms: C_6  and  C_7
REMARK    6  A    between atoms: C_14  and  C_15
REMARK                            x       y       z     vdW  Elec       q    Type
REMARK                         _______ _______ _______ _____ _____    ______ ____
ROOT
ATOM      1  N   UNL     1       4.503   5.346  18.374  0.00  0.00    +0.000 N 
ATOM      2  C   UNL     1       3.402   6.222  18.418  0.00  0.00    +0.000 A 
ATOM      3  N   UNL     1       2.313   6.039  19.110  0.00  0.00    +0.000 NA
ATOM      4  C   UNL     1       2.272   4.848  19.840  0.00  0.00    +0.000 A 
ATOM      5  C   UNL     1       1.177   4.450  20.638  0.00  0.00    +0.000 A 
ATOM      6  C   UNL     1       1.416   3.223  21.229  0.00  0.00    +0.000 A 
ATOM      7  S   UNL     1       2.955   2.588  20.800  0.00  0.00    +0.000 S 
ATOM      8  C   UNL     1       3.289   3.944  19.840  0.00  0.00    +0.000 A 
ATOM      9  C   UNL     1       4.494   4.136  19.095  0.00  0.00    +0.000 A 
ATOM     10  O   UNL     1       5.421   3.329  19.067  0.00  0.00    +0.000 OA
ENDROOT
BRANCH   1  12
ATOM     11  C   UNL     1       6.822   6.207  18.349  0.00  0.00    +0.000 C 
ATOM     12  C   UNL     1       5.701   5.551  17.550  0.00  0.00    +0.000 C 
ENDBRANCH   1  12
BRANCH   2  13
ATOM     13  S   UNL     1       3.494   7.701  17.454  0.00  0.00    +0.000 S 
BRANCH  13  14
ATOM     14  C   UNL     1       1.869   8.482  17.766  0.00  0.00    +0.000 C 
BRANCH  14  15
ATOM     15  C   UNL     1       1.984   9.965  18.166  0.00  0.00    +0.000 C 
ATOM     16  O   UNL     1       2.670  10.766  17.529  0.00  0.00    +0.000 OA
ATOM     17  N   UNL     1       1.238  10.383  19.282  0.00  0.00    +0.000 N 
ATOM     18  C   UNL     1       1.169  11.817  19.595  0.00  0.00    +0.000 C 
ATOM     19  C   UNL     1      -0.282  12.279  19.749  0.00  0.00    +0.000 C 
ATOM     20  C   UNL     1      -1.067  11.405  20.727  0.00  0.00    +0.000 C 
ATOM     21  C   UNL     1      -0.922   9.925  20.377  0.00  0.00    +0.000 C 
ATOM     22  C   UNL     1       0.548   9.493  20.236  0.00  0.00    +0.000 C 
ATOM     23  C   UNL     1       1.256   9.460  21.599  0.00  0.00    +0.000 C 
ENDBRANCH  14  15
ENDBRANCH  13  14
ENDBRANCH   2  13
TORSDOF 4
ENDMDL
MODEL 9
REMARK VINA RESULT:      -6.4      1.726      2.127
REMARK  Name = 
REMARK  6 active torsions:
REMARK  status: ('A' for Active; 'I' for Inactive)
REMARK    1  A    between atoms: C_1  and  C_2
REMARK    2  A    between atoms: C_2  and  N_3
REMARK    3  A    between atoms: C_4  and  S_5
REMARK    4  A    between atoms: S_5  and  C_6
REMARK    5  A    between atoms: C_6  and  C_7
REMARK    6  A    between atoms: C_14  and  C_15
REMARK                            x       y       z     vdW  Elec       q    Type
REMARK                         _______ _______ _______ _____ _____    ______ ____
ROOT
ATOM      1  N   UNL     1       4.209   5.783  17.111  0.00  0.00    +0.000 N 
ATOM      2  C   UNL     1       3.168   6.446  17.790  0.00  0.00    +0.000 A 
ATOM      3  N   UNL     1       2.203   5.870  18.448  0.00  0.00    +0.000 NA
ATOM      4  C   UNL     1       2.234   4.473  18.437  0.00  0.00    +0.000 A 
ATOM      5  C   UNL     1       1.272   3.658  19.073  0.00  0.00    +0.000 A 
ATOM      6  C   UNL     1       1.553   2.318  18.881  0.00  0.00    +0.000 A 
ATOM      7  S   UNL     1       2.971   2.085  17.938  0.00  0.00    +0.000 S 
ATOM      8  C   UNL     1       3.197   3.759  17.795  0.00  0.00    +0.000 A 
ATOM      9  C   UNL     1       4.269   4.376  17.078  0.00  0.00    +0.000 A 
ATOM     10  O   UNL     1       5.144   3.754  16.478  0.00  0.00    +0.000 OA
ENDROOT
BRANCH   1  12
ATOM     11  C   UNL     1       6.475   6.771  17.201  0.00  0.00    +0.000 C 
ATOM     12  C   UNL     1       5.261   6.453  16.336  0.00  0.00    +0.000 C 
ENDBRANCH   1  12
BRANCH   2  13
ATOM     13  S   UNL     1       3.161   8.213  17.748  0.00  0.00    +0.000 S 
BRANCH  13  14
ATOM     14  C   UNL     1       1.407   8.612  18.084  0.00  0.00    +0.000 C 
BRANCH  14  15
ATOM     15  C   UNL     1       1.169   9.103  19.524  0.00  0.00    +0.000 C 
ATOM     16  O   UNL     1       1.579   8.483  20.507  0.00  0.00    +0.000 OA
ATOM     17  N   UNL     1       0.483  10.322  19.676  0.00  0.00    +0.000 N 
ATOM     18  C   UNL     1       0.390  10.923  21.014  0.00  0.00    +0.000 C 
ATOM     19  C   UNL     1       0.862  12.379  20.998  0.00  0.00    +0.000 C 
ATOM     20  C   UNL     1       0.169  13.201  19.912  0.00  0.00    +0.000 C 
ATOM     21  C   UNL     1       0.262  12.505  18.555  0.00  0.00    +0.000 C 
ATOM     22  C   UNL     1      -0.226  11.047  18.605  0.00  0.00    +0.000 C 
ATOM     23  C   UNL     1      -1.751  10.972  18.778  0.00  0.00    +0.000 C 
ENDBRANCH  14  15
ENDBRANCH  13  14
ENDBRANCH   2  13
TORSDOF 4
ENDMDL
