MODEL 1
REMARK VINA RESULT:      -7.9      0.000      0.000
REMARK  Name = 
REMARK  10 active torsions:
REMARK  status: ('A' for Active; 'I' for Inactive)
REMARK    1  A    between atoms: C_2  and  C_3
REMARK    2  A    between atoms: C_2  and  C_29
REMARK    3  A    between atoms: C_6  and  O_7
REMARK    4  A    between atoms: O_7  and  C_8
REMARK    5  A    between atoms: C_8  and  C_9
REMARK    6  A    between atoms: C_9  and  C_10
REMARK    7  A    between atoms: C_10  and  N_11
REMARK    8  A    between atoms: C_14  and  N_15
REMARK    9  A    between atoms: N_15  and  S_16
REMARK   10  A    between atoms: S_16  and  C_19
REMARK                            x       y       z     vdW  Elec       q    Type
REMARK                         _______ _______ _______ _____ _____    ______ ____
ROOT
ATOM      1  N   UNL     1       1.805   2.923  19.110  0.00  0.00    +0.000 NA
ATOM      2  C   UNL     1       2.221   1.569  18.693  0.00  0.00    +0.000 C 
ATOM      3  C   UNL     1       3.744   1.567  18.758  0.00  0.00    +0.000 C 
ATOM      4  C   UNL     1       4.135   3.000  18.403  0.00  0.00    +0.000 C 
ATOM      5  C   UNL     1       2.829   3.796  18.505  0.00  0.00    +0.000 C 
ENDROOT
BRANCH   4   6
ATOM      6  N   UNL     1       5.203   3.485  19.306  0.00  0.00    +0.000 NA
ATOM      7  H   UNL     1       5.135   3.216  20.287  0.00  0.00    +0.000 HD
BRANCH   6   8
ATOM      8  S   UNL     1       5.771   5.068  19.095  0.00  0.00    +0.000 S 
ATOM      9  O   UNL     1       4.683   5.964  19.427  0.00  0.00    +0.000 OA
ATOM     10  O   UNL     1       7.057   5.165  19.756  0.00  0.00    +0.000 OA
BRANCH   8  11
ATOM     11  C   UNL     1       6.046   5.223  17.358  0.00  0.00    +0.000 A 
ATOM     12  C   UNL     1       5.100   5.860  16.545  0.00  0.00    +0.000 A 
ATOM     13  C   UNL     1       5.292   5.897  15.161  0.00  0.00    +0.000 A 
ATOM     14  C   UNL     1       6.408   5.285  14.590  0.00  0.00    +0.000 A 
ATOM     15  C   UNL     1       7.348   4.650  15.407  0.00  0.00    +0.000 A 
ATOM     16  C   UNL     1       7.164   4.626  16.788  0.00  0.00    +0.000 A 
ATOM     17  F   UNL     1       8.101   4.045  17.549  0.00  0.00    +0.000 F 
ENDBRANCH   8  11
ENDBRANCH   6   8
ENDBRANCH   4   6
BRANCH   1  18
ATOM     18  C   UNL     1       1.713   3.008  20.575  0.00  0.00    +0.000 C 
BRANCH  18  19
ATOM     19  C   UNL     1       2.031   4.369  21.199  0.00  0.00    +0.000 C 
BRANCH  19  20
ATOM     20  C   UNL     1       1.184   5.540  20.706  0.00  0.00    +0.000 C 
BRANCH  20  21
ATOM     21  O   UNL     1       2.079   6.659  20.665  0.00  0.00    +0.000 OA
BRANCH  21  25
ATOM     22  C   UNL     1       0.703  10.375  19.381  0.00  0.00    +0.000 A 
ATOM     23  C   UNL     1       0.428   9.885  20.660  0.00  0.00    +0.000 A 
ATOM     24  C   UNL     1       0.900   8.624  21.033  0.00  0.00    +0.000 A 
ATOM     25  C   UNL     1       1.631   7.834  20.139  0.00  0.00    +0.000 A 
ATOM     26  C   UNL     1       1.898   8.316  18.860  0.00  0.00    +0.000 A 
ATOM     27  C   UNL     1       1.440   9.586  18.487  0.00  0.00    +0.000 A 
BRANCH  22  29
ATOM     28  O   UNL     1       0.993  12.701  19.184  0.00  0.00    +0.000 OA
ATOM     29  C   UNL     1       0.279  11.732  18.950  0.00  0.00    +0.000 C 
BRANCH  29  30
ATOM     30  C   UNL     1      -1.023  11.901  18.236  0.00  0.00    +0.000 C 
ATOM     31  C   UNL     1      -2.003  10.754  18.171  0.00  0.00    +0.000 C 
ATOM     32  C   UNL     1      -2.314  11.948  19.024  0.00  0.00    +0.000 C 
ENDBRANCH  29  30
ENDBRANCH  22  29
ENDBRANCH  21  25
ENDBRANCH  20  21
ENDBRANCH  19  20
ENDBRANCH  18  19
ENDBRANCH   1  18
TORSDOF 10
ENDMDL
MODEL 2
REMARK VINA RESULT:      -7.7      5.717      7.627
REMARK  Name = 
REMARK  10 active torsions:
REMARK  status: ('A' for Active; 'I' for Inactive)
REMARK    1  A    between atoms: C_2  and  C_3
REMARK    2  A    between atoms: C_2  and  C_29
REMARK    3  A    between atoms: C_6  and  O_7
REMARK    4  A    between atoms: O_7  and  C_8
REMARK    5  A    between atoms: C_8  and  C_9
REMARK    6  A    between atoms: C_9  and  C_10
REMARK    7  A    between atoms: C_10  and  N_11
REMARK    8  A    between atoms: C_14  and  N_15
REMARK    9  A    between atoms: N_15  and  S_16
REMARK   10  A    between atoms: S_16  and  C_19
REMARK                            x       y       z     vdW  Elec       q    Type
REMARK                         _______ _______ _______ _____ _____    ______ ____
ROOT
ATOM      1  N   UNL     1       7.593   5.593  16.219  0.00  0.00    +0.000 NA
ATOM      2  C   UNL     1       7.166   5.305  14.835  0.00  0.00    +0.000 C 
ATOM      3  C   UNL     1       5.774   4.696  14.951  0.00  0.00    +0.000 C 
ATOM      4  C   UNL     1       5.807   3.938  16.277  0.00  0.00    +0.000 C 
ATOM      5  C   UNL     1       7.068   4.446  16.983  0.00  0.00    +0.000 C 
ENDROOT
BRANCH   4   6
ATOM      6  N   UNL     1       4.560   4.170  17.039  0.00  0.00    +0.000 NA
ATOM      7  H   UNL     1       3.896   4.836  16.645  0.00  0.00    +0.000 HD
BRANCH   6   8
ATOM      8  S   UNL     1       4.660   4.261  18.728  0.00  0.00    +0.000 S 
ATOM      9  O   UNL     1       5.507   3.172  19.169  0.00  0.00    +0.000 OA
ATOM     10  O   UNL     1       4.955   5.636  19.078  0.00  0.00    +0.000 OA
BRANCH   8  11
ATOM     11  C   UNL     1       3.028   3.900  19.299  0.00  0.00    +0.000 A 
ATOM     12  C   UNL     1       2.383   4.764  20.192  0.00  0.00    +0.000 A 
ATOM     13  C   UNL     1       1.127   4.418  20.702  0.00  0.00    +0.000 A 
ATOM     14  C   UNL     1       0.530   3.211  20.338  0.00  0.00    +0.000 A 
ATOM     15  C   UNL     1       1.179   2.353  19.447  0.00  0.00    +0.000 A 
ATOM     16  C   UNL     1       2.425   2.704  18.928  0.00  0.00    +0.000 A 
ATOM     17  F   UNL     1       3.006   1.881  18.044  0.00  0.00    +0.000 F 
ENDBRANCH   8  11
ENDBRANCH   6   8
ENDBRANCH   4   6
BRANCH   1  18
ATOM     18  C   UNL     1       7.089   6.904  16.654  0.00  0.00    +0.000 C 
BRANCH  18  19
ATOM     19  C   UNL     1       7.803   7.546  17.846  0.00  0.00    +0.000 C 
BRANCH  19  20
ATOM     20  C   UNL     1       8.000   9.058  17.767  0.00  0.00    +0.000 C 
BRANCH  20  21
ATOM     21  O   UNL     1       8.938   9.369  18.804  0.00  0.00    +0.000 OA
BRANCH  21  25
ATOM     22  C   UNL     1       9.859  13.260  19.969  0.00  0.00    +0.000 A 
ATOM     23  C   UNL     1       9.833  12.202  20.880  0.00  0.00    +0.000 A 
ATOM     24  C   UNL     1       9.501  10.918  20.438  0.00  0.00    +0.000 A 
ATOM     25  C   UNL     1       9.177  10.679  19.098  0.00  0.00    +0.000 A 
ATOM     26  C   UNL     1       9.191  11.734  18.191  0.00  0.00    +0.000 A 
ATOM     27  C   UNL     1       9.539  13.020  18.626  0.00  0.00    +0.000 A 
BRANCH  22  29
ATOM     28  O   UNL     1      11.449  14.905  20.518  0.00  0.00    +0.000 OA
ATOM     29  C   UNL     1      10.262  14.634  20.370  0.00  0.00    +0.000 C 
BRANCH  29  30
ATOM     30  C   UNL     1       9.211  15.672  20.591  0.00  0.00    +0.000 C 
ATOM     31  C   UNL     1       7.873  15.280  21.174  0.00  0.00    +0.000 C 
ATOM     32  C   UNL     1       8.838  16.078  22.000  0.00  0.00    +0.000 C 
ENDBRANCH  29  30
ENDBRANCH  22  29
ENDBRANCH  21  25
ENDBRANCH  20  21
ENDBRANCH  19  20
ENDBRANCH  18  19
ENDBRANCH   1  18
TORSDOF 10
ENDMDL
MODEL 3
REMARK VINA RESULT:      -7.7      2.408      4.836
REMARK  Name = 
REMARK  10 active torsions:
REMARK  status: ('A' for Active; 'I' for Inactive)
REMARK    1  A    between atoms: C_2  and  C_3
REMARK    2  A    between atoms: C_2  and  C_29
REMARK    3  A    between atoms: C_6  and  O_7
REMARK    4  A    between atoms: O_7  and  C_8
REMARK    5  A    between atoms: C_8  and  C_9
REMARK    6  A    between atoms: C_9  and  C_10
REMARK    7  A    between atoms: C_10  and  N_11
REMARK    8  A    between atoms: C_14  and  N_15
REMARK    9  A    between atoms: N_15  and  S_16
REMARK   10  A    between atoms: S_16  and  C_19
REMARK                            x       y       z     vdW  Elec       q    Type
REMARK                         _______ _______ _______ _____ _____    ______ ____
ROOT
ATOM      1  N   UNL     1       7.078   4.892  16.463  0.00  0.00    +0.000 NA
ATOM      2  C   UNL     1       6.713   4.334  15.145  0.00  0.00    +0.000 C 
ATOM      3  C   UNL     1       5.217   4.054  15.216  0.00  0.00    +0.000 C 
ATOM      4  C   UNL     1       4.975   3.683  16.678  0.00  0.00    +0.000 C 
ATOM      5  C   UNL     1       6.254   4.111  17.404  0.00  0.00    +0.000 C 
ENDROOT
BRANCH   4   6
ATOM      6  N   UNL     1       3.751   4.342  17.185  0.00  0.00    +0.000 NA
ATOM      7  H   UNL     1       3.872   5.041  17.917  0.00  0.00    +0.000 HD
BRANCH   6   8
ATOM      8  S   UNL     1       2.364   3.393  17.405  0.00  0.00    +0.000 S 
ATOM      9  O   UNL     1       1.226   4.192  17.000  0.00  0.00    +0.000 OA
ATOM     10  O   UNL     1       2.622   2.094  16.815  0.00  0.00    +0.000 OA
BRANCH   8  11
ATOM     11  C   UNL     1       2.237   3.174  19.152  0.00  0.00    +0.000 A 
ATOM     12  C   UNL     1       1.170   3.740  19.861  0.00  0.00    +0.000 A 
ATOM     13  C   UNL     1       1.131   3.632  21.254  0.00  0.00    +0.000 A 
ATOM     14  C   UNL     1       2.160   2.981  21.937  0.00  0.00    +0.000 A 
ATOM     15  C   UNL     1       3.221   2.419  21.224  0.00  0.00    +0.000 A 
ATOM     16  C   UNL     1       3.253   2.515  19.833  0.00  0.00    +0.000 A 
ATOM     17  F   UNL     1       4.262   1.932  19.173  0.00  0.00    +0.000 F 
ENDBRANCH   8  11
ENDBRANCH   6   8
ENDBRANCH   4   6
BRANCH   1  18
ATOM     18  C   UNL     1       6.839   6.342  16.495  0.00  0.00    +0.000 C 
BRANCH  18  19
ATOM     19  C   UNL     1       5.969   6.864  17.641  0.00  0.00    +0.000 C 
BRANCH  19  20
ATOM     20  C   UNL     1       4.830   7.798  17.239  0.00  0.00    +0.000 C 
BRANCH  20  21
ATOM     21  O   UNL     1       3.629   7.084  17.556  0.00  0.00    +0.000 OA
BRANCH  21  25
ATOM     22  C   UNL     1       0.987   8.744  20.314  0.00  0.00    +0.000 A 
ATOM     23  C   UNL     1       1.647   7.538  20.556  0.00  0.00    +0.000 A 
ATOM     24  C   UNL     1       2.511   7.017  19.589  0.00  0.00    +0.000 A 
ATOM     25  C   UNL     1       2.712   7.677  18.372  0.00  0.00    +0.000 A 
ATOM     26  C   UNL     1       2.046   8.874  18.123  0.00  0.00    +0.000 A 
ATOM     27  C   UNL     1       1.191   9.409  19.097  0.00  0.00    +0.000 A 
BRANCH  22  29
ATOM     28  O   UNL     1      -0.588   8.675  22.061  0.00  0.00    +0.000 OA
ATOM     29  C   UNL     1       0.104   9.376  21.330  0.00  0.00    +0.000 C 
BRANCH  29  30
ATOM     30  C   UNL     1       0.066  10.865  21.444  0.00  0.00    +0.000 C 
ATOM     31  C   UNL     1      -1.124  11.634  20.921  0.00  0.00    +0.000 C 
ATOM     32  C   UNL     1      -0.904  11.523  22.401  0.00  0.00    +0.000 C 
ENDBRANCH  29  30
ENDBRANCH  22  29
ENDBRANCH  21  25
ENDBRANCH  20  21
ENDBRANCH  19  20
ENDBRANCH  18  19
ENDBRANCH   1  18
TORSDOF 10
ENDMDL
MODEL 4
REMARK VINA RESULT:      -7.6      6.748      9.861
REMARK  Name = 
REMARK  10 active torsions:
REMARK  status: ('A' for Active; 'I' for Inactive)
REMARK    1  A    between atoms: C_2  and  C_3
REMARK    2  A    between atoms: C_2  and  C_29
REMARK    3  A    between atoms: C_6  and  O_7
REMARK    4  A    between atoms: O_7  and  C_8
REMARK    5  A    between atoms: C_8  and  C_9
REMARK    6  A    between atoms: C_9  and  C_10
REMARK    7  A    between atoms: C_10  and  N_11
REMARK    8  A    between atoms: C_14  and  N_15
REMARK    9  A    between atoms: N_15  and  S_16
REMARK   10  A    between atoms: S_16  and  C_19
REMARK                            x       y       z     vdW  Elec       q    Type
REMARK                         _______ _______ _______ _____ _____    ______ ____
ROOT
ATOM      1  N   UNL     1       9.709  11.349  18.417  0.00  0.00    +0.000 NA
ATOM      2  C   UNL     1      11.145  11.395  18.761  0.00  0.00    +0.000 C 
ATOM      3  C   UNL     1      11.207  11.887  20.203  0.00  0.00    +0.000 C 
ATOM      4  C   UNL     1      10.010  12.827  20.329  0.00  0.00    +0.000 C 
ATOM      5  C   UNL     1       9.159  12.542  19.088  0.00  0.00    +0.000 C 
ENDROOT
BRANCH   4   6
ATOM      6  N   UNL     1       9.300  12.595  21.607  0.00  0.00    +0.000 NA
ATOM      7  H   UNL     1       8.708  11.767  21.662  0.00  0.00    +0.000 HD
BRANCH   6   8
ATOM      8  S   UNL     1       8.639  13.933  22.409  0.00  0.00    +0.000 S 
ATOM      9  O   UNL     1       9.729  14.836  22.714  0.00  0.00    +0.000 OA
ATOM     10  O   UNL     1       7.484  14.374  21.650  0.00  0.00    +0.000 OA
BRANCH   8  11
ATOM     11  C   UNL     1       8.059  13.297  23.950  0.00  0.00    +0.000 A 
ATOM     12  C   UNL     1       8.480  13.870  25.156  0.00  0.00    +0.000 A 
ATOM     13  C   UNL     1       8.081  13.299  26.369  0.00  0.00    +0.000 A 
ATOM     14  C   UNL     1       7.284  12.154  26.377  0.00  0.00    +0.000 A 
ATOM     15  C   UNL     1       6.868  11.587  25.170  0.00  0.00    +0.000 A 
ATOM     16  C   UNL     1       7.254  12.164  23.961  0.00  0.00    +0.000 A 
ATOM     17  F   UNL     1       6.807  11.622  22.820  0.00  0.00    +0.000 F 
ENDBRANCH   8  11
ENDBRANCH   6   8
ENDBRANCH   4   6
BRANCH   1  18
ATOM     18  C   UNL     1       9.115  10.074  18.845  0.00  0.00    +0.000 C 
BRANCH  18  19
ATOM     19  C   UNL     1       8.147   9.411  17.862  0.00  0.00    +0.000 C 
BRANCH  19  20
ATOM     20  C   UNL     1       8.069   7.888  17.932  0.00  0.00    +0.000 C 
BRANCH  20  21
ATOM     21  O   UNL     1       6.922   7.535  17.149  0.00  0.00    +0.000 OA
BRANCH  21  25
ATOM     22  C   UNL     1       4.150   4.658  18.327  0.00  0.00    +0.000 A 
ATOM     23  C   UNL     1       3.895   5.545  17.279  0.00  0.00    +0.000 A 
ATOM     24  C   UNL     1       4.854   6.502  16.936  0.00  0.00    +0.000 A 
ATOM     25  C   UNL     1       6.060   6.598  17.638  0.00  0.00    +0.000 A 
ATOM     26  C   UNL     1       6.312   5.721  18.690  0.00  0.00    +0.000 A 
ATOM     27  C   UNL     1       5.361   4.749  19.027  0.00  0.00    +0.000 A 
BRANCH  22  29
ATOM     28  O   UNL     1       2.837   2.763  17.856  0.00  0.00    +0.000 OA
ATOM     29  C   UNL     1       3.194   3.581  18.697  0.00  0.00    +0.000 C 
BRANCH  29  30
ATOM     30  C   UNL     1       2.673   3.512  20.095  0.00  0.00    +0.000 C 
ATOM     31  C   UNL     1       2.121   4.752  20.758  0.00  0.00    +0.000 C 
ATOM     32  C   UNL     1       1.189   3.647  20.354  0.00  0.00    +0.000 C 
ENDBRANCH  29  30
ENDBRANCH  22  29
ENDBRANCH  21  25
ENDBRANCH  20  21
ENDBRANCH  19  20
ENDBRANCH  18  19
ENDBRANCH   1  18
TORSDOF 10
ENDMDL
MODEL 5
REMARK VINA RESULT:      -7.5      5.703     11.044
REMARK  Name = 
REMARK  10 active torsions:
REMARK  status: ('A' for Active; 'I' for Inactive)
REMARK    1  A    between atoms: C_2  and  C_3
REMARK    2  A    between atoms: C_2  and  C_29
REMARK    3  A    between atoms: C_6  and  O_7
REMARK    4  A    between atoms: O_7  and  C_8
REMARK    5  A    between atoms: C_8  and  C_9
REMARK    6  A    between atoms: C_9  and  C_10
REMARK    7  A    between atoms: C_10  and  N_11
REMARK    8  A    between atoms: C_14  and  N_15
REMARK    9  A    between atoms: N_15  and  S_16
REMARK   10  A    between atoms: S_16  and  C_19
REMARK                            x       y       z     vdW  Elec       q    Type
REMARK                         _______ _______ _______ _____ _____    ______ ____
ROOT
ATOM      1  N   UNL     1      -2.436   9.914  16.944  0.00  0.00    +0.000 NA
ATOM      2  C   UNL     1      -3.061  10.654  15.829  0.00  0.00    +0.000 C 
ATOM      3  C   UNL     1      -4.145  11.517  16.463  0.00  0.00    +0.000 C 
ATOM      4  C   UNL     1      -4.634  10.689  17.651  0.00  0.00    +0.000 C 
ATOM      5  C   UNL     1      -3.577   9.594  17.822  0.00  0.00    +0.000 C 
ENDROOT
BRANCH   4   6
ATOM      6  N   UNL     1      -4.806  11.547  18.844  0.00  0.00    +0.000 NA
ATOM      7  H   UNL     1      -4.383  11.221  19.712  0.00  0.00    +0.000 HD
BRANCH   6   8
ATOM      8  S   UNL     1      -6.310  12.292  19.084  0.00  0.00    +0.000 S 
ATOM      9  O   UNL     1      -6.181  13.670  18.658  0.00  0.00    +0.000 OA
ATOM     10  O   UNL     1      -7.325  11.421  18.525  0.00  0.00    +0.000 OA
BRANCH   8  11
ATOM     11  C   UNL     1      -6.528  12.318  20.835  0.00  0.00    +0.000 A 
ATOM     12  C   UNL     1      -7.713  11.839  21.409  0.00  0.00    +0.000 A 
ATOM     13  C   UNL     1      -7.905  11.947  22.789  0.00  0.00    +0.000 A 
ATOM     14  C   UNL     1      -6.932  12.548  23.589  0.00  0.00    +0.000 A 
ATOM     15  C   UNL     1      -5.753  13.025  23.010  0.00  0.00    +0.000 A 
ATOM     16  C   UNL     1      -5.555  12.903  21.636  0.00  0.00    +0.000 A 
ATOM     17  F   UNL     1      -4.398  13.333  21.115  0.00  0.00    +0.000 F 
ENDBRANCH   8  11
ENDBRANCH   6   8
ENDBRANCH   4   6
BRANCH   1  18
ATOM     18  C   UNL     1      -1.382  10.722  17.575  0.00  0.00    +0.000 C 
BRANCH  18  19
ATOM     19  C   UNL     1      -1.287  10.645  19.100  0.00  0.00    +0.000 C 
BRANCH  19  20
ATOM     20  C   UNL     1       0.068  11.008  19.701  0.00  0.00    +0.000 C 
BRANCH  20  21
ATOM     21  O   UNL     1       1.037  10.524  18.763  0.00  0.00    +0.000 OA
BRANCH  21  25
ATOM     22  C   UNL     1       2.775   6.747  19.016  0.00  0.00    +0.000 A 
ATOM     23  C   UNL     1       2.877   7.533  17.866  0.00  0.00    +0.000 A 
ATOM     24  C   UNL     1       2.260   8.787  17.829  0.00  0.00    +0.000 A 
ATOM     25  C   UNL     1       1.526   9.261  18.921  0.00  0.00    +0.000 A 
ATOM     26  C   UNL     1       1.413   8.475  20.065  0.00  0.00    +0.000 A 
ATOM     27  C   UNL     1       2.043   7.224  20.113  0.00  0.00    +0.000 A 
BRANCH  22  29
ATOM     28  O   UNL     1       4.615   5.379  19.542  0.00  0.00    +0.000 OA
ATOM     29  C   UNL     1       3.459   5.433  19.135  0.00  0.00    +0.000 C 
BRANCH  29  30
ATOM     30  C   UNL     1       2.728   4.188  18.751  0.00  0.00    +0.000 C 
ATOM     31  C   UNL     1       1.521   4.270  17.846  0.00  0.00    +0.000 C 
ATOM     32  C   UNL     1       2.800   3.681  17.327  0.00  0.00    +0.000 C 
ENDBRANCH  29  30
ENDBRANCH  22  29
ENDBRANCH  21  25
ENDBRANCH  20  21
ENDBRANCH  19  20
ENDBRANCH  18  19
ENDBRANCH   1  18
TORSDOF 10
ENDMDL
MODEL 6
REMARK VINA RESULT:      -7.5      2.523      3.230
REMARK  Name = 
REMARK  10 active torsions:
REMARK  status: ('A' for Active; 'I' for Inactive)
REMARK    1  A    between atoms: C_2  and  C_3
REMARK    2  A    between atoms: C_2  and  C_29
REMARK    3  A    between atoms: C_6  and  O_7
REMARK    4  A    between atoms: O_7  and  C_8
REMARK    5  A    between atoms: C_8  and  C_9
REMARK    6  A    between atoms: C_9  and  C_10
REMARK    7  A    between atoms: C_10  and  N_11
REMARK    8  A    between atoms: C_14  and  N_15
REMARK    9  A    between atoms: N_15  and  S_16
REMARK   10  A    between atoms: S_16  and  C_19
REMARK                            x       y       z     vdW  Elec       q    Type
REMARK                         _______ _______ _______ _____ _____    ______ ____
ROOT
ATOM      1  N   UNL     1       2.999   4.044  18.745  0.00  0.00    +0.000 NA
ATOM      2  C   UNL     1       4.067   3.621  19.673  0.00  0.00    +0.000 C 
ATOM      3  C   UNL     1       5.367   4.134  19.065  0.00  0.00    +0.000 C 
ATOM      4  C   UNL     1       5.125   4.073  17.558  0.00  0.00    +0.000 C 
ATOM      5  C   UNL     1       3.613   3.871  17.415  0.00  0.00    +0.000 C 
ENDROOT
BRANCH   4   6
ATOM      6  N   UNL     1       5.630   5.299  16.901  0.00  0.00    +0.000 NA
ATOM      7  H   UNL     1       4.946   5.873  16.409  0.00  0.00    +0.000 HD
BRANCH   6   8
ATOM      8  S   UNL     1       7.123   5.223  16.104  0.00  0.00    +0.000 S 
ATOM      9  O   UNL     1       7.625   6.577  15.997  0.00  0.00    +0.000 OA
ATOM     10  O   UNL     1       7.905   4.176  16.734  0.00  0.00    +0.000 OA
BRANCH   8  11
ATOM     11  C   UNL     1       6.735   4.693  14.465  0.00  0.00    +0.000 A 
ATOM     12  C   UNL     1       5.586   3.931  14.221  0.00  0.00    +0.000 A 
ATOM     13  C   UNL     1       5.340   3.446  12.933  0.00  0.00    +0.000 A 
ATOM     14  C   UNL     1       6.245   3.701  11.902  0.00  0.00    +0.000 A 
ATOM     15  C   UNL     1       7.390   4.460  12.153  0.00  0.00    +0.000 A 
ATOM     16  C   UNL     1       7.628   4.957  13.434  0.00  0.00    +0.000 A 
ATOM     17  F   UNL     1       8.714   5.715  13.635  0.00  0.00    +0.000 F 
ENDBRANCH   8  11
ENDBRANCH   6   8
ENDBRANCH   4   6
BRANCH   1  18
ATOM     18  C   UNL     1       2.563   5.416  19.047  0.00  0.00    +0.000 C 
BRANCH  18  19
ATOM     19  C   UNL     1       2.342   6.339  17.846  0.00  0.00    +0.000 C 
BRANCH  19  20
ATOM     20  C   UNL     1       2.790   7.787  18.030  0.00  0.00    +0.000 C 
BRANCH  20  21
ATOM     21  O   UNL     1       1.593   8.567  17.924  0.00  0.00    +0.000 OA
BRANCH  21  25
ATOM     22  C   UNL     1       0.649  11.553  20.669  0.00  0.00    +0.000 A 
ATOM     23  C   UNL     1       1.068  11.849  19.370  0.00  0.00    +0.000 A 
ATOM     24  C   UNL     1       1.389  10.808  18.495  0.00  0.00    +0.000 A 
ATOM     25  C   UNL     1       1.312   9.472  18.904  0.00  0.00    +0.000 A 
ATOM     26  C   UNL     1       0.905   9.175  20.202  0.00  0.00    +0.000 A 
ATOM     27  C   UNL     1       0.568  10.215  21.079  0.00  0.00    +0.000 A 
BRANCH  22  29
ATOM     28  O   UNL     1       0.926  13.623  21.754  0.00  0.00    +0.000 OA
ATOM     29  C   UNL     1       0.238  12.616  21.624  0.00  0.00    +0.000 C 
BRANCH  29  30
ATOM     30  C   UNL     1      -1.012  12.441  22.423  0.00  0.00    +0.000 C 
ATOM     31  C   UNL     1      -1.438  13.509  23.403  0.00  0.00    +0.000 C 
ATOM     32  C   UNL     1      -2.217  13.310  22.136  0.00  0.00    +0.000 C 
ENDBRANCH  29  30
ENDBRANCH  22  29
ENDBRANCH  21  25
ENDBRANCH  20  21
ENDBRANCH  19  20
ENDBRANCH  18  19
ENDBRANCH   1  18
TORSDOF 10
ENDMDL
MODEL 7
REMARK VINA RESULT:      -7.4      1.741      2.349
REMARK  Name = 
REMARK  10 active torsions:
REMARK  status: ('A' for Active; 'I' for Inactive)
REMARK    1  A    between atoms: C_2  and  C_3
REMARK    2  A    between atoms: C_2  and  C_29
REMARK    3  A    between atoms: C_6  and  O_7
REMARK    4  A    between atoms: O_7  and  C_8
REMARK    5  A    between atoms: C_8  and  C_9
REMARK    6  A    between atoms: C_9  and  C_10
REMARK    7  A    between atoms: C_10  and  N_11
REMARK    8  A    between atoms: C_14  and  N_15
REMARK    9  A    between atoms: N_15  and  S_16
REMARK   10  A    between atoms: S_16  and  C_19
REMARK                            x       y       z     vdW  Elec       q    Type
REMARK                         _______ _______ _______ _____ _____    ______ ____
ROOT
ATOM      1  N   UNL     1       1.389   2.896  18.079  0.00  0.00    +0.000 NA
ATOM      2  C   UNL     1       1.609   1.892  19.139  0.00  0.00    +0.000 C 
ATOM      3  C   UNL     1       3.117   1.844  19.354  0.00  0.00    +0.000 C 
ATOM      4  C   UNL     1       3.700   2.139  17.973  0.00  0.00    +0.000 C 
ATOM      5  C   UNL     1       2.519   2.674  17.158  0.00  0.00    +0.000 C 
ENDROOT
BRANCH   4   6
ATOM      6  N   UNL     1       4.832   3.086  18.080  0.00  0.00    +0.000 NA
ATOM      7  H   UNL     1       5.101   3.380  19.019  0.00  0.00    +0.000 HD
BRANCH   6   8
ATOM      8  S   UNL     1       4.936   4.339  16.943  0.00  0.00    +0.000 S 
ATOM      9  O   UNL     1       5.508   3.779  15.736  0.00  0.00    +0.000 OA
ATOM     10  O   UNL     1       3.659   5.025  16.926  0.00  0.00    +0.000 OA
BRANCH   8  11
ATOM     11  C   UNL     1       6.136   5.452  17.605  0.00  0.00    +0.000 A 
ATOM     12  C   UNL     1       6.689   6.457  16.801  0.00  0.00    +0.000 A 
ATOM     13  C   UNL     1       7.701   7.274  17.315  0.00  0.00    +0.000 A 
ATOM     14  C   UNL     1       8.171   7.077  18.613  0.00  0.00    +0.000 A 
ATOM     15  C   UNL     1       7.615   6.072  19.410  0.00  0.00    +0.000 A 
ATOM     16  C   UNL     1       6.597   5.267  18.903  0.00  0.00    +0.000 A 
ATOM     17  F   UNL     1       6.055   4.339  19.703  0.00  0.00    +0.000 F 
ENDBRANCH   8  11
ENDBRANCH   6   8
ENDBRANCH   4   6
BRANCH   1  18
ATOM     18  C   UNL     1       1.319   4.249  18.652  0.00  0.00    +0.000 C 
BRANCH  18  19
ATOM     19  C   UNL     1       1.154   4.336  20.171  0.00  0.00    +0.000 C 
BRANCH  19  20
ATOM     20  C   UNL     1       2.253   5.088  20.918  0.00  0.00    +0.000 C 
BRANCH  20  21
ATOM     21  O   UNL     1       2.793   6.009  19.963  0.00  0.00    +0.000 OA
BRANCH  21  25
ATOM     22  C   UNL     1       0.911   9.637  19.157  0.00  0.00    +0.000 A 
ATOM     23  C   UNL     1       1.649   8.955  18.187  0.00  0.00    +0.000 A 
ATOM     24  C   UNL     1       2.274   7.749  18.516  0.00  0.00    +0.000 A 
ATOM     25  C   UNL     1       2.187   7.221  19.809  0.00  0.00    +0.000 A 
ATOM     26  C   UNL     1       1.462   7.905  20.781  0.00  0.00    +0.000 A 
ATOM     27  C   UNL     1       0.820   9.106  20.452  0.00  0.00    +0.000 A 
BRANCH  22  29
ATOM     28  O   UNL     1       0.782  11.956  18.780  0.00  0.00    +0.000 OA
ATOM     29  C   UNL     1       0.176  10.892  18.849  0.00  0.00    +0.000 C 
BRANCH  29  30
ATOM     30  C   UNL     1      -1.301  10.841  18.630  0.00  0.00    +0.000 C 
ATOM     31  C   UNL     1      -1.935  11.697  17.559  0.00  0.00    +0.000 C 
ATOM     32  C   UNL     1      -1.855  10.210  17.372  0.00  0.00    +0.000 C 
ENDBRANCH  29  30
ENDBRANCH  22  29
ENDBRANCH  21  25
ENDBRANCH  20  21
ENDBRANCH  19  20
ENDBRANCH  18  19
ENDBRANCH   1  18
TORSDOF 10
ENDMDL
MODEL 8
REMARK VINA RESULT:      -7.4      2.459      3.667
REMARK  Name = 
REMARK  10 active torsions:
REMARK  status: ('A' for Active; 'I' for Inactive)
REMARK    1  A    between atoms: C_2  and  C_3
REMARK    2  A    between atoms: C_2  and  C_29
REMARK    3  A    between atoms: C_6  and  O_7
REMARK    4  A    between atoms: O_7  and  C_8
REMARK    5  A    between atoms: C_8  and  C_9
REMARK    6  A    between atoms: C_9  and  C_10
REMARK    7  A    between atoms: C_10  and  N_11
REMARK    8  A    between atoms: C_14  and  N_15
REMARK    9  A    between atoms: N_15  and  S_16
REMARK   10  A    between atoms: S_16  and  C_19
REMARK                            x       y       z     vdW  Elec       q    Type
REMARK                         _______ _______ _______ _____ _____    ______ ____
ROOT
ATOM      1  N   UNL     1       2.663   5.790  18.925  0.00  0.00    +0.000 NA
ATOM      2  C   UNL     1       3.654   5.261  19.883  0.00  0.00    +0.000 C 
ATOM      3  C   UNL     1       4.985   5.257  19.139  0.00  0.00    +0.000 C 
ATOM      4  C   UNL     1       4.599   4.986  17.686  0.00  0.00    +0.000 C 
ATOM      5  C   UNL     1       3.083   5.203  17.640  0.00  0.00    +0.000 C 
ENDROOT
BRANCH   4   6
ATOM      6  N   UNL     1       5.358   5.872  16.775  0.00  0.00    +0.000 NA
ATOM      7  H   UNL     1       4.866   6.220  15.953  0.00  0.00    +0.000 HD
BRANCH   6   8
ATOM      8  S   UNL     1       6.980   5.494  16.460  0.00  0.00    +0.000 S 
ATOM      9  O   UNL     1       7.723   6.737  16.472  0.00  0.00    +0.000 OA
ATOM     10  O   UNL     1       7.348   4.386  17.320  0.00  0.00    +0.000 OA
BRANCH   8  11
ATOM     11  C   UNL     1       6.994   4.909  14.794  0.00  0.00    +0.000 A 
ATOM     12  C   UNL     1       7.734   5.582  13.814  0.00  0.00    +0.000 A 
ATOM     13  C   UNL     1       7.664   5.157  12.483  0.00  0.00    +0.000 A 
ATOM     14  C   UNL     1       6.846   4.083  12.131  0.00  0.00    +0.000 A 
ATOM     15  C   UNL     1       6.110   3.417  13.114  0.00  0.00    +0.000 A 
ATOM     16  C   UNL     1       6.191   3.831  14.443  0.00  0.00    +0.000 A 
ATOM     17  F   UNL     1       5.506   3.148  15.370  0.00  0.00    +0.000 F 
ENDBRANCH   8  11
ENDBRANCH   6   8
ENDBRANCH   4   6
BRANCH   1  18
ATOM     18  C   UNL     1       2.649   7.260  18.954  0.00  0.00    +0.000 C 
BRANCH  18  19
ATOM     19  C   UNL     1       2.127   7.960  17.697  0.00  0.00    +0.000 C 
BRANCH  19  20
ATOM     20  C   UNL     1       1.922   9.469  17.813  0.00  0.00    +0.000 C 
BRANCH  20  21
ATOM     21  O   UNL     1       1.290   9.666  19.084  0.00  0.00    +0.000 OA
BRANCH  21  25
ATOM     22  C   UNL     1      -2.439  11.521  19.030  0.00  0.00    +0.000 A 
ATOM     23  C   UNL     1      -2.020  10.672  18.003  0.00  0.00    +0.000 A 
ATOM     24  C   UNL     1      -0.752  10.088  18.064  0.00  0.00    +0.000 A 
ATOM     25  C   UNL     1       0.115  10.355  19.129  0.00  0.00    +0.000 A 
ATOM     26  C   UNL     1      -0.296  11.210  20.148  0.00  0.00    +0.000 A 
ATOM     27  C   UNL     1      -1.573  11.785  20.101  0.00  0.00    +0.000 A 
BRANCH  22  29
ATOM     28  O   UNL     1      -4.106  12.913  19.934  0.00  0.00    +0.000 OA
ATOM     29  C   UNL     1      -3.798  12.122  19.050  0.00  0.00    +0.000 C 
BRANCH  29  30
ATOM     30  C   UNL     1      -4.780  11.749  17.987  0.00  0.00    +0.000 C 
ATOM     31  C   UNL     1      -5.818  10.684  18.258  0.00  0.00    +0.000 C 
ATOM     32  C   UNL     1      -6.238  12.120  18.145  0.00  0.00    +0.000 C 
ENDBRANCH  29  30
ENDBRANCH  22  29
ENDBRANCH  21  25
ENDBRANCH  20  21
ENDBRANCH  19  20
ENDBRANCH  18  19
ENDBRANCH   1  18
TORSDOF 10
ENDMDL
MODEL 9
REMARK VINA RESULT:      -7.3      2.544      3.330
REMARK  Name = 
REMARK  10 active torsions:
REMARK  status: ('A' for Active; 'I' for Inactive)
REMARK    1  A    between atoms: C_2  and  C_3
REMARK    2  A    between atoms: C_2  and  C_29
REMARK    3  A    between atoms: C_6  and  O_7
REMARK    4  A    between atoms: O_7  and  C_8
REMARK    5  A    between atoms: C_8  and  C_9
REMARK    6  A    between atoms: C_9  and  C_10
REMARK    7  A    between atoms: C_10  and  N_11
REMARK    8  A    between atoms: C_14  and  N_15
REMARK    9  A    between atoms: N_15  and  S_16
REMARK   10  A    between atoms: S_16  and  C_19
REMARK                            x       y       z     vdW  Elec       q    Type
REMARK                         _______ _______ _______ _____ _____    ______ ____
ROOT
ATOM      1  N   UNL     1       1.653   3.987  20.183  0.00  0.00    +0.000 NA
ATOM      2  C   UNL     1       2.002   2.819  21.017  0.00  0.00    +0.000 C 
ATOM      3  C   UNL     1       3.386   2.381  20.553  0.00  0.00    +0.000 C 
ATOM      4  C   UNL     1       3.406   2.721  19.064  0.00  0.00    +0.000 C 
ATOM      5  C   UNL     1       2.194   3.634  18.858  0.00  0.00    +0.000 C 
ENDROOT
BRANCH   4   6
ATOM      6  N   UNL     1       4.696   3.345  18.692  0.00  0.00    +0.000 NA
ATOM      7  H   UNL     1       5.293   3.660  19.456  0.00  0.00    +0.000 HD
BRANCH   6   8
ATOM      8  S   UNL     1       4.722   4.393  17.361  0.00  0.00    +0.000 S 
ATOM      9  O   UNL     1       5.094   3.608  16.202  0.00  0.00    +0.000 OA
ATOM     10  O   UNL     1       3.497   5.167  17.386  0.00  0.00    +0.000 OA
BRANCH   8  11
ATOM     11  C   UNL     1       6.063   5.497  17.679  0.00  0.00    +0.000 A 
ATOM     12  C   UNL     1       6.961   5.237  18.722  0.00  0.00    +0.000 A 
ATOM     13  C   UNL     1       7.965   6.166  19.015  0.00  0.00    +0.000 A 
ATOM     14  C   UNL     1       8.057   7.353  18.288  0.00  0.00    +0.000 A 
ATOM     15  C   UNL     1       7.157   7.606  17.250  0.00  0.00    +0.000 A 
ATOM     16  C   UNL     1       6.166   6.673  16.948  0.00  0.00    +0.000 A 
ATOM     17  F   UNL     1       5.342   6.925  15.921  0.00  0.00    +0.000 F 
ENDBRANCH   8  11
ENDBRANCH   6   8
ENDBRANCH   4   6
BRANCH   1  18
ATOM     18  C   UNL     1       2.204   5.221  20.763  0.00  0.00    +0.000 C 
BRANCH  18  19
ATOM     19  C   UNL     1       1.941   6.514  19.988  0.00  0.00    +0.000 C 
BRANCH  19  20
ATOM     20  C   UNL     1       1.884   7.790  20.824  0.00  0.00    +0.000 C 
BRANCH  20  21
ATOM     21  O   UNL     1       0.489   8.045  21.026  0.00  0.00    +0.000 OA
BRANCH  21  25
ATOM     22  C   UNL     1      -0.714  11.813  22.331  0.00  0.00    +0.000 A 
ATOM     23  C   UNL     1      -0.151  11.612  21.068  0.00  0.00    +0.000 A 
ATOM     24  C   UNL     1       0.250  10.329  20.688  0.00  0.00    +0.000 A 
ATOM     25  C   UNL     1       0.114   9.243  21.559  0.00  0.00    +0.000 A 
ATOM     26  C   UNL     1      -0.436   9.443  22.822  0.00  0.00    +0.000 A 
ATOM     27  C   UNL     1      -0.855  10.725  23.203  0.00  0.00    +0.000 A 
BRANCH  22  29
ATOM     28  O   UNL     1      -0.538  13.836  23.520  0.00  0.00    +0.000 OA
ATOM     29  C   UNL     1      -1.214  13.144  22.767  0.00  0.00    +0.000 C 
BRANCH  29  30
ATOM     30  C   UNL     1      -2.543  13.622  22.281  0.00  0.00    +0.000 C 
ATOM     31  C   UNL     1      -3.584  12.627  21.826  0.00  0.00    +0.000 C 
ATOM     32  C   UNL     1      -3.783  13.373  23.112  0.00  0.00    +0.000 C 
ENDBRANCH  29  30
ENDBRANCH  22  29
ENDBRANCH  21  25
ENDBRANCH  20  21
ENDBRANCH  19  20
ENDBRANCH  18  19
ENDBRANCH   1  18
TORSDOF 10
ENDMDL
