MODEL 1
REMARK VINA RESULT:      -7.7      0.000      0.000
REMARK  Name = 
REMARK  5 active torsions:
REMARK  status: ('A' for Active; 'I' for Inactive)
REMARK    1  A    between atoms: C_1  and  O_2
REMARK    2  A    between atoms: O_2  and  C_3
REMARK    3  A    between atoms: C_6  and  C_7
REMARK    4  A    between atoms: C_7  and  C_8
REMARK    5  A    between atoms: C_17  and  C_18
REMARK                            x       y       z     vdW  Elec       q    Type
REMARK                         _______ _______ _______ _____ _____    ______ ____
ROOT
ATOM      1  C   UNL     1       2.877   5.146  19.803  0.00  0.00    +0.000 C 
ATOM      2  O   UNL     1       2.284   5.098  20.884  0.00  0.00    +0.000 OA
ATOM      3  N   UNL     1       2.929   6.219  18.933  0.00  0.00    +0.000 N 
ATOM      4  C   UNL     1       2.308   7.389  19.266  0.00  0.00    +0.000 A 
ATOM      5  N   UNL     1       1.814   7.713  20.435  0.00  0.00    +0.000 NA
ATOM      6  C   UNL     1       1.155   8.906  20.338  0.00  0.00    +0.000 A 
ATOM      7  C   UNL     1       1.197   9.510  19.098  0.00  0.00    +0.000 A 
ATOM      8  S   UNL     1       2.116   8.550  18.019  0.00  0.00    +0.000 S 
ATOM      9  C   UNL     1       0.488  10.777  18.746  0.00  0.00    +0.000 C 
ATOM     10  C   UNL     1       0.047  11.531  20.032  0.00  0.00    +0.000 C 
ATOM     11  C   UNL     1       1.202  12.348  20.624  0.00  0.00    +0.000 C 
ATOM     12  C   UNL     1      -0.545  10.558  21.084  0.00  0.00    +0.000 C 
ATOM     13  C   UNL     1       0.446   9.468  21.516  0.00  0.00    +0.000 C 
ATOM     14  H   UNL     1       3.281   6.119  17.992  0.00  0.00    +0.000 HD
ENDROOT
BRANCH   1  15
ATOM     15  C   UNL     1       3.604   3.914  19.309  0.00  0.00    +0.000 C 
BRANCH  15  19
ATOM     16  C   UNL     1       6.704   4.716  16.393  0.00  0.00    +0.000 A 
ATOM     17  C   UNL     1       5.434   4.294  16.001  0.00  0.00    +0.000 A 
ATOM     18  C   UNL     1       4.440   4.045  16.949  0.00  0.00    +0.000 A 
ATOM     19  C   UNL     1       4.709   4.189  18.316  0.00  0.00    +0.000 A 
ATOM     20  C   UNL     1       5.977   4.647  18.702  0.00  0.00    +0.000 A 
ATOM     21  C   UNL     1       6.972   4.897  17.749  0.00  0.00    +0.000 A 
BRANCH  16  23
ATOM     22  C   UNL     1       7.077   4.777  14.054  0.00  0.00    +0.000 C 
ATOM     23  O   UNL     1       7.597   4.892  15.373  0.00  0.00    +0.000 OA
ENDBRANCH  16  23
ENDBRANCH  15  19
ENDBRANCH   1  15
TORSDOF 3
ENDMDL
MODEL 2
REMARK VINA RESULT:      -7.7      6.591      8.996
REMARK  Name = 
REMARK  5 active torsions:
REMARK  status: ('A' for Active; 'I' for Inactive)
REMARK    1  A    between atoms: C_1  and  O_2
REMARK    2  A    between atoms: O_2  and  C_3
REMARK    3  A    between atoms: C_6  and  C_7
REMARK    4  A    between atoms: C_7  and  C_8
REMARK    5  A    between atoms: C_17  and  C_18
REMARK                            x       y       z     vdW  Elec       q    Type
REMARK                         _______ _______ _______ _____ _____    ______ ____
ROOT
ATOM      1  C   UNL     1       8.765   9.798  18.597  0.00  0.00    +0.000 C 
ATOM      2  O   UNL     1       7.985  10.299  17.783  0.00  0.00    +0.000 OA
ATOM      3  N   UNL     1       8.845   8.467  18.958  0.00  0.00    +0.000 N 
ATOM      4  C   UNL     1       8.024   7.554  18.358  0.00  0.00    +0.000 A 
ATOM      5  N   UNL     1       7.274   7.744  17.301  0.00  0.00    +0.000 NA
ATOM      6  C   UNL     1       6.497   6.641  17.086  0.00  0.00    +0.000 A 
ATOM      7  C   UNL     1       6.701   5.592  17.959  0.00  0.00    +0.000 A 
ATOM      8  S   UNL     1       7.928   6.002  19.079  0.00  0.00    +0.000 S 
ATOM      9  C   UNL     1       5.914   4.322  17.957  0.00  0.00    +0.000 C 
ATOM     10  C   UNL     1       5.139   4.163  16.619  0.00  0.00    +0.000 C 
ATOM     11  C   UNL     1       6.040   3.601  15.514  0.00  0.00    +0.000 C 
ATOM     12  C   UNL     1       4.486   5.499  16.182  0.00  0.00    +0.000 C 
ATOM     13  C   UNL     1       5.507   6.627  15.980  0.00  0.00    +0.000 C 
ATOM     14  H   UNL     1       9.383   8.167  19.758  0.00  0.00    +0.000 HD
ENDROOT
BRANCH   1  15
ATOM     15  C   UNL     1       9.728  10.698  19.340  0.00  0.00    +0.000 C 
BRANCH  15  19
ATOM     16  C   UNL     1      10.904  14.302  17.246  0.00  0.00    +0.000 A 
ATOM     17  C   UNL     1       9.919  14.328  18.232  0.00  0.00    +0.000 A 
ATOM     18  C   UNL     1       9.552  13.161  18.906  0.00  0.00    +0.000 A 
ATOM     19  C   UNL     1      10.149  11.936  18.583  0.00  0.00    +0.000 A 
ATOM     20  C   UNL     1      11.165  11.923  17.616  0.00  0.00    +0.000 A 
ATOM     21  C   UNL     1      11.530  13.094  16.942  0.00  0.00    +0.000 A 
BRANCH  16  23
ATOM     22  C   UNL     1      10.382  16.608  17.100  0.00  0.00    +0.000 C 
ATOM     23  O   UNL     1      11.146  15.502  16.638  0.00  0.00    +0.000 OA
ENDBRANCH  16  23
ENDBRANCH  15  19
ENDBRANCH   1  15
TORSDOF 3
ENDMDL
MODEL 3
REMARK VINA RESULT:      -7.6      0.167      1.038
REMARK  Name = 
REMARK  5 active torsions:
REMARK  status: ('A' for Active; 'I' for Inactive)
REMARK    1  A    between atoms: C_1  and  O_2
REMARK    2  A    between atoms: O_2  and  C_3
REMARK    3  A    between atoms: C_6  and  C_7
REMARK    4  A    between atoms: C_7  and  C_8
REMARK    5  A    between atoms: C_17  and  C_18
REMARK                            x       y       z     vdW  Elec       q    Type
REMARK                         _______ _______ _______ _____ _____    ______ ____
ROOT
ATOM      1  C   UNL     1       2.972   5.088  19.799  0.00  0.00    +0.000 C 
ATOM      2  O   UNL     1       2.395   5.033  20.888  0.00  0.00    +0.000 OA
ATOM      3  N   UNL     1       2.992   6.158  18.925  0.00  0.00    +0.000 N 
ATOM      4  C   UNL     1       2.355   7.319  19.263  0.00  0.00    +0.000 A 
ATOM      5  N   UNL     1       1.872   7.638  20.438  0.00  0.00    +0.000 NA
ATOM      6  C   UNL     1       1.191   8.819  20.347  0.00  0.00    +0.000 A 
ATOM      7  C   UNL     1       1.205   9.419  19.104  0.00  0.00    +0.000 A 
ATOM      8  S   UNL     1       2.125   8.472  18.016  0.00  0.00    +0.000 S 
ATOM      9  C   UNL     1       0.468  10.672  18.758  0.00  0.00    +0.000 C 
ATOM     10  C   UNL     1       0.033  11.422  20.049  0.00  0.00    +0.000 C 
ATOM     11  C   UNL     1       1.181  12.261  20.621  0.00  0.00    +0.000 C 
ATOM     12  C   UNL     1      -0.526  10.443  21.112  0.00  0.00    +0.000 C 
ATOM     13  C   UNL     1       0.490   9.372  21.533  0.00  0.00    +0.000 C 
ATOM     14  H   UNL     1       3.332   6.062  17.979  0.00  0.00    +0.000 HD
ENDROOT
BRANCH   1  15
ATOM     15  C   UNL     1       3.714   3.868  19.298  0.00  0.00    +0.000 C 
BRANCH  15  19
ATOM     16  C   UNL     1       6.572   4.617  16.133  0.00  0.00    +0.000 A 
ATOM     17  C   UNL     1       6.930   4.742  17.475  0.00  0.00    +0.000 A 
ATOM     18  C   UNL     1       6.002   4.492  18.487  0.00  0.00    +0.000 A 
ATOM     19  C   UNL     1       4.685   4.136  18.173  0.00  0.00    +0.000 A 
ATOM     20  C   UNL     1       4.340   3.977  16.822  0.00  0.00    +0.000 A 
ATOM     21  C   UNL     1       5.273   4.228  15.809  0.00  0.00    +0.000 A 
BRANCH  16  23
ATOM     22  C   UNL     1       7.219   4.814  13.862  0.00  0.00    +0.000 C 
ATOM     23  O   UNL     1       7.560   4.924  15.239  0.00  0.00    +0.000 OA
ENDBRANCH  16  23
ENDBRANCH  15  19
ENDBRANCH   1  15
TORSDOF 3
ENDMDL
MODEL 4
REMARK VINA RESULT:      -7.5      6.626      8.974
REMARK  Name = 
REMARK  5 active torsions:
REMARK  status: ('A' for Active; 'I' for Inactive)
REMARK    1  A    between atoms: C_1  and  O_2
REMARK    2  A    between atoms: O_2  and  C_3
REMARK    3  A    between atoms: C_6  and  C_7
REMARK    4  A    between atoms: C_7  and  C_8
REMARK    5  A    between atoms: C_17  and  C_18
REMARK                            x       y       z     vdW  Elec       q    Type
REMARK                         _______ _______ _______ _____ _____    ______ ____
ROOT
ATOM      1  C   UNL     1       8.762   9.731  18.606  0.00  0.00    +0.000 C 
ATOM      2  O   UNL     1       7.987  10.243  17.795  0.00  0.00    +0.000 OA
ATOM      3  N   UNL     1       8.832   8.396  18.958  0.00  0.00    +0.000 N 
ATOM      4  C   UNL     1       8.004   7.494  18.352  0.00  0.00    +0.000 A 
ATOM      5  N   UNL     1       7.257   7.696  17.297  0.00  0.00    +0.000 NA
ATOM      6  C   UNL     1       6.471   6.600  17.074  0.00  0.00    +0.000 A 
ATOM      7  C   UNL     1       6.667   5.544  17.941  0.00  0.00    +0.000 A 
ATOM      8  S   UNL     1       7.896   5.937  19.064  0.00  0.00    +0.000 S 
ATOM      9  C   UNL     1       5.870   4.280  17.930  0.00  0.00    +0.000 C 
ATOM     10  C   UNL     1       5.094   4.136  16.590  0.00  0.00    +0.000 C 
ATOM     11  C   UNL     1       5.992   3.574  15.482  0.00  0.00    +0.000 C 
ATOM     12  C   UNL     1       4.451   5.479  16.162  0.00  0.00    +0.000 C 
ATOM     13  C   UNL     1       5.481   6.601  15.968  0.00  0.00    +0.000 C 
ATOM     14  H   UNL     1       9.367   8.087  19.758  0.00  0.00    +0.000 HD
ENDROOT
BRANCH   1  15
ATOM     15  C   UNL     1       9.732  10.619  19.355  0.00  0.00    +0.000 C 
BRANCH  15  19
ATOM     16  C   UNL     1      10.745  14.282  17.281  0.00  0.00    +0.000 A 
ATOM     17  C   UNL     1      11.427  13.094  17.024  0.00  0.00    +0.000 A 
ATOM     18  C   UNL     1      11.088  11.916  17.694  0.00  0.00    +0.000 A 
ATOM     19  C   UNL     1      10.072  11.915  18.658  0.00  0.00    +0.000 A 
ATOM     20  C   UNL     1       9.366  13.105  18.886  0.00  0.00    +0.000 A 
ATOM     21  C   UNL     1       9.708  14.283  18.212  0.00  0.00    +0.000 A 
BRANCH  16  23
ATOM     22  C   UNL     1      11.927  16.335  17.332  0.00  0.00    +0.000 C 
ATOM     23  O   UNL     1      11.195  15.370  16.586  0.00  0.00    +0.000 OA
ENDBRANCH  16  23
ENDBRANCH  15  19
ENDBRANCH   1  15
TORSDOF 3
ENDMDL
MODEL 5
REMARK VINA RESULT:      -7.5      3.316      8.399
REMARK  Name = 
REMARK  5 active torsions:
REMARK  status: ('A' for Active; 'I' for Inactive)
REMARK    1  A    between atoms: C_1  and  O_2
REMARK    2  A    between atoms: O_2  and  C_3
REMARK    3  A    between atoms: C_6  and  C_7
REMARK    4  A    between atoms: C_7  and  C_8
REMARK    5  A    between atoms: C_17  and  C_18
REMARK                            x       y       z     vdW  Elec       q    Type
REMARK                         _______ _______ _______ _____ _____    ______ ____
ROOT
ATOM      1  C   UNL     1       1.695   9.277  18.573  0.00  0.00    +0.000 C 
ATOM      2  O   UNL     1       2.089   9.741  17.500  0.00  0.00    +0.000 OA
ATOM      3  N   UNL     1       2.039   8.059  19.127  0.00  0.00    +0.000 N 
ATOM      4  C   UNL     1       2.936   7.254  18.484  0.00  0.00    +0.000 A 
ATOM      5  N   UNL     1       3.696   7.577  17.468  0.00  0.00    +0.000 NA
ATOM      6  C   UNL     1       4.356   6.468  17.019  0.00  0.00    +0.000 A 
ATOM      7  C   UNL     1       4.129   5.311  17.735  0.00  0.00    +0.000 A 
ATOM      8  S   UNL     1       3.061   5.634  19.032  0.00  0.00    +0.000 S 
ATOM      9  C   UNL     1       4.685   3.970  17.380  0.00  0.00    +0.000 C 
ATOM     10  C   UNL     1       5.858   4.116  16.370  0.00  0.00    +0.000 C 
ATOM     11  C   UNL     1       7.169   4.466  17.083  0.00  0.00    +0.000 C 
ATOM     12  C   UNL     1       5.528   5.154  15.267  0.00  0.00    +0.000 C 
ATOM     13  C   UNL     1       5.239   6.553  15.828  0.00  0.00    +0.000 C 
ATOM     14  H   UNL     1       1.536   7.675  19.915  0.00  0.00    +0.000 HD
ENDROOT
BRANCH   1  15
ATOM     15  C   UNL     1       0.691  10.065  19.388  0.00  0.00    +0.000 C 
BRANCH  15  19
ATOM     16  C   UNL     1      -2.978  10.956  17.267  0.00  0.00    +0.000 A 
ATOM     17  C   UNL     1      -2.186   9.864  16.915  0.00  0.00    +0.000 A 
ATOM     18  C   UNL     1      -1.008   9.581  17.610  0.00  0.00    +0.000 A 
ATOM     19  C   UNL     1      -0.586  10.408  18.658  0.00  0.00    +0.000 A 
ATOM     20  C   UNL     1      -1.405  11.484  19.031  0.00  0.00    +0.000 A 
ATOM     21  C   UNL     1      -2.585  11.764  18.333  0.00  0.00    +0.000 A 
BRANCH  16  23
ATOM     22  C   UNL     1      -3.945  10.829  15.109  0.00  0.00    +0.000 C 
ATOM     23  O   UNL     1      -4.085  11.144  16.488  0.00  0.00    +0.000 OA
ENDBRANCH  16  23
ENDBRANCH  15  19
ENDBRANCH   1  15
TORSDOF 3
ENDMDL
MODEL 6
REMARK VINA RESULT:      -7.3      3.289      8.210
REMARK  Name = 
REMARK  5 active torsions:
REMARK  status: ('A' for Active; 'I' for Inactive)
REMARK    1  A    between atoms: C_1  and  O_2
REMARK    2  A    between atoms: O_2  and  C_3
REMARK    3  A    between atoms: C_6  and  C_7
REMARK    4  A    between atoms: C_7  and  C_8
REMARK    5  A    between atoms: C_17  and  C_18
REMARK                            x       y       z     vdW  Elec       q    Type
REMARK                         _______ _______ _______ _____ _____    ______ ____
ROOT
ATOM      1  C   UNL     1       0.976   8.976  20.535  0.00  0.00    +0.000 C 
ATOM      2  O   UNL     1       0.417   8.441  21.496  0.00  0.00    +0.000 OA
ATOM      3  N   UNL     1       1.822   8.371  19.626  0.00  0.00    +0.000 N 
ATOM      4  C   UNL     1       2.076   7.033  19.727  0.00  0.00    +0.000 A 
ATOM      5  N   UNL     1       1.448   6.167  20.482  0.00  0.00    +0.000 NA
ATOM      6  C   UNL     1       2.078   4.956  20.411  0.00  0.00    +0.000 A 
ATOM      7  C   UNL     1       3.159   4.898  19.556  0.00  0.00    +0.000 A 
ATOM      8  S   UNL     1       3.380   6.416  18.799  0.00  0.00    +0.000 S 
ATOM      9  C   UNL     1       4.037   3.702  19.379  0.00  0.00    +0.000 C 
ATOM     10  C   UNL     1       3.347   2.430  19.950  0.00  0.00    +0.000 C 
ATOM     11  C   UNL     1       2.348   1.839  18.950  0.00  0.00    +0.000 C 
ATOM     12  C   UNL     1       2.669   2.719  21.314  0.00  0.00    +0.000 C 
ATOM     13  C   UNL     1       1.597   3.814  21.230  0.00  0.00    +0.000 C 
ATOM     14  H   UNL     1       2.379   8.913  18.980  0.00  0.00    +0.000 HD
ENDROOT
BRANCH   1  15
ATOM     15  C   UNL     1       0.785  10.461  20.308  0.00  0.00    +0.000 C 
BRANCH  15  19
ATOM     16  C   UNL     1      -2.780  11.426  18.046  0.00  0.00    +0.000 A 
ATOM     17  C   UNL     1      -1.829  10.534  17.551  0.00  0.00    +0.000 A 
ATOM     18  C   UNL     1      -0.686  10.225  18.292  0.00  0.00    +0.000 A 
ATOM     19  C   UNL     1      -0.461  10.827  19.536  0.00  0.00    +0.000 A 
ATOM     20  C   UNL     1      -1.439  11.695  20.045  0.00  0.00    +0.000 A 
ATOM     21  C   UNL     1      -2.583  12.003  19.300  0.00  0.00    +0.000 A 
BRANCH  16  23
ATOM     22  C   UNL     1      -3.918  10.857  16.048  0.00  0.00    +0.000 C 
ATOM     23  O   UNL     1      -3.834  11.671  17.211  0.00  0.00    +0.000 OA
ENDBRANCH  16  23
ENDBRANCH  15  19
ENDBRANCH   1  15
TORSDOF 3
ENDMDL
MODEL 7
REMARK VINA RESULT:      -7.2      3.132      8.476
REMARK  Name = 
REMARK  5 active torsions:
REMARK  status: ('A' for Active; 'I' for Inactive)
REMARK    1  A    between atoms: C_1  and  O_2
REMARK    2  A    between atoms: O_2  and  C_3
REMARK    3  A    between atoms: C_6  and  C_7
REMARK    4  A    between atoms: C_7  and  C_8
REMARK    5  A    between atoms: C_17  and  C_18
REMARK                            x       y       z     vdW  Elec       q    Type
REMARK                         _______ _______ _______ _____ _____    ______ ____
ROOT
ATOM      1  C   UNL     1       1.870   9.057  18.382  0.00  0.00    +0.000 C 
ATOM      2  O   UNL     1       2.202   8.739  17.237  0.00  0.00    +0.000 OA
ATOM      3  N   UNL     1       1.776   8.223  19.480  0.00  0.00    +0.000 N 
ATOM      4  C   UNL     1       2.109   6.903  19.356  0.00  0.00    +0.000 A 
ATOM      5  N   UNL     1       2.718   6.337  18.345  0.00  0.00    +0.000 NA
ATOM      6  C   UNL     1       2.752   4.983  18.530  0.00  0.00    +0.000 A 
ATOM      7  C   UNL     1       2.208   4.533  19.716  0.00  0.00    +0.000 A 
ATOM      8  S   UNL     1       1.652   5.862  20.639  0.00  0.00    +0.000 S 
ATOM      9  C   UNL     1       2.072   3.094  20.094  0.00  0.00    +0.000 C 
ATOM     10  C   UNL     1       2.975   2.205  19.192  0.00  0.00    +0.000 C 
ATOM     11  C   UNL     1       4.424   2.194  19.691  0.00  0.00    +0.000 C 
ATOM     12  C   UNL     1       2.898   2.644  17.708  0.00  0.00    +0.000 C 
ATOM     13  C   UNL     1       3.336   4.099  17.490  0.00  0.00    +0.000 C 
ATOM     14  H   UNL     1       1.325   8.520  20.333  0.00  0.00    +0.000 HD
ENDROOT
BRANCH   1  15
ATOM     15  C   UNL     1       1.469  10.490  18.659  0.00  0.00    +0.000 C 
BRANCH  15  19
ATOM     16  C   UNL     1      -2.759  11.374  18.359  0.00  0.00    +0.000 A 
ATOM     17  C   UNL     1      -1.908  12.167  19.127  0.00  0.00    +0.000 A 
ATOM     18  C   UNL     1      -0.545  11.876  19.211  0.00  0.00    +0.000 A 
ATOM     19  C   UNL     1      -0.012  10.765  18.546  0.00  0.00    +0.000 A 
ATOM     20  C   UNL     1      -0.867   9.992  17.746  0.00  0.00    +0.000 A 
ATOM     21  C   UNL     1      -2.233  10.287  17.663  0.00  0.00    +0.000 A 
BRANCH  16  23
ATOM     22  C   UNL     1      -4.805  11.561  17.179  0.00  0.00    +0.000 C 
ATOM     23  O   UNL     1      -4.076  11.742  18.386  0.00  0.00    +0.000 OA
ENDBRANCH  16  23
ENDBRANCH  15  19
ENDBRANCH   1  15
TORSDOF 3
ENDMDL
MODEL 8
REMARK VINA RESULT:      -7.2      3.203      8.525
REMARK  Name = 
REMARK  5 active torsions:
REMARK  status: ('A' for Active; 'I' for Inactive)
REMARK    1  A    between atoms: C_1  and  O_2
REMARK    2  A    between atoms: O_2  and  C_3
REMARK    3  A    between atoms: C_6  and  C_7
REMARK    4  A    between atoms: C_7  and  C_8
REMARK    5  A    between atoms: C_17  and  C_18
REMARK                            x       y       z     vdW  Elec       q    Type
REMARK                         _______ _______ _______ _____ _____    ______ ____
ROOT
ATOM      1  C   UNL     1       1.647   9.018  19.089  0.00  0.00    +0.000 C 
ATOM      2  O   UNL     1       2.004   9.620  18.073  0.00  0.00    +0.000 OA
ATOM      3  N   UNL     1       2.019   7.743  19.472  0.00  0.00    +0.000 N 
ATOM      4  C   UNL     1       2.901   7.038  18.703  0.00  0.00    +0.000 A 
ATOM      5  N   UNL     1       3.626   7.497  17.714  0.00  0.00    +0.000 NA
ATOM      6  C   UNL     1       4.279   6.462  17.107  0.00  0.00    +0.000 A 
ATOM      7  C   UNL     1       4.084   5.220  17.676  0.00  0.00    +0.000 A 
ATOM      8  S   UNL     1       3.056   5.363  19.036  0.00  0.00    +0.000 S 
ATOM      9  C   UNL     1       4.638   3.942  17.135  0.00  0.00    +0.000 C 
ATOM     10  C   UNL     1       5.778   4.230  16.117  0.00  0.00    +0.000 C 
ATOM     11  C   UNL     1       7.108   4.501  16.828  0.00  0.00    +0.000 C 
ATOM     12  C   UNL     1       5.405   5.396  15.166  0.00  0.00    +0.000 C 
ATOM     13  C   UNL     1       5.123   6.709  15.910  0.00  0.00    +0.000 C 
ATOM     14  H   UNL     1       1.544   7.256  20.219  0.00  0.00    +0.000 HD
ENDROOT
BRANCH   1  15
ATOM     15  C   UNL     1       0.665   9.683  20.029  0.00  0.00    +0.000 C 
BRANCH  15  19
ATOM     16  C   UNL     1      -2.870  11.346  18.159  0.00  0.00    +0.000 A 
ATOM     17  C   UNL     1      -2.328  11.912  19.313  0.00  0.00    +0.000 A 
ATOM     18  C   UNL     1      -1.184  11.371  19.904  0.00  0.00    +0.000 A 
ATOM     19  C   UNL     1      -0.575  10.233  19.362  0.00  0.00    +0.000 A 
ATOM     20  C   UNL     1      -1.103   9.690  18.182  0.00  0.00    +0.000 A 
ATOM     21  C   UNL     1      -2.250  10.235  17.592  0.00  0.00    +0.000 A 
BRANCH  16  23
ATOM     22  C   UNL     1      -4.548  11.431  16.489  0.00  0.00    +0.000 C 
ATOM     23  O   UNL     1      -4.009  11.947  17.700  0.00  0.00    +0.000 OA
ENDBRANCH  16  23
ENDBRANCH  15  19
ENDBRANCH   1  15
TORSDOF 3
ENDMDL
MODEL 9
REMARK VINA RESULT:      -7.2      3.095      8.376
REMARK  Name = 
REMARK  5 active torsions:
REMARK  status: ('A' for Active; 'I' for Inactive)
REMARK    1  A    between atoms: C_1  and  O_2
REMARK    2  A    between atoms: O_2  and  C_3
REMARK    3  A    between atoms: C_6  and  C_7
REMARK    4  A    between atoms: C_7  and  C_8
REMARK    5  A    between atoms: C_17  and  C_18
REMARK                            x       y       z     vdW  Elec       q    Type
REMARK                         _______ _______ _______ _____ _____    ______ ____
ROOT
ATOM      1  C   UNL     1       1.871   9.089  18.374  0.00  0.00    +0.000 C 
ATOM      2  O   UNL     1       2.163   8.759  17.222  0.00  0.00    +0.000 OA
ATOM      3  N   UNL     1       1.796   8.263  19.480  0.00  0.00    +0.000 N 
ATOM      4  C   UNL     1       2.103   6.937  19.354  0.00  0.00    +0.000 A 
ATOM      5  N   UNL     1       2.671   6.355  18.328  0.00  0.00    +0.000 NA
ATOM      6  C   UNL     1       2.687   5.002  18.521  0.00  0.00    +0.000 A 
ATOM      7  C   UNL     1       2.172   4.568  19.726  0.00  0.00    +0.000 A 
ATOM      8  S   UNL     1       1.667   5.911  20.656  0.00  0.00    +0.000 S 
ATOM      9  C   UNL     1       2.023   3.133  20.117  0.00  0.00    +0.000 C 
ATOM     10  C   UNL     1       2.883   2.224  19.193  0.00  0.00    +0.000 C 
ATOM     11  C   UNL     1       4.346   2.190  19.648  0.00  0.00    +0.000 C 
ATOM     12  C   UNL     1       2.768   2.656  17.709  0.00  0.00    +0.000 C 
ATOM     13  C   UNL     1       3.224   4.102  17.469  0.00  0.00    +0.000 C 
ATOM     14  H   UNL     1       1.376   8.573  20.344  0.00  0.00    +0.000 HD
ENDROOT
BRANCH   1  15
ATOM     15  C   UNL     1       1.503  10.530  18.655  0.00  0.00    +0.000 C 
BRANCH  15  19
ATOM     16  C   UNL     1      -2.751  11.302  18.410  0.00  0.00    +0.000 A 
ATOM     17  C   UNL     1      -2.160  10.272  17.679  0.00  0.00    +0.000 A 
ATOM     18  C   UNL     1      -0.788  10.028  17.771  0.00  0.00    +0.000 A 
ATOM     19  C   UNL     1       0.025  10.832  18.579  0.00  0.00    +0.000 A 
ATOM     20  C   UNL     1      -0.581  11.843  19.339  0.00  0.00    +0.000 A 
ATOM     21  C   UNL     1      -1.957  12.085  19.246  0.00  0.00    +0.000 A 
BRANCH  16  23
ATOM     22  C   UNL     1      -4.542  11.365  16.861  0.00  0.00    +0.000 C 
ATOM     23  O   UNL     1      -4.094  11.460  18.207  0.00  0.00    +0.000 OA
ENDBRANCH  16  23
ENDBRANCH  15  19
ENDBRANCH   1  15
TORSDOF 3
ENDMDL
