MODEL 1
REMARK VINA RESULT:      -7.7      0.000      0.000
REMARK  Name = 
REMARK  12 active torsions:
REMARK  status: ('A' for Active; 'I' for Inactive)
REMARK    1  A    between atoms: C_1  and  C_2
REMARK    2  A    between atoms: C_2  and  N_3
REMARK    3  A    between atoms: C_4  and  C_5
REMARK    4  A    between atoms: C_5  and  N_6
REMARK    5  A    between atoms: N_9  and  C_10
REMARK    6  A    between atoms: C_10  and  C_11
REMARK    7  A    between atoms: C_17  and  O_18
REMARK    8  A    between atoms: O_18  and  C_19
REMARK    9  A    between atoms: C_25  and  S_26
REMARK   10  A    between atoms: S_26  and  N_29
REMARK   11  A    between atoms: N_29  and  C_30
REMARK   12  A    between atoms: N_29  and  C_31
REMARK                            x       y       z     vdW  Elec       q    Type
REMARK                         _______ _______ _______ _____ _____    ______ ____
ROOT
ATOM      1  N   UNL     1       0.679   9.511  19.857  0.00  0.00    +0.000 N 
ATOM      2  C   UNL     1       1.212   8.685  20.824  0.00  0.00    +0.000 A 
ATOM      3  N   UNL     1       0.711   9.020  22.010  0.00  0.00    +0.000 NA
ATOM      4  C   UNL     1      -0.205  10.031  21.789  0.00  0.00    +0.000 A 
ATOM      5  C   UNL     1      -0.985  10.788  22.684  0.00  0.00    +0.000 A 
ATOM      6  C   UNL     1      -1.823  11.785  22.147  0.00  0.00    +0.000 A 
ATOM      7  C   UNL     1      -1.930  11.998  20.771  0.00  0.00    +0.000 A 
ATOM      8  C   UNL     1      -1.194  11.227  19.881  0.00  0.00    +0.000 A 
ATOM      9  C   UNL     1      -0.309  10.288  20.429  0.00  0.00    +0.000 A 
ENDROOT
BRANCH   6  10
ATOM     10  S   UNL     1      -2.732  12.892  23.202  0.00  0.00    +0.000 S 
ATOM     11  O   UNL     1      -3.677  12.126  23.980  0.00  0.00    +0.000 OA
ATOM     12  O   UNL     1      -1.764  13.759  23.843  0.00  0.00    +0.000 OA
BRANCH  10  13
ATOM     13  N   UNL     1      -3.612  13.825  22.067  0.00  0.00    +0.000 NA
ATOM     14  C   UNL     1      -5.072  13.590  22.088  0.00  0.00    +0.000 C 
ATOM     15  C   UNL     1      -3.280  15.266  22.095  0.00  0.00    +0.000 C 
ENDBRANCH  10  13
ENDBRANCH   6  10
BRANCH   1  17
ATOM     16  C   UNL     1       2.012  10.962  18.401  0.00  0.00    +0.000 C 
ATOM     17  C   UNL     1       1.128   9.722  18.493  0.00  0.00    +0.000 C 
ENDBRANCH   1  17
BRANCH   2  18
ATOM     18  C   UNL     1       2.078   7.462  20.553  0.00  0.00    +0.000 C 
BRANCH  18  19
ATOM     19  N   UNL     1       1.644   6.527  19.486  0.00  0.00    +0.000 NA
ATOM     20  C   UNL     1       2.482   6.604  18.270  0.00  0.00    +0.000 C 
ATOM     21  C   UNL     1       3.953   6.129  18.410  0.00  0.00    +0.000 C 
ATOM     22  N   UNL     1       4.195   4.921  19.203  0.00  0.00    +0.000 NA
ATOM     23  C   UNL     1       3.172   4.587  20.195  0.00  0.00    +0.000 C 
ATOM     24  C   UNL     1       1.739   5.122  19.954  0.00  0.00    +0.000 C 
BRANCH  22  25
ATOM     25  C   UNL     1       4.799   3.788  18.509  0.00  0.00    +0.000 C 
BRANCH  25  26
ATOM     26  C   UNL     1       5.601   4.130  17.264  0.00  0.00    +0.000 A 
ATOM     27  C   UNL     1       4.931   4.005  16.026  0.00  0.00    +0.000 A 
ATOM     28  C   UNL     1       5.562   4.279  14.814  0.00  0.00    +0.000 A 
ATOM     29  F   UNL     1       4.885   4.145  13.670  0.00  0.00    +0.000 F 
ATOM     30  C   UNL     1       6.885   4.682  14.777  0.00  0.00    +0.000 A 
ATOM     31  C   UNL     1       7.572   4.807  15.981  0.00  0.00    +0.000 A 
ATOM     32  C   UNL     1       6.959   4.526  17.220  0.00  0.00    +0.000 A 
BRANCH  32  33
ATOM     33  O   UNL     1       7.807   4.779  18.263  0.00  0.00    +0.000 OA
ATOM     34  C   UNL     1       7.768   6.055  18.876  0.00  0.00    +0.000 C 
ENDBRANCH  32  33
ENDBRANCH  25  26
ENDBRANCH  22  25
ENDBRANCH  18  19
ENDBRANCH   2  18
TORSDOF 8
ENDMDL
MODEL 2
REMARK VINA RESULT:      -7.6      4.088     11.464
REMARK  Name = 
REMARK  12 active torsions:
REMARK  status: ('A' for Active; 'I' for Inactive)
REMARK    1  A    between atoms: C_1  and  C_2
REMARK    2  A    between atoms: C_2  and  N_3
REMARK    3  A    between atoms: C_4  and  C_5
REMARK    4  A    between atoms: C_5  and  N_6
REMARK    5  A    between atoms: N_9  and  C_10
REMARK    6  A    between atoms: C_10  and  C_11
REMARK    7  A    between atoms: C_17  and  O_18
REMARK    8  A    between atoms: O_18  and  C_19
REMARK    9  A    between atoms: C_25  and  S_26
REMARK   10  A    between atoms: S_26  and  N_29
REMARK   11  A    between atoms: N_29  and  C_30
REMARK   12  A    between atoms: N_29  and  C_31
REMARK                            x       y       z     vdW  Elec       q    Type
REMARK                         _______ _______ _______ _____ _____    ______ ____
ROOT
ATOM      1  N   UNL     1       1.405   8.480  20.045  0.00  0.00    +0.000 N 
ATOM      2  C   UNL     1       1.285   9.367  18.995  0.00  0.00    +0.000 A 
ATOM      3  N   UNL     1       2.033   8.946  17.979  0.00  0.00    +0.000 NA
ATOM      4  C   UNL     1       2.588   7.740  18.361  0.00  0.00    +0.000 A 
ATOM      5  C   UNL     1       3.496   6.887  17.702  0.00  0.00    +0.000 A 
ATOM      6  C   UNL     1       3.904   5.716  18.371  0.00  0.00    +0.000 A 
ATOM      7  C   UNL     1       3.398   5.368  19.626  0.00  0.00    +0.000 A 
ATOM      8  C   UNL     1       2.471   6.185  20.262  0.00  0.00    +0.000 A 
ATOM      9  C   UNL     1       2.129   7.382  19.620  0.00  0.00    +0.000 A 
ENDROOT
BRANCH   6  10
ATOM     10  S   UNL     1       5.157   4.654  17.690  0.00  0.00    +0.000 S 
ATOM     11  O   UNL     1       6.073   4.278  18.741  0.00  0.00    +0.000 OA
ATOM     12  O   UNL     1       4.477   3.650  16.896  0.00  0.00    +0.000 OA
BRANCH  10  13
ATOM     13  N   UNL     1       5.979   5.710  16.622  0.00  0.00    +0.000 NA
ATOM     14  C   UNL     1       7.245   6.254  17.159  0.00  0.00    +0.000 C 
ATOM     15  C   UNL     1       6.142   5.167  15.256  0.00  0.00    +0.000 C 
ENDBRANCH  10  13
ENDBRANCH   6  10
BRANCH   1  17
ATOM     16  C   UNL     1      -0.445   8.292  21.640  0.00  0.00    +0.000 C 
ATOM     17  C   UNL     1       1.023   8.657  21.434  0.00  0.00    +0.000 C 
ENDBRANCH   1  17
BRANCH   2  18
ATOM     18  C   UNL     1       0.301  10.528  18.937  0.00  0.00    +0.000 C 
BRANCH  18  19
ATOM     19  N   UNL     1       0.834  11.900  19.127  0.00  0.00    +0.000 NA
ATOM     20  C   UNL     1      -0.125  12.955  18.737  0.00  0.00    +0.000 C 
ATOM     21  C   UNL     1      -1.406  13.082  19.603  0.00  0.00    +0.000 C 
ATOM     22  N   UNL     1      -1.251  12.951  21.054  0.00  0.00    +0.000 NA
ATOM     23  C   UNL     1      -0.075  12.210  21.510  0.00  0.00    +0.000 C 
ATOM     24  C   UNL     1       1.145  12.145  20.558  0.00  0.00    +0.000 C 
BRANCH  22  25
ATOM     25  C   UNL     1      -1.627  14.106  21.863  0.00  0.00    +0.000 C 
BRANCH  25  26
ATOM     26  C   UNL     1      -3.018  14.057  22.476  0.00  0.00    +0.000 A 
ATOM     27  C   UNL     1      -3.250  13.050  23.440  0.00  0.00    +0.000 A 
ATOM     28  C   UNL     1      -4.486  12.897  24.064  0.00  0.00    +0.000 A 
ATOM     29  F   UNL     1      -4.655  11.929  24.969  0.00  0.00    +0.000 F 
ATOM     30  C   UNL     1      -5.546  13.732  23.755  0.00  0.00    +0.000 A 
ATOM     31  C   UNL     1      -5.347  14.729  22.805  0.00  0.00    +0.000 A 
ATOM     32  C   UNL     1      -4.109  14.897  22.151  0.00  0.00    +0.000 A 
BRANCH  32  33
ATOM     33  O   UNL     1      -4.134  15.974  21.309  0.00  0.00    +0.000 OA
ATOM     34  C   UNL     1      -5.253  16.144  20.457  0.00  0.00    +0.000 C 
ENDBRANCH  32  33
ENDBRANCH  25  26
ENDBRANCH  22  25
ENDBRANCH  18  19
ENDBRANCH   2  18
TORSDOF 8
ENDMDL
MODEL 3
REMARK VINA RESULT:      -7.5      3.886     11.307
REMARK  Name = 
REMARK  12 active torsions:
REMARK  status: ('A' for Active; 'I' for Inactive)
REMARK    1  A    between atoms: C_1  and  C_2
REMARK    2  A    between atoms: C_2  and  N_3
REMARK    3  A    between atoms: C_4  and  C_5
REMARK    4  A    between atoms: C_5  and  N_6
REMARK    5  A    between atoms: N_9  and  C_10
REMARK    6  A    between atoms: C_10  and  C_11
REMARK    7  A    between atoms: C_17  and  O_18
REMARK    8  A    between atoms: O_18  and  C_19
REMARK    9  A    between atoms: C_25  and  S_26
REMARK   10  A    between atoms: S_26  and  N_29
REMARK   11  A    between atoms: N_29  and  C_30
REMARK   12  A    between atoms: N_29  and  C_31
REMARK                            x       y       z     vdW  Elec       q    Type
REMARK                         _______ _______ _______ _____ _____    ______ ____
ROOT
ATOM      1  N   UNL     1       1.508   8.417  20.046  0.00  0.00    +0.000 N 
ATOM      2  C   UNL     1       1.450   9.288  18.978  0.00  0.00    +0.000 A 
ATOM      3  N   UNL     1       2.179   8.801  17.977  0.00  0.00    +0.000 NA
ATOM      4  C   UNL     1       2.656   7.572  18.387  0.00  0.00    +0.000 A 
ATOM      5  C   UNL     1       3.514   6.652  17.754  0.00  0.00    +0.000 A 
ATOM      6  C   UNL     1       3.844   5.472  18.449  0.00  0.00    +0.000 A 
ATOM      7  C   UNL     1       3.309   5.180  19.706  0.00  0.00    +0.000 A 
ATOM      8  C   UNL     1       2.430   6.066  20.318  0.00  0.00    +0.000 A 
ATOM      9  C   UNL     1       2.166   7.269  19.649  0.00  0.00    +0.000 A 
ENDROOT
BRANCH   6  10
ATOM     10  S   UNL     1       5.035   4.321  17.800  0.00  0.00    +0.000 S 
ATOM     11  O   UNL     1       6.099   4.156  18.763  0.00  0.00    +0.000 OA
ATOM     12  O   UNL     1       4.295   3.180  17.301  0.00  0.00    +0.000 OA
BRANCH  10  13
ATOM     13  N   UNL     1       5.663   5.176  16.456  0.00  0.00    +0.000 NA
ATOM     14  C   UNL     1       7.009   5.749  16.674  0.00  0.00    +0.000 C 
ATOM     15  C   UNL     1       5.576   4.430  15.182  0.00  0.00    +0.000 C 
ENDBRANCH  10  13
ENDBRANCH   6  10
BRANCH   1  17
ATOM     16  C   UNL     1      -0.359   8.365  21.631  0.00  0.00    +0.000 C 
ATOM     17  C   UNL     1       1.127   8.645  21.428  0.00  0.00    +0.000 C 
ENDBRANCH   1  17
BRANCH   2  18
ATOM     18  C   UNL     1       0.541  10.506  18.888  0.00  0.00    +0.000 C 
BRANCH  18  19
ATOM     19  N   UNL     1       1.095  11.819  19.303  0.00  0.00    +0.000 NA
ATOM     20  C   UNL     1       0.381  12.966  18.703  0.00  0.00    +0.000 C 
ATOM     21  C   UNL     1      -1.088  13.182  19.153  0.00  0.00    +0.000 C 
ATOM     22  N   UNL     1      -1.388  12.995  20.575  0.00  0.00    +0.000 NA
ATOM     23  C   UNL     1      -0.464  12.139  21.320  0.00  0.00    +0.000 C 
ATOM     24  C   UNL     1       0.977  11.994  20.772  0.00  0.00    +0.000 C 
BRANCH  22  25
ATOM     25  C   UNL     1      -1.901  14.154  21.298  0.00  0.00    +0.000 C 
BRANCH  25  26
ATOM     26  C   UNL     1      -3.256  13.970  21.963  0.00  0.00    +0.000 A 
ATOM     27  C   UNL     1      -4.133  13.039  21.364  0.00  0.00    +0.000 A 
ATOM     28  C   UNL     1      -5.406  12.790  21.875  0.00  0.00    +0.000 A 
ATOM     29  F   UNL     1      -6.198  11.899  21.272  0.00  0.00    +0.000 F 
ATOM     30  C   UNL     1      -5.864  13.459  22.996  0.00  0.00    +0.000 A 
ATOM     31  C   UNL     1      -5.023  14.387  23.603  0.00  0.00    +0.000 A 
ATOM     32  C   UNL     1      -3.735  14.664  23.099  0.00  0.00    +0.000 A 
BRANCH  32  33
ATOM     33  O   UNL     1      -3.074  15.560  23.893  0.00  0.00    +0.000 OA
ATOM     34  C   UNL     1      -2.450  15.090  25.075  0.00  0.00    +0.000 C 
ENDBRANCH  32  33
ENDBRANCH  25  26
ENDBRANCH  22  25
ENDBRANCH  18  19
ENDBRANCH   2  18
TORSDOF 8
ENDMDL
MODEL 4
REMARK VINA RESULT:      -7.5      4.325     11.355
REMARK  Name = 
REMARK  12 active torsions:
REMARK  status: ('A' for Active; 'I' for Inactive)
REMARK    1  A    between atoms: C_1  and  C_2
REMARK    2  A    between atoms: C_2  and  N_3
REMARK    3  A    between atoms: C_4  and  C_5
REMARK    4  A    between atoms: C_5  and  N_6
REMARK    5  A    between atoms: N_9  and  C_10
REMARK    6  A    between atoms: C_10  and  C_11
REMARK    7  A    between atoms: C_17  and  O_18
REMARK    8  A    between atoms: O_18  and  C_19
REMARK    9  A    between atoms: C_25  and  S_26
REMARK   10  A    between atoms: S_26  and  N_29
REMARK   11  A    between atoms: N_29  and  C_30
REMARK   12  A    between atoms: N_29  and  C_31
REMARK                            x       y       z     vdW  Elec       q    Type
REMARK                         _______ _______ _______ _____ _____    ______ ____
ROOT
ATOM      1  N   UNL     1       1.400   8.643  20.074  0.00  0.00    +0.000 N 
ATOM      2  C   UNL     1       1.315   9.507  19.002  0.00  0.00    +0.000 A 
ATOM      3  N   UNL     1       2.049   9.031  17.999  0.00  0.00    +0.000 NA
ATOM      4  C   UNL     1       2.557   7.815  18.413  0.00  0.00    +0.000 A 
ATOM      5  C   UNL     1       3.432   6.912  17.779  0.00  0.00    +0.000 A 
ATOM      6  C   UNL     1       3.794   5.744  18.479  0.00  0.00    +0.000 A 
ATOM      7  C   UNL     1       3.273   5.447  19.740  0.00  0.00    +0.000 A 
ATOM      8  C   UNL     1       2.377   6.315  20.353  0.00  0.00    +0.000 A 
ATOM      9  C   UNL     1       2.082   7.508  19.679  0.00  0.00    +0.000 A 
ENDROOT
BRANCH   6  10
ATOM     10  S   UNL     1       5.007   4.617  17.828  0.00  0.00    +0.000 S 
ATOM     11  O   UNL     1       5.907   4.236  18.891  0.00  0.00    +0.000 OA
ATOM     12  O   UNL     1       4.291   3.619  17.060  0.00  0.00    +0.000 OA
BRANCH  10  13
ATOM     13  N   UNL     1       5.869   5.613  16.733  0.00  0.00    +0.000 NA
ATOM     14  C   UNL     1       7.116   6.185  17.284  0.00  0.00    +0.000 C 
ATOM     15  C   UNL     1       6.078   4.996  15.406  0.00  0.00    +0.000 C 
ENDBRANCH  10  13
ENDBRANCH   6  10
BRANCH   1  17
ATOM     16  C   UNL     1      -0.435   8.478  21.689  0.00  0.00    +0.000 C 
ATOM     17  C   UNL     1       1.022   8.870  21.457  0.00  0.00    +0.000 C 
ENDBRANCH   1  17
BRANCH   2  18
ATOM     18  C   UNL     1       0.377  10.702  18.912  0.00  0.00    +0.000 C 
BRANCH  18  19
ATOM     19  N   UNL     1       0.982  12.053  18.798  0.00  0.00    +0.000 NA
ATOM     20  C   UNL     1       0.000  13.101  18.446  0.00  0.00    +0.000 C 
ATOM     21  C   UNL     1      -1.084  13.422  19.509  0.00  0.00    +0.000 C 
ATOM     22  N   UNL     1      -0.654  13.479  20.909  0.00  0.00    +0.000 NA
ATOM     23  C   UNL     1       0.564  12.737  21.239  0.00  0.00    +0.000 C 
ATOM     24  C   UNL     1       1.572  12.470  20.094  0.00  0.00    +0.000 C 
BRANCH  22  25
ATOM     25  C   UNL     1      -0.827  14.753  21.598  0.00  0.00    +0.000 C 
BRANCH  25  26
ATOM     26  C   UNL     1      -1.677  14.711  22.859  0.00  0.00    +0.000 A 
ATOM     27  C   UNL     1      -1.076  15.193  24.043  0.00  0.00    +0.000 A 
ATOM     28  C   UNL     1      -1.749  15.196  25.264  0.00  0.00    +0.000 A 
ATOM     29  F   UNL     1      -1.136  15.663  26.355  0.00  0.00    +0.000 F 
ATOM     30  C   UNL     1      -3.043  14.717  25.363  0.00  0.00    +0.000 A 
ATOM     31  C   UNL     1      -3.657  14.230  24.213  0.00  0.00    +0.000 A 
ATOM     32  C   UNL     1      -2.994  14.206  22.968  0.00  0.00    +0.000 A 
BRANCH  32  33
ATOM     33  O   UNL     1      -3.815  13.744  21.976  0.00  0.00    +0.000 OA
ATOM     34  C   UNL     1      -4.949  12.976  22.337  0.00  0.00    +0.000 C 
ENDBRANCH  32  33
ENDBRANCH  25  26
ENDBRANCH  22  25
ENDBRANCH  18  19
ENDBRANCH   2  18
TORSDOF 8
ENDMDL
MODEL 5
REMARK VINA RESULT:      -7.4      4.826     10.959
REMARK  Name = 
REMARK  12 active torsions:
REMARK  status: ('A' for Active; 'I' for Inactive)
REMARK    1  A    between atoms: C_1  and  C_2
REMARK    2  A    between atoms: C_2  and  N_3
REMARK    3  A    between atoms: C_4  and  C_5
REMARK    4  A    between atoms: C_5  and  N_6
REMARK    5  A    between atoms: N_9  and  C_10
REMARK    6  A    between atoms: C_10  and  C_11
REMARK    7  A    between atoms: C_17  and  O_18
REMARK    8  A    between atoms: O_18  and  C_19
REMARK    9  A    between atoms: C_25  and  S_26
REMARK   10  A    between atoms: S_26  and  N_29
REMARK   11  A    between atoms: N_29  and  C_30
REMARK   12  A    between atoms: N_29  and  C_31
REMARK                            x       y       z     vdW  Elec       q    Type
REMARK                         _______ _______ _______ _____ _____    ______ ____
ROOT
ATOM      1  N   UNL     1       1.454   8.668  19.986  0.00  0.00    +0.000 N 
ATOM      2  C   UNL     1       1.226   9.656  19.051  0.00  0.00    +0.000 A 
ATOM      3  N   UNL     1       1.906   9.374  17.943  0.00  0.00    +0.000 NA
ATOM      4  C   UNL     1       2.524   8.157  18.149  0.00  0.00    +0.000 A 
ATOM      5  C   UNL     1       3.404   7.414  17.337  0.00  0.00    +0.000 A 
ATOM      6  C   UNL     1       3.897   6.195  17.843  0.00  0.00    +0.000 A 
ATOM      7  C   UNL     1       3.501   5.696  19.086  0.00  0.00    +0.000 A 
ATOM      8  C   UNL     1       2.602   6.406  19.874  0.00  0.00    +0.000 A 
ATOM      9  C   UNL     1       2.175   7.651  19.392  0.00  0.00    +0.000 A 
ENDROOT
BRANCH   6  10
ATOM     10  S   UNL     1       5.125   5.259  16.960  0.00  0.00    +0.000 S 
ATOM     11  O   UNL     1       4.877   3.851  17.166  0.00  0.00    +0.000 OA
ATOM     12  O   UNL     1       5.205   5.817  15.625  0.00  0.00    +0.000 OA
BRANCH  10  13
ATOM     13  N   UNL     1       6.560   5.674  17.797  0.00  0.00    +0.000 NA
ATOM     14  C   UNL     1       7.602   4.624  17.774  0.00  0.00    +0.000 C 
ATOM     15  C   UNL     1       7.100   7.001  17.432  0.00  0.00    +0.000 C 
ENDBRANCH  10  13
ENDBRANCH   6  10
BRANCH   1  17
ATOM     16  C   UNL     1      -0.293   8.365  21.676  0.00  0.00    +0.000 C 
ATOM     17  C   UNL     1       1.175   8.683  21.411  0.00  0.00    +0.000 C 
ENDBRANCH   1  17
BRANCH   2  18
ATOM     18  C   UNL     1       0.206  10.779  19.192  0.00  0.00    +0.000 C 
BRANCH  18  19
ATOM     19  N   UNL     1       0.467  12.049  18.469  0.00  0.00    +0.000 NA
ATOM     20  C   UNL     1      -0.711  12.940  18.418  0.00  0.00    +0.000 C 
ATOM     21  C   UNL     1      -1.190  13.536  19.768  0.00  0.00    +0.000 C 
ATOM     22  N   UNL     1      -0.159  13.995  20.702  0.00  0.00    +0.000 NA
ATOM     23  C   UNL     1       1.166  13.394  20.544  0.00  0.00    +0.000 C 
ATOM     24  C   UNL     1       1.532  12.826  19.150  0.00  0.00    +0.000 C 
BRANCH  22  25
ATOM     25  C   UNL     1      -0.175  15.411  21.056  0.00  0.00    +0.000 C 
BRANCH  25  26
ATOM     26  C   UNL     1      -0.456  16.374  19.913  0.00  0.00    +0.000 A 
ATOM     27  C   UNL     1      -1.711  17.025  19.929  0.00  0.00    +0.000 A 
ATOM     28  C   UNL     1      -2.089  17.921  18.931  0.00  0.00    +0.000 A 
ATOM     29  F   UNL     1      -3.286  18.511  18.991  0.00  0.00    +0.000 F 
ATOM     30  C   UNL     1      -1.243  18.205  17.874  0.00  0.00    +0.000 A 
ATOM     31  C   UNL     1      -0.004  17.574  17.830  0.00  0.00    +0.000 A 
ATOM     32  C   UNL     1       0.398  16.655  18.821  0.00  0.00    +0.000 A 
BRANCH  32  33
ATOM     33  O   UNL     1       1.673  16.212  18.601  0.00  0.00    +0.000 OA
ATOM     34  C   UNL     1       2.744  16.881  19.243  0.00  0.00    +0.000 C 
ENDBRANCH  32  33
ENDBRANCH  25  26
ENDBRANCH  22  25
ENDBRANCH  18  19
ENDBRANCH   2  18
TORSDOF 8
ENDMDL
MODEL 6
REMARK VINA RESULT:      -7.4      4.334     11.437
REMARK  Name = 
REMARK  12 active torsions:
REMARK  status: ('A' for Active; 'I' for Inactive)
REMARK    1  A    between atoms: C_1  and  C_2
REMARK    2  A    between atoms: C_2  and  N_3
REMARK    3  A    between atoms: C_4  and  C_5
REMARK    4  A    between atoms: C_5  and  N_6
REMARK    5  A    between atoms: N_9  and  C_10
REMARK    6  A    between atoms: C_10  and  C_11
REMARK    7  A    between atoms: C_17  and  O_18
REMARK    8  A    between atoms: O_18  and  C_19
REMARK    9  A    between atoms: C_25  and  S_26
REMARK   10  A    between atoms: S_26  and  N_29
REMARK   11  A    between atoms: N_29  and  C_30
REMARK   12  A    between atoms: N_29  and  C_31
REMARK                            x       y       z     vdW  Elec       q    Type
REMARK                         _______ _______ _______ _____ _____    ______ ____
ROOT
ATOM      1  N   UNL     1       1.960   7.854  19.594  0.00  0.00    +0.000 N 
ATOM      2  C   UNL     1       1.627   8.937  18.808  0.00  0.00    +0.000 A 
ATOM      3  N   UNL     1       2.314   8.880  17.670  0.00  0.00    +0.000 NA
ATOM      4  C   UNL     1       3.046   7.709  17.701  0.00  0.00    +0.000 A 
ATOM      5  C   UNL     1       3.979   7.174  16.791  0.00  0.00    +0.000 A 
ATOM      6  C   UNL     1       4.591   5.948  17.119  0.00  0.00    +0.000 A 
ATOM      7  C   UNL     1       4.262   5.245  18.280  0.00  0.00    +0.000 A 
ATOM      8  C   UNL     1       3.313   5.748  19.161  0.00  0.00    +0.000 A 
ATOM      9  C   UNL     1       2.764   7.002  18.861  0.00  0.00    +0.000 A 
ENDROOT
BRANCH   6  10
ATOM     10  S   UNL     1       5.888   5.266  16.110  0.00  0.00    +0.000 S 
ATOM     11  O   UNL     1       5.791   3.825  16.135  0.00  0.00    +0.000 OA
ATOM     12  O   UNL     1       5.880   5.995  14.858  0.00  0.00    +0.000 OA
BRANCH  10  13
ATOM     13  N   UNL     1       7.292   5.719  16.979  0.00  0.00    +0.000 NA
ATOM     14  C   UNL     1       7.243   7.083  17.548  0.00  0.00    +0.000 C 
ATOM     15  C   UNL     1       7.725   4.716  17.976  0.00  0.00    +0.000 C 
ENDBRANCH  10  13
ENDBRANCH   6  10
BRANCH   1  17
ATOM     16  C   UNL     1       0.310   8.140  21.382  0.00  0.00    +0.000 C 
ATOM     17  C   UNL     1       1.703   7.641  21.007  0.00  0.00    +0.000 C 
ENDBRANCH   1  17
BRANCH   2  18
ATOM     18  C   UNL     1       0.510   9.927  19.108  0.00  0.00    +0.000 C 
BRANCH  18  19
ATOM     19  N   UNL     1       0.860  11.367  19.188  0.00  0.00    +0.000 NA
ATOM     20  C   UNL     1      -0.169  12.249  18.598  0.00  0.00    +0.000 C 
ATOM     21  C   UNL     1      -1.538  12.303  19.326  0.00  0.00    +0.000 C 
ATOM     22  N   UNL     1      -1.516  12.340  20.791  0.00  0.00    +0.000 NA
ATOM     23  C   UNL     1      -0.316  11.802  21.431  0.00  0.00    +0.000 C 
ATOM     24  C   UNL     1       0.993  11.793  20.603  0.00  0.00    +0.000 C 
BRANCH  22  25
ATOM     25  C   UNL     1      -2.102  13.515  21.428  0.00  0.00    +0.000 C 
BRANCH  25  26
ATOM     26  C   UNL     1      -3.423  13.287  22.146  0.00  0.00    +0.000 A 
ATOM     27  C   UNL     1      -3.349  12.950  23.516  0.00  0.00    +0.000 A 
ATOM     28  C   UNL     1      -4.489  12.707  24.279  0.00  0.00    +0.000 A 
ATOM     29  F   UNL     1      -4.365  12.391  25.572  0.00  0.00    +0.000 F 
ATOM     30  C   UNL     1      -5.750  12.780  23.715  0.00  0.00    +0.000 A 
ATOM     31  C   UNL     1      -5.853  13.104  22.365  0.00  0.00    +0.000 A 
ATOM     32  C   UNL     1      -4.714  13.345  21.569  0.00  0.00    +0.000 A 
BRANCH  32  33
ATOM     33  O   UNL     1      -5.064  13.704  20.297  0.00  0.00    +0.000 OA
ATOM     34  C   UNL     1      -5.388  12.684  19.368  0.00  0.00    +0.000 C 
ENDBRANCH  32  33
ENDBRANCH  25  26
ENDBRANCH  22  25
ENDBRANCH  18  19
ENDBRANCH   2  18
TORSDOF 8
ENDMDL
MODEL 7
REMARK VINA RESULT:      -7.3      4.336     11.077
REMARK  Name = 
REMARK  12 active torsions:
REMARK  status: ('A' for Active; 'I' for Inactive)
REMARK    1  A    between atoms: C_1  and  C_2
REMARK    2  A    between atoms: C_2  and  N_3
REMARK    3  A    between atoms: C_4  and  C_5
REMARK    4  A    between atoms: C_5  and  N_6
REMARK    5  A    between atoms: N_9  and  C_10
REMARK    6  A    between atoms: C_10  and  C_11
REMARK    7  A    between atoms: C_17  and  O_18
REMARK    8  A    between atoms: O_18  and  C_19
REMARK    9  A    between atoms: C_25  and  S_26
REMARK   10  A    between atoms: S_26  and  N_29
REMARK   11  A    between atoms: N_29  and  C_30
REMARK   12  A    between atoms: N_29  and  C_31
REMARK                            x       y       z     vdW  Elec       q    Type
REMARK                         _______ _______ _______ _____ _____    ______ ____
ROOT
ATOM      1  N   UNL     1       1.204   8.396  20.015  0.00  0.00    +0.000 N 
ATOM      2  C   UNL     1       1.484   9.243  18.962  0.00  0.00    +0.000 A 
ATOM      3  N   UNL     1       2.376   8.665  18.161  0.00  0.00    +0.000 NA
ATOM      4  C   UNL     1       2.620   7.406  18.673  0.00  0.00    +0.000 A 
ATOM      5  C   UNL     1       3.508   6.393  18.261  0.00  0.00    +0.000 A 
ATOM      6  C   UNL     1       3.549   5.204  19.016  0.00  0.00    +0.000 A 
ATOM      7  C   UNL     1       2.708   4.995  20.111  0.00  0.00    +0.000 A 
ATOM      8  C   UNL     1       1.801   5.975  20.498  0.00  0.00    +0.000 A 
ATOM      9  C   UNL     1       1.821   7.181  19.785  0.00  0.00    +0.000 A 
ENDROOT
BRANCH   6  10
ATOM     10  S   UNL     1       4.739   3.930  18.667  0.00  0.00    +0.000 S 
ATOM     11  O   UNL     1       4.823   3.747  17.236  0.00  0.00    +0.000 OA
ATOM     12  O   UNL     1       5.920   4.224  19.453  0.00  0.00    +0.000 OA
BRANCH  10  13
ATOM     13  N   UNL     1       3.987   2.544  19.335  0.00  0.00    +0.000 NA
ATOM     14  C   UNL     1       3.498   1.574  18.332  0.00  0.00    +0.000 C 
ATOM     15  C   UNL     1       4.778   1.893  20.401  0.00  0.00    +0.000 C 
ENDBRANCH  10  13
ENDBRANCH   6  10
BRANCH   1  17
ATOM     16  C   UNL     1       1.545   9.103  22.335  0.00  0.00    +0.000 C 
ATOM     17  C   UNL     1       0.535   8.693  21.267  0.00  0.00    +0.000 C 
ENDBRANCH   1  17
BRANCH   2  18
ATOM     18  C   UNL     1       0.745  10.539  18.660  0.00  0.00    +0.000 C 
BRANCH  18  19
ATOM     19  N   UNL     1       1.384  11.815  19.069  0.00  0.00    +0.000 NA
ATOM     20  C   UNL     1       0.752  13.003  18.457  0.00  0.00    +0.000 C 
ATOM     21  C   UNL     1      -0.702  13.320  18.896  0.00  0.00    +0.000 C 
ATOM     22  N   UNL     1      -1.022  13.164  20.318  0.00  0.00    +0.000 NA
ATOM     23  C   UNL     1      -0.162  12.253  21.075  0.00  0.00    +0.000 C 
ATOM     24  C   UNL     1       1.269  12.007  20.536  0.00  0.00    +0.000 C 
BRANCH  22  25
ATOM     25  C   UNL     1      -1.460  14.360  21.029  0.00  0.00    +0.000 C 
BRANCH  25  26
ATOM     26  C   UNL     1      -2.378  14.122  22.218  0.00  0.00    +0.000 A 
ATOM     27  C   UNL     1      -3.680  13.656  21.929  0.00  0.00    +0.000 A 
ATOM     28  C   UNL     1      -4.616  13.410  22.932  0.00  0.00    +0.000 A 
ATOM     29  F   UNL     1      -5.834  12.970  22.607  0.00  0.00    +0.000 F 
ATOM     30  C   UNL     1      -4.302  13.622  24.263  0.00  0.00    +0.000 A 
ATOM     31  C   UNL     1      -3.028  14.087  24.577  0.00  0.00    +0.000 A 
ATOM     32  C   UNL     1      -2.067  14.353  23.579  0.00  0.00    +0.000 A 
BRANCH  32  33
ATOM     33  O   UNL     1      -0.876  14.740  24.128  0.00  0.00    +0.000 OA
ATOM     34  C   UNL     1      -0.695  16.102  24.468  0.00  0.00    +0.000 C 
ENDBRANCH  32  33
ENDBRANCH  25  26
ENDBRANCH  22  25
ENDBRANCH  18  19
ENDBRANCH   2  18
TORSDOF 8
ENDMDL
MODEL 8
REMARK VINA RESULT:      -7.3      4.446     10.873
REMARK  Name = 
REMARK  12 active torsions:
REMARK  status: ('A' for Active; 'I' for Inactive)
REMARK    1  A    between atoms: C_1  and  C_2
REMARK    2  A    between atoms: C_2  and  N_3
REMARK    3  A    between atoms: C_4  and  C_5
REMARK    4  A    between atoms: C_5  and  N_6
REMARK    5  A    between atoms: N_9  and  C_10
REMARK    6  A    between atoms: C_10  and  C_11
REMARK    7  A    between atoms: C_17  and  O_18
REMARK    8  A    between atoms: O_18  and  C_19
REMARK    9  A    between atoms: C_25  and  S_26
REMARK   10  A    between atoms: S_26  and  N_29
REMARK   11  A    between atoms: N_29  and  C_30
REMARK   12  A    between atoms: N_29  and  C_31
REMARK                            x       y       z     vdW  Elec       q    Type
REMARK                         _______ _______ _______ _____ _____    ______ ____
ROOT
ATOM      1  N   UNL     1       1.433   8.505  20.146  0.00  0.00    +0.000 N 
ATOM      2  C   UNL     1       1.295   9.403  19.108  0.00  0.00    +0.000 A 
ATOM      3  N   UNL     1       2.018   8.987  18.071  0.00  0.00    +0.000 NA
ATOM      4  C   UNL     1       2.572   7.773  18.428  0.00  0.00    +0.000 A 
ATOM      5  C   UNL     1       3.459   6.921  17.742  0.00  0.00    +0.000 A 
ATOM      6  C   UNL     1       3.873   5.740  18.390  0.00  0.00    +0.000 A 
ATOM      7  C   UNL     1       3.393   5.384  19.653  0.00  0.00    +0.000 A 
ATOM      8  C   UNL     1       2.488   6.201  20.318  0.00  0.00    +0.000 A 
ATOM      9  C   UNL     1       2.139   7.407  19.694  0.00  0.00    +0.000 A 
ENDROOT
BRANCH   6  10
ATOM     10  S   UNL     1       5.103   4.676  17.671  0.00  0.00    +0.000 S 
ATOM     11  O   UNL     1       5.955   4.169  18.721  0.00  0.00    +0.000 OA
ATOM     12  O   UNL     1       4.411   3.776  16.770  0.00  0.00    +0.000 OA
BRANCH  10  13
ATOM     13  N   UNL     1       6.019   5.773  16.728  0.00  0.00    +0.000 NA
ATOM     14  C   UNL     1       7.118   6.435  17.462  0.00  0.00    +0.000 C 
ATOM     15  C   UNL     1       6.469   5.215  15.435  0.00  0.00    +0.000 C 
ENDBRANCH  10  13
ENDBRANCH   6  10
BRANCH   1  17
ATOM     16  C   UNL     1      -0.408   8.434  21.760  0.00  0.00    +0.000 C 
ATOM     17  C   UNL     1       1.084   8.672  21.545  0.00  0.00    +0.000 C 
ENDBRANCH   1  17
BRANCH   2  18
ATOM     18  C   UNL     1       0.319  10.571  19.083  0.00  0.00    +0.000 C 
BRANCH  18  19
ATOM     19  N   UNL     1       0.726  11.801  18.357  0.00  0.00    +0.000 NA
ATOM     20  C   UNL     1      -0.362  12.796  18.246  0.00  0.00    +0.000 C 
ATOM     21  C   UNL     1      -0.839  13.454  19.567  0.00  0.00    +0.000 C 
ATOM     22  N   UNL     1       0.191  13.831  20.539  0.00  0.00    +0.000 NA
ATOM     23  C   UNL     1       1.460  13.108  20.444  0.00  0.00    +0.000 C 
ATOM     24  C   UNL     1       1.829  12.488  19.074  0.00  0.00    +0.000 C 
BRANCH  22  25
ATOM     25  C   UNL     1       0.291  15.247  20.876  0.00  0.00    +0.000 C 
BRANCH  25  26
ATOM     26  C   UNL     1       0.181  16.213  19.707  0.00  0.00    +0.000 A 
ATOM     27  C   UNL     1       1.347  16.402  18.932  0.00  0.00    +0.000 A 
ATOM     28  C   UNL     1       1.375  17.270  17.841  0.00  0.00    +0.000 A 
ATOM     29  F   UNL     1       2.503  17.414  17.140  0.00  0.00    +0.000 F 
ATOM     30  C   UNL     1       0.251  17.990  17.477  0.00  0.00    +0.000 A 
ATOM     31  C   UNL     1      -0.910  17.827  18.227  0.00  0.00    +0.000 A 
ATOM     32  C   UNL     1      -0.961  16.964  19.341  0.00  0.00    +0.000 A 
BRANCH  32  33
ATOM     33  O   UNL     1      -2.218  16.921  19.879  0.00  0.00    +0.000 OA
ATOM     34  C   UNL     1      -2.466  17.630  21.080  0.00  0.00    +0.000 C 
ENDBRANCH  32  33
ENDBRANCH  25  26
ENDBRANCH  22  25
ENDBRANCH  18  19
ENDBRANCH   2  18
TORSDOF 8
ENDMDL
MODEL 9
REMARK VINA RESULT:      -7.3      4.144     11.364
REMARK  Name = 
REMARK  12 active torsions:
REMARK  status: ('A' for Active; 'I' for Inactive)
REMARK    1  A    between atoms: C_1  and  C_2
REMARK    2  A    between atoms: C_2  and  N_3
REMARK    3  A    between atoms: C_4  and  C_5
REMARK    4  A    between atoms: C_5  and  N_6
REMARK    5  A    between atoms: N_9  and  C_10
REMARK    6  A    between atoms: C_10  and  C_11
REMARK    7  A    between atoms: C_17  and  O_18
REMARK    8  A    between atoms: O_18  and  C_19
REMARK    9  A    between atoms: C_25  and  S_26
REMARK   10  A    between atoms: S_26  and  N_29
REMARK   11  A    between atoms: N_29  and  C_30
REMARK   12  A    between atoms: N_29  and  C_31
REMARK                            x       y       z     vdW  Elec       q    Type
REMARK                         _______ _______ _______ _____ _____    ______ ____
ROOT
ATOM      1  N   UNL     1       1.477   8.478  19.960  0.00  0.00    +0.000 N 
ATOM      2  C   UNL     1       1.363   9.337  18.887  0.00  0.00    +0.000 A 
ATOM      3  N   UNL     1       2.119   8.891  17.888  0.00  0.00    +0.000 NA
ATOM      4  C   UNL     1       2.672   7.696  18.304  0.00  0.00    +0.000 A 
ATOM      5  C   UNL     1       3.586   6.828  17.675  0.00  0.00    +0.000 A 
ATOM      6  C   UNL     1       3.989   5.674  18.377  0.00  0.00    +0.000 A 
ATOM      7  C   UNL     1       3.475   5.358  19.636  0.00  0.00    +0.000 A 
ATOM      8  C   UNL     1       2.543   6.190  20.244  0.00  0.00    +0.000 A 
ATOM      9  C   UNL     1       2.204   7.371  19.569  0.00  0.00    +0.000 A 
ENDROOT
BRANCH   6  10
ATOM     10  S   UNL     1       5.248   4.596  17.732  0.00  0.00    +0.000 S 
ATOM     11  O   UNL     1       6.010   4.055  18.834  0.00  0.00    +0.000 OA
ATOM     12  O   UNL     1       4.609   3.725  16.767  0.00  0.00    +0.000 OA
BRANCH  10  13
ATOM     13  N   UNL     1       6.253   5.689  16.878  0.00  0.00    +0.000 NA
ATOM     14  C   UNL     1       7.313   6.310  17.701  0.00  0.00    +0.000 C 
ATOM     15  C   UNL     1       6.780   5.145  15.608  0.00  0.00    +0.000 C 
ENDBRANCH  10  13
ENDBRANCH   6  10
BRANCH   1  17
ATOM     16  C   UNL     1      -0.382   8.321  21.548  0.00  0.00    +0.000 C 
ATOM     17  C   UNL     1       1.084   8.690  21.341  0.00  0.00    +0.000 C 
ENDBRANCH   1  17
BRANCH   2  18
ATOM     18  C   UNL     1       0.379  10.495  18.792  0.00  0.00    +0.000 C 
BRANCH  18  19
ATOM     19  N   UNL     1       0.896  11.867  19.025  0.00  0.00    +0.000 NA
ATOM     20  C   UNL     1      -0.025  12.923  18.554  0.00  0.00    +0.000 C 
ATOM     21  C   UNL     1      -1.375  13.053  19.308  0.00  0.00    +0.000 C 
ATOM     22  N   UNL     1      -1.343  12.923  20.767  0.00  0.00    +0.000 NA
ATOM     23  C   UNL     1      -0.211  12.181  21.322  0.00  0.00    +0.000 C 
ATOM     24  C   UNL     1       1.084  12.114  20.476  0.00  0.00    +0.000 C 
BRANCH  22  25
ATOM     25  C   UNL     1      -1.785  14.079  21.540  0.00  0.00    +0.000 C 
BRANCH  25  26
ATOM     26  C   UNL     1      -3.277  14.368  21.502  0.00  0.00    +0.000 A 
ATOM     27  C   UNL     1      -3.673  15.571  20.875  0.00  0.00    +0.000 A 
ATOM     28  C   UNL     1      -5.011  15.951  20.786  0.00  0.00    +0.000 A 
ATOM     29  F   UNL     1      -5.334  17.098  20.183  0.00  0.00    +0.000 F 
ATOM     30  C   UNL     1      -6.012  15.158  21.320  0.00  0.00    +0.000 A 
ATOM     31  C   UNL     1      -5.650  13.971  21.949  0.00  0.00    +0.000 A 
ATOM     32  C   UNL     1      -4.303  13.569  22.061  0.00  0.00    +0.000 A 
BRANCH  32  33
ATOM     33  O   UNL     1      -4.198  12.344  22.661  0.00  0.00    +0.000 OA
ATOM     34  C   UNL     1      -3.476  12.242  23.875  0.00  0.00    +0.000 C 
ENDBRANCH  32  33
ENDBRANCH  25  26
ENDBRANCH  22  25
ENDBRANCH  18  19
ENDBRANCH   2  18
TORSDOF 8
ENDMDL
