MODEL 1
REMARK VINA RESULT:      -7.8      0.000      0.000
REMARK  Name = 
REMARK  11 active torsions:
REMARK  status: ('A' for Active; 'I' for Inactive)
REMARK    1  A    between atoms: C_1  and  C_2
REMARK    2  A    between atoms: C_2  and  C_3
REMARK    3  A    between atoms: C_2  and  C_4
REMARK    4  A    between atoms: C_6  and  C_7
REMARK    5  A    between atoms: C_7  and  C_8
REMARK    6  A    between atoms: C_8  and  C_9
REMARK    7  A    between atoms: C_9  and  C_10
REMARK    8  A    between atoms: C_10  and  C_11
REMARK    9  A    between atoms: C_11  and  C_12
REMARK   10  A    between atoms: C_12  and  C_13
REMARK   11  A    between atoms: C_13  and  C_15
REMARK                            x       y       z     vdW  Elec       q    Type
REMARK                         _______ _______ _______ _____ _____    ______ ____
ROOT
ATOM      1  C   UNL     1       3.519   3.446  17.131  0.00  0.00    +0.000 C 
ENDROOT
BRANCH   1   4
ATOM      2  C   UNL     1       6.647   5.248  17.272  0.00  0.00    +0.000 A 
ATOM      3  N   UNL     1       5.506   4.777  17.882  0.00  0.00    +0.000 NA
ATOM      4  C   UNL     1       4.811   4.169  16.937  0.00  0.00    +0.000 A 
ATOM      5  N   UNL     1       5.455   4.242  15.718  0.00  0.00    +0.000 N 
ATOM      6  N   UNL     1       5.028   3.711  14.539  0.00  0.00    +0.000 NA
ATOM      7  C   UNL     1       5.851   3.915  13.560  0.00  0.00    +0.000 A 
ATOM      8 CL   UNL     1       5.370   3.258  12.034  0.00  0.00    +0.000 Cl
ATOM      9  C   UNL     1       7.144   4.643  13.641  0.00  0.00    +0.000 A 
ATOM     10  C   UNL     1       7.497   5.135  14.834  0.00  0.00    +0.000 A 
ATOM     11  C   UNL     1       6.631   4.932  15.931  0.00  0.00    +0.000 A 
BRANCH   2  13
ATOM     12  C   UNL     1       7.693   7.466  17.764  0.00  0.00    +0.000 C 
ATOM     13  C   UNL     1       7.697   5.967  18.064  0.00  0.00    +0.000 C 
ATOM     14  C   UNL     1       7.533   5.705  19.561  0.00  0.00    +0.000 C 
ENDBRANCH   2  13
ENDBRANCH   1   4
BRANCH   1  15
ATOM     15  C   UNL     1       3.660   2.369  18.210  0.00  0.00    +0.000 C 
BRANCH  15  16
ATOM     16  C   UNL     1       2.412   2.259  19.086  0.00  0.00    +0.000 C 
BRANCH  16  17
ATOM     17  C   UNL     1       2.720   2.666  20.531  0.00  0.00    +0.000 C 
BRANCH  17  18
ATOM     18  C   UNL     1       1.778   3.771  21.005  0.00  0.00    +0.000 C 
BRANCH  18  19
ATOM     19  C   UNL     1       1.488   4.783  19.897  0.00  0.00    +0.000 C 
BRANCH  19  20
ATOM     20  C   UNL     1       2.549   5.870  19.851  0.00  0.00    +0.000 C 
ATOM     21  O   UNL     1       3.727   5.665  20.133  0.00  0.00    +0.000 OA
BRANCH  20  22
ATOM     22  C   UNL     1       2.126   7.249  19.490  0.00  0.00    +0.000 A 
ATOM     23  C   UNL     1       2.364   7.697  18.184  0.00  0.00    +0.000 A 
ATOM     24  C   UNL     1       1.956   8.973  17.797  0.00  0.00    +0.000 A 
ATOM     25  C   UNL     1       1.311   9.806  18.710  0.00  0.00    +0.000 A 
ATOM     26  C   UNL     1       1.077   9.366  20.013  0.00  0.00    +0.000 A 
ATOM     27  C   UNL     1       1.482   8.090  20.405  0.00  0.00    +0.000 A 
ENDBRANCH  20  22
ENDBRANCH  19  20
ENDBRANCH  18  19
ENDBRANCH  17  18
ENDBRANCH  16  17
ENDBRANCH  15  16
ENDBRANCH   1  15
TORSDOF 9
ENDMDL
MODEL 2
REMARK VINA RESULT:      -7.4      1.042      1.354
REMARK  Name = 
REMARK  11 active torsions:
REMARK  status: ('A' for Active; 'I' for Inactive)
REMARK    1  A    between atoms: C_1  and  C_2
REMARK    2  A    between atoms: C_2  and  C_3
REMARK    3  A    between atoms: C_2  and  C_4
REMARK    4  A    between atoms: C_6  and  C_7
REMARK    5  A    between atoms: C_7  and  C_8
REMARK    6  A    between atoms: C_8  and  C_9
REMARK    7  A    between atoms: C_9  and  C_10
REMARK    8  A    between atoms: C_10  and  C_11
REMARK    9  A    between atoms: C_11  and  C_12
REMARK   10  A    between atoms: C_12  and  C_13
REMARK   11  A    between atoms: C_13  and  C_15
REMARK                            x       y       z     vdW  Elec       q    Type
REMARK                         _______ _______ _______ _____ _____    ______ ____
ROOT
ATOM      1  C   UNL     1       3.686   3.551  17.189  0.00  0.00    +0.000 C 
ENDROOT
BRANCH   1   4
ATOM      2  C   UNL     1       6.756   5.455  17.161  0.00  0.00    +0.000 A 
ATOM      3  N   UNL     1       5.647   4.978  17.823  0.00  0.00    +0.000 NA
ATOM      4  C   UNL     1       4.948   4.305  16.926  0.00  0.00    +0.000 A 
ATOM      5  N   UNL     1       5.557   4.341  15.689  0.00  0.00    +0.000 N 
ATOM      6  N   UNL     1       5.117   3.742  14.547  0.00  0.00    +0.000 NA
ATOM      7  C   UNL     1       5.908   3.926  13.537  0.00  0.00    +0.000 A 
ATOM      8 CL   UNL     1       5.410   3.183  12.058  0.00  0.00    +0.000 Cl
ATOM      9  C   UNL     1       7.179   4.697  13.550  0.00  0.00    +0.000 A 
ATOM     10  C   UNL     1       7.546   5.255  14.709  0.00  0.00    +0.000 A 
ATOM     11  C   UNL     1       6.716   5.077  15.837  0.00  0.00    +0.000 A 
BRANCH   2  13
ATOM     12  C   UNL     1       7.595   7.747  17.710  0.00  0.00    +0.000 C 
ATOM     13  C   UNL     1       7.802   6.244  17.890  0.00  0.00    +0.000 C 
ATOM     14  C   UNL     1       7.841   5.868  19.372  0.00  0.00    +0.000 C 
ENDBRANCH   2  13
ENDBRANCH   1   4
BRANCH   1  15
ATOM     15  C   UNL     1       3.988   2.080  17.487  0.00  0.00    +0.000 C 
BRANCH  15  16
ATOM     16  C   UNL     1       3.479   1.651  18.864  0.00  0.00    +0.000 C 
BRANCH  16  17
ATOM     17  C   UNL     1       3.834   2.695  19.928  0.00  0.00    +0.000 C 
BRANCH  17  18
ATOM     18  C   UNL     1       3.047   2.459  21.215  0.00  0.00    +0.000 C 
BRANCH  18  19
ATOM     19  C   UNL     1       2.253   3.696  21.630  0.00  0.00    +0.000 C 
BRANCH  19  20
ATOM     20  C   UNL     1       1.438   4.244  20.471  0.00  0.00    +0.000 C 
ATOM     21  O   UNL     1       0.602   3.575  19.867  0.00  0.00    +0.000 OA
BRANCH  20  22
ATOM     22  C   UNL     1       1.699   5.639  20.025  0.00  0.00    +0.000 A 
ATOM     23  C   UNL     1       2.138   5.846  18.712  0.00  0.00    +0.000 A 
ATOM     24  C   UNL     1       2.366   7.141  18.246  0.00  0.00    +0.000 A 
ATOM     25  C   UNL     1       2.156   8.231  19.089  0.00  0.00    +0.000 A 
ATOM     26  C   UNL     1       1.724   8.029  20.400  0.00  0.00    +0.000 A 
ATOM     27  C   UNL     1       1.494   6.735  20.871  0.00  0.00    +0.000 A 
ENDBRANCH  20  22
ENDBRANCH  19  20
ENDBRANCH  18  19
ENDBRANCH  17  18
ENDBRANCH  16  17
ENDBRANCH  15  16
ENDBRANCH   1  15
TORSDOF 9
ENDMDL
MODEL 3
REMARK VINA RESULT:      -7.3      3.048      5.062
REMARK  Name = 
REMARK  11 active torsions:
REMARK  status: ('A' for Active; 'I' for Inactive)
REMARK    1  A    between atoms: C_1  and  C_2
REMARK    2  A    between atoms: C_2  and  C_3
REMARK    3  A    between atoms: C_2  and  C_4
REMARK    4  A    between atoms: C_6  and  C_7
REMARK    5  A    between atoms: C_7  and  C_8
REMARK    6  A    between atoms: C_8  and  C_9
REMARK    7  A    between atoms: C_9  and  C_10
REMARK    8  A    between atoms: C_10  and  C_11
REMARK    9  A    between atoms: C_11  and  C_12
REMARK   10  A    between atoms: C_12  and  C_13
REMARK   11  A    between atoms: C_13  and  C_15
REMARK                            x       y       z     vdW  Elec       q    Type
REMARK                         _______ _______ _______ _____ _____    ______ ____
ROOT
ATOM      1  C   UNL     1       1.985   7.636  18.520  0.00  0.00    +0.000 C 
ENDROOT
BRANCH   1   4
ATOM      2  C   UNL     1       4.776   5.860  17.066  0.00  0.00    +0.000 A 
ATOM      3  N   UNL     1       4.155   7.038  17.415  0.00  0.00    +0.000 NA
ATOM      4  C   UNL     1       2.991   6.697  17.939  0.00  0.00    +0.000 A 
ATOM      5  N   UNL     1       2.821   5.327  17.929  0.00  0.00    +0.000 N 
ATOM      6  N   UNL     1       1.748   4.636  18.404  0.00  0.00    +0.000 NA
ATOM      7  C   UNL     1       1.873   3.353  18.284  0.00  0.00    +0.000 A 
ATOM      8 CL   UNL     1       0.546   2.417  18.877  0.00  0.00    +0.000 Cl
ATOM      9  C   UNL     1       3.039   2.638  17.701  0.00  0.00    +0.000 A 
ATOM     10  C   UNL     1       4.056   3.385  17.256  0.00  0.00    +0.000 A 
ATOM     11  C   UNL     1       3.963   4.789  17.370  0.00  0.00    +0.000 A 
BRANCH   2  13
ATOM     12  C   UNL     1       7.168   5.216  17.404  0.00  0.00    +0.000 C 
ATOM     13  C   UNL     1       6.150   5.866  16.469  0.00  0.00    +0.000 C 
ATOM     14  C   UNL     1       6.156   5.194  15.095  0.00  0.00    +0.000 C 
ENDBRANCH   2  13
ENDBRANCH   1   4
BRANCH   1  15
ATOM     15  C   UNL     1       2.237   7.838  20.017  0.00  0.00    +0.000 C 
BRANCH  15  16
ATOM     16  C   UNL     1       1.113   7.260  20.877  0.00  0.00    +0.000 C 
BRANCH  16  17
ATOM     17  C   UNL     1       0.201   8.372  21.405  0.00  0.00    +0.000 C 
BRANCH  17  18
ATOM     18  C   UNL     1       0.998   9.638  21.712  0.00  0.00    +0.000 C 
BRANCH  18  19
ATOM     19  C   UNL     1       0.259  10.897  21.262  0.00  0.00    +0.000 C 
BRANCH  19  20
ATOM     20  C   UNL     1       0.386  11.107  19.763  0.00  0.00    +0.000 C 
ATOM     21  O   UNL     1       1.433  11.463  19.225  0.00  0.00    +0.000 OA
BRANCH  20  22
ATOM     22  C   UNL     1      -0.824  10.911  18.921  0.00  0.00    +0.000 A 
ATOM     23  C   UNL     1      -1.953  11.694  19.188  0.00  0.00    +0.000 A 
ATOM     24  C   UNL     1      -3.099  11.562  18.403  0.00  0.00    +0.000 A 
ATOM     25  C   UNL     1      -3.119  10.649  17.349  0.00  0.00    +0.000 A 
ATOM     26  C   UNL     1      -1.998   9.864  17.082  0.00  0.00    +0.000 A 
ATOM     27  C   UNL     1      -0.849   9.993  17.865  0.00  0.00    +0.000 A 
ENDBRANCH  20  22
ENDBRANCH  19  20
ENDBRANCH  18  19
ENDBRANCH  17  18
ENDBRANCH  16  17
ENDBRANCH  15  16
ENDBRANCH   1  15
TORSDOF 9
ENDMDL
MODEL 4
REMARK VINA RESULT:      -7.2      4.339      7.718
REMARK  Name = 
REMARK  11 active torsions:
REMARK  status: ('A' for Active; 'I' for Inactive)
REMARK    1  A    between atoms: C_1  and  C_2
REMARK    2  A    between atoms: C_2  and  C_3
REMARK    3  A    between atoms: C_2  and  C_4
REMARK    4  A    between atoms: C_6  and  C_7
REMARK    5  A    between atoms: C_7  and  C_8
REMARK    6  A    between atoms: C_8  and  C_9
REMARK    7  A    between atoms: C_9  and  C_10
REMARK    8  A    between atoms: C_10  and  C_11
REMARK    9  A    between atoms: C_11  and  C_12
REMARK   10  A    between atoms: C_12  and  C_13
REMARK   11  A    between atoms: C_13  and  C_15
REMARK                            x       y       z     vdW  Elec       q    Type
REMARK                         _______ _______ _______ _____ _____    ______ ____
ROOT
ATOM      1  C   UNL     1       4.903   6.490  16.470  0.00  0.00    +0.000 C 
ENDROOT
BRANCH   1   4
ATOM      2  C   UNL     1       3.766   3.729  18.504  0.00  0.00    +0.000 A 
ATOM      3  N   UNL     1       4.504   4.217  17.449  0.00  0.00    +0.000 NA
ATOM      4  C   UNL     1       4.274   5.517  17.413  0.00  0.00    +0.000 A 
ATOM      5  N   UNL     1       3.391   5.896  18.403  0.00  0.00    +0.000 N 
ATOM      6  N   UNL     1       2.949   7.158  18.660  0.00  0.00    +0.000 NA
ATOM      7  C   UNL     1       2.141   7.220  19.671  0.00  0.00    +0.000 A 
ATOM      8 CL   UNL     1       1.549   8.798  20.055  0.00  0.00    +0.000 Cl
ATOM      9  C   UNL     1       1.699   6.075  20.510  0.00  0.00    +0.000 A 
ATOM     10  C   UNL     1       2.178   4.865  20.196  0.00  0.00    +0.000 A 
ATOM     11  C   UNL     1       3.065   4.752  19.104  0.00  0.00    +0.000 A 
BRANCH   2  13
ATOM     12  C   UNL     1       4.451   2.065  20.241  0.00  0.00    +0.000 C 
ATOM     13  C   UNL     1       3.817   2.275  18.867  0.00  0.00    +0.000 C 
ATOM     14  C   UNL     1       2.427   1.642  18.799  0.00  0.00    +0.000 C 
ENDBRANCH   2  13
ENDBRANCH   1   4
BRANCH   1  15
ATOM     15  C   UNL     1       5.963   7.329  17.189  0.00  0.00    +0.000 C 
BRANCH  15  16
ATOM     16  C   UNL     1       7.165   6.492  17.628  0.00  0.00    +0.000 C 
BRANCH  16  17
ATOM     17  C   UNL     1       8.204   7.361  18.345  0.00  0.00    +0.000 C 
BRANCH  17  18
ATOM     18  C   UNL     1       8.028   8.836  17.990  0.00  0.00    +0.000 C 
BRANCH  18  19
ATOM     19  C   UNL     1       8.932   9.735  18.832  0.00  0.00    +0.000 C 
BRANCH  19  20
ATOM     20  C   UNL     1       8.996  11.142  18.263  0.00  0.00    +0.000 C 
ATOM     21  O   UNL     1       8.207  11.558  17.417  0.00  0.00    +0.000 OA
BRANCH  20  22
ATOM     22  C   UNL     1      10.091  12.037  18.724  0.00  0.00    +0.000 A 
ATOM     23  C   UNL     1      11.271  11.452  19.200  0.00  0.00    +0.000 A 
ATOM     24  C   UNL     1      12.333  12.256  19.614  0.00  0.00    +0.000 A 
ATOM     25  C   UNL     1      12.221  13.644  19.554  0.00  0.00    +0.000 A 
ATOM     26  C   UNL     1      11.045  14.231  19.084  0.00  0.00    +0.000 A 
ATOM     27  C   UNL     1       9.980  13.431  18.669  0.00  0.00    +0.000 A 
ENDBRANCH  20  22
ENDBRANCH  19  20
ENDBRANCH  18  19
ENDBRANCH  17  18
ENDBRANCH  16  17
ENDBRANCH  15  16
ENDBRANCH   1  15
TORSDOF 9
ENDMDL
MODEL 5
REMARK VINA RESULT:      -7.2      3.734      7.319
REMARK  Name = 
REMARK  11 active torsions:
REMARK  status: ('A' for Active; 'I' for Inactive)
REMARK    1  A    between atoms: C_1  and  C_2
REMARK    2  A    between atoms: C_2  and  C_3
REMARK    3  A    between atoms: C_2  and  C_4
REMARK    4  A    between atoms: C_6  and  C_7
REMARK    5  A    between atoms: C_7  and  C_8
REMARK    6  A    between atoms: C_8  and  C_9
REMARK    7  A    between atoms: C_9  and  C_10
REMARK    8  A    between atoms: C_10  and  C_11
REMARK    9  A    between atoms: C_11  and  C_12
REMARK   10  A    between atoms: C_12  and  C_13
REMARK   11  A    between atoms: C_13  and  C_15
REMARK                            x       y       z     vdW  Elec       q    Type
REMARK                         _______ _______ _______ _____ _____    ______ ____
ROOT
ATOM      1  C   UNL     1       4.390   4.862  16.650  0.00  0.00    +0.000 C 
ENDROOT
BRANCH   1   4
ATOM      2  C   UNL     1       2.884   4.322  19.889  0.00  0.00    +0.000 A 
ATOM      3  N   UNL     1       3.579   3.854  18.798  0.00  0.00    +0.000 NA
ATOM      4  C   UNL     1       3.668   4.870  17.958  0.00  0.00    +0.000 A 
ATOM      5  N   UNL     1       3.035   5.989  18.459  0.00  0.00    +0.000 N 
ATOM      6  N   UNL     1       2.947   7.210  17.863  0.00  0.00    +0.000 NA
ATOM      7  C   UNL     1       2.312   8.083  18.578  0.00  0.00    +0.000 A 
ATOM      8 CL   UNL     1       2.173   9.659  17.880  0.00  0.00    +0.000 Cl
ATOM      9  C   UNL     1       1.716   7.848  19.920  0.00  0.00    +0.000 A 
ATOM     10  C   UNL     1       1.844   6.623  20.441  0.00  0.00    +0.000 A 
ATOM     11  C   UNL     1       2.532   5.640  19.697  0.00  0.00    +0.000 A 
BRANCH   2  13
ATOM     12  C   UNL     1       1.176   2.955  21.103  0.00  0.00    +0.000 C 
ATOM     13  C   UNL     1       2.627   3.436  21.071  0.00  0.00    +0.000 C 
ATOM     14  C   UNL     1       3.598   2.256  21.095  0.00  0.00    +0.000 C 
ENDBRANCH   2  13
ENDBRANCH   1   4
BRANCH   1  15
ATOM     15  C   UNL     1       5.901   4.741  16.869  0.00  0.00    +0.000 C 
BRANCH  15  16
ATOM     16  C   UNL     1       6.651   6.000  16.433  0.00  0.00    +0.000 C 
BRANCH  16  17
ATOM     17  C   UNL     1       6.916   6.921  17.628  0.00  0.00    +0.000 C 
BRANCH  17  18
ATOM     18  C   UNL     1       8.040   7.909  17.323  0.00  0.00    +0.000 C 
BRANCH  18  19
ATOM     19  C   UNL     1       8.439   8.715  18.559  0.00  0.00    +0.000 C 
BRANCH  19  20
ATOM     20  C   UNL     1       8.584  10.192  18.233  0.00  0.00    +0.000 C 
ATOM     21  O   UNL     1       7.800  10.794  17.502  0.00  0.00    +0.000 OA
BRANCH  20  22
ATOM     22  C   UNL     1       9.752  10.923  18.791  0.00  0.00    +0.000 A 
ATOM     23  C   UNL     1      10.738  11.376  17.906  0.00  0.00    +0.000 A 
ATOM     24  C   UNL     1      11.835  12.091  18.386  0.00  0.00    +0.000 A 
ATOM     25  C   UNL     1      11.951  12.357  19.750  0.00  0.00    +0.000 A 
ATOM     26  C   UNL     1      10.973  11.903  20.636  0.00  0.00    +0.000 A 
ATOM     27  C   UNL     1       9.874  11.187  20.160  0.00  0.00    +0.000 A 
ENDBRANCH  20  22
ENDBRANCH  19  20
ENDBRANCH  18  19
ENDBRANCH  17  18
ENDBRANCH  16  17
ENDBRANCH  15  16
ENDBRANCH   1  15
TORSDOF 9
ENDMDL
MODEL 6
REMARK VINA RESULT:      -7.2      4.119      6.371
REMARK  Name = 
REMARK  11 active torsions:
REMARK  status: ('A' for Active; 'I' for Inactive)
REMARK    1  A    between atoms: C_1  and  C_2
REMARK    2  A    between atoms: C_2  and  C_3
REMARK    3  A    between atoms: C_2  and  C_4
REMARK    4  A    between atoms: C_6  and  C_7
REMARK    5  A    between atoms: C_7  and  C_8
REMARK    6  A    between atoms: C_8  and  C_9
REMARK    7  A    between atoms: C_9  and  C_10
REMARK    8  A    between atoms: C_10  and  C_11
REMARK    9  A    between atoms: C_11  and  C_12
REMARK   10  A    between atoms: C_12  and  C_13
REMARK   11  A    between atoms: C_13  and  C_15
REMARK                            x       y       z     vdW  Elec       q    Type
REMARK                         _______ _______ _______ _____ _____    ______ ____
ROOT
ATOM      1  C   UNL     1       2.354   7.492  18.840  0.00  0.00    +0.000 C 
ENDROOT
BRANCH   1   4
ATOM      2  C   UNL     1       4.753   5.148  17.499  0.00  0.00    +0.000 A 
ATOM      3  N   UNL     1       4.174   6.397  17.509  0.00  0.00    +0.000 NA
ATOM      4  C   UNL     1       3.223   6.351  18.425  0.00  0.00    +0.000 A 
ATOM      5  N   UNL     1       3.149   5.101  19.006  0.00  0.00    +0.000 N 
ATOM      6  N   UNL     1       2.294   4.711  19.992  0.00  0.00    +0.000 NA
ATOM      7  C   UNL     1       2.468   3.482  20.361  0.00  0.00    +0.000 A 
ATOM      8 CL   UNL     1       1.419   2.927  21.618  0.00  0.00    +0.000 Cl
ATOM      9  C   UNL     1       3.475   2.537  19.811  0.00  0.00    +0.000 A 
ATOM     10  C   UNL     1       4.280   2.993  18.845  0.00  0.00    +0.000 A 
ATOM     11  C   UNL     1       4.129   4.329  18.414  0.00  0.00    +0.000 A 
BRANCH   2  13
ATOM     12  C   UNL     1       5.462   4.740  15.136  0.00  0.00    +0.000 C 
ATOM     13  C   UNL     1       5.909   4.848  16.593  0.00  0.00    +0.000 C 
ATOM     14  C   UNL     1       7.018   5.889  16.752  0.00  0.00    +0.000 C 
ENDBRANCH   2  13
ENDBRANCH   1   4
BRANCH   1  15
ATOM     15  C   UNL     1       2.374   8.599  17.782  0.00  0.00    +0.000 C 
BRANCH  15  16
ATOM     16  C   UNL     1       1.548   9.816  18.200  0.00  0.00    +0.000 C 
BRANCH  16  17
ATOM     17  C   UNL     1       1.076   9.684  19.651  0.00  0.00    +0.000 C 
BRANCH  17  18
ATOM     18  C   UNL     1       0.524  11.009  20.173  0.00  0.00    +0.000 C 
BRANCH  18  19
ATOM     19  C   UNL     1      -0.803  10.821  20.908  0.00  0.00    +0.000 C 
BRANCH  19  20
ATOM     20  C   UNL     1      -0.659  11.117  22.391  0.00  0.00    +0.000 C 
ATOM     21  O   UNL     1       0.088  10.479  23.130  0.00  0.00    +0.000 OA
BRANCH  20  22
ATOM     22  C   UNL     1      -1.494  12.200  22.976  0.00  0.00    +0.000 A 
ATOM     23  C   UNL     1      -2.809  11.898  23.350  0.00  0.00    +0.000 A 
ATOM     24  C   UNL     1      -3.615  12.878  23.928  0.00  0.00    +0.000 A 
ATOM     25  C   UNL     1      -3.112  14.161  24.136  0.00  0.00    +0.000 A 
ATOM     26  C   UNL     1      -1.804  14.468  23.760  0.00  0.00    +0.000 A 
ATOM     27  C   UNL     1      -0.993  13.491  23.181  0.00  0.00    +0.000 A 
ENDBRANCH  20  22
ENDBRANCH  19  20
ENDBRANCH  18  19
ENDBRANCH  17  18
ENDBRANCH  16  17
ENDBRANCH  15  16
ENDBRANCH   1  15
TORSDOF 9
ENDMDL
MODEL 7
REMARK VINA RESULT:      -7.1      4.027      6.035
REMARK  Name = 
REMARK  11 active torsions:
REMARK  status: ('A' for Active; 'I' for Inactive)
REMARK    1  A    between atoms: C_1  and  C_2
REMARK    2  A    between atoms: C_2  and  C_3
REMARK    3  A    between atoms: C_2  and  C_4
REMARK    4  A    between atoms: C_6  and  C_7
REMARK    5  A    between atoms: C_7  and  C_8
REMARK    6  A    between atoms: C_8  and  C_9
REMARK    7  A    between atoms: C_9  and  C_10
REMARK    8  A    between atoms: C_10  and  C_11
REMARK    9  A    between atoms: C_11  and  C_12
REMARK   10  A    between atoms: C_12  and  C_13
REMARK   11  A    between atoms: C_13  and  C_15
REMARK                            x       y       z     vdW  Elec       q    Type
REMARK                         _______ _______ _______ _____ _____    ______ ____
ROOT
ATOM      1  C   UNL     1       3.027   7.183  18.607  0.00  0.00    +0.000 C 
ENDROOT
BRANCH   1   4
ATOM      2  C   UNL     1       4.716   4.510  16.859  0.00  0.00    +0.000 A 
ATOM      3  N   UNL     1       4.469   5.851  17.048  0.00  0.00    +0.000 NA
ATOM      4  C   UNL     1       3.568   5.924  18.011  0.00  0.00    +0.000 A 
ATOM      5  N   UNL     1       3.203   4.668  18.451  0.00  0.00    +0.000 N 
ATOM      6  N   UNL     1       2.312   4.379  19.439  0.00  0.00    +0.000 NA
ATOM      7  C   UNL     1       2.184   3.108  19.655  0.00  0.00    +0.000 A 
ATOM      8 CL   UNL     1       1.072   2.674  20.906  0.00  0.00    +0.000 Cl
ATOM      9  C   UNL     1       2.903   2.022  18.939  0.00  0.00    +0.000 A 
ATOM     10  C   UNL     1       3.764   2.385  17.981  0.00  0.00    +0.000 A 
ATOM     11  C   UNL     1       3.938   3.761  17.714  0.00  0.00    +0.000 A 
BRANCH   2  13
ATOM     12  C   UNL     1       5.332   4.462  14.436  0.00  0.00    +0.000 C 
ATOM     13  C   UNL     1       5.729   4.052  15.854  0.00  0.00    +0.000 C 
ATOM     14  C   UNL     1       7.125   4.567  16.205  0.00  0.00    +0.000 C 
ENDBRANCH   2  13
ENDBRANCH   1   4
BRANCH   1  15
ATOM     15  C   UNL     1       2.651   8.181  17.508  0.00  0.00    +0.000 C 
BRANCH  15  16
ATOM     16  C   UNL     1       1.582   9.173  17.968  0.00  0.00    +0.000 C 
BRANCH  16  17
ATOM     17  C   UNL     1       1.283   9.002  19.461  0.00  0.00    +0.000 C 
BRANCH  17  18
ATOM     18  C   UNL     1       0.138   9.912  19.901  0.00  0.00    +0.000 C 
BRANCH  18  19
ATOM     19  C   UNL     1      -0.681  10.410  18.711  0.00  0.00    +0.000 C 
BRANCH  19  20
ATOM     20  C   UNL     1      -1.589  11.561  19.108  0.00  0.00    +0.000 C 
ATOM     21  O   UNL     1      -1.262  12.418  19.927  0.00  0.00    +0.000 OA
BRANCH  20  22
ATOM     22  C   UNL     1      -2.948  11.624  18.507  0.00  0.00    +0.000 A 
ATOM     23  C   UNL     1      -3.107  11.209  17.179  0.00  0.00    +0.000 A 
ATOM     24  C   UNL     1      -4.370  11.224  16.588  0.00  0.00    +0.000 A 
ATOM     25  C   UNL     1      -5.477  11.654  17.319  0.00  0.00    +0.000 A 
ATOM     26  C   UNL     1      -5.322  12.074  18.640  0.00  0.00    +0.000 A 
ATOM     27  C   UNL     1      -4.060  12.060  19.237  0.00  0.00    +0.000 A 
ENDBRANCH  20  22
ENDBRANCH  19  20
ENDBRANCH  18  19
ENDBRANCH  17  18
ENDBRANCH  16  17
ENDBRANCH  15  16
ENDBRANCH   1  15
TORSDOF 9
ENDMDL
MODEL 8
REMARK VINA RESULT:      -7.1      4.115      7.178
REMARK  Name = 
REMARK  11 active torsions:
REMARK  status: ('A' for Active; 'I' for Inactive)
REMARK    1  A    between atoms: C_1  and  C_2
REMARK    2  A    between atoms: C_2  and  C_3
REMARK    3  A    between atoms: C_2  and  C_4
REMARK    4  A    between atoms: C_6  and  C_7
REMARK    5  A    between atoms: C_7  and  C_8
REMARK    6  A    between atoms: C_8  and  C_9
REMARK    7  A    between atoms: C_9  and  C_10
REMARK    8  A    between atoms: C_10  and  C_11
REMARK    9  A    between atoms: C_11  and  C_12
REMARK   10  A    between atoms: C_12  and  C_13
REMARK   11  A    between atoms: C_13  and  C_15
REMARK                            x       y       z     vdW  Elec       q    Type
REMARK                         _______ _______ _______ _____ _____    ______ ____
ROOT
ATOM      1  C   UNL     1       6.023   6.162  16.789  0.00  0.00    +0.000 C 
ENDROOT
BRANCH   1   4
ATOM      2  C   UNL     1       2.813   7.072  18.176  0.00  0.00    +0.000 A 
ATOM      3  N   UNL     1       4.039   7.425  17.657  0.00  0.00    +0.000 NA
ATOM      4  C   UNL     1       4.673   6.291  17.414  0.00  0.00    +0.000 A 
ATOM      5  N   UNL     1       3.905   5.202  17.774  0.00  0.00    +0.000 N 
ATOM      6  N   UNL     1       4.245   3.890  17.646  0.00  0.00    +0.000 NA
ATOM      7  C   UNL     1       3.315   3.081  18.045  0.00  0.00    +0.000 A 
ATOM      8 CL   UNL     1       3.680   1.398  17.902  0.00  0.00    +0.000 Cl
ATOM      9  C   UNL     1       1.991   3.474  18.596  0.00  0.00    +0.000 A 
ATOM     10  C   UNL     1       1.729   4.783  18.689  0.00  0.00    +0.000 A 
ATOM     11  C   UNL     1       2.714   5.700  18.262  0.00  0.00    +0.000 A 
BRANCH   2  13
ATOM     12  C   UNL     1       1.703   8.300  20.051  0.00  0.00    +0.000 C 
ATOM     13  C   UNL     1       1.804   8.120  18.536  0.00  0.00    +0.000 C 
ATOM     14  C   UNL     1       2.118   9.447  17.844  0.00  0.00    +0.000 C 
ENDBRANCH   2  13
ENDBRANCH   1   4
BRANCH   1  15
ATOM     15  C   UNL     1       7.057   5.714  17.825  0.00  0.00    +0.000 C 
BRANCH  15  16
ATOM     16  C   UNL     1       7.846   6.889  18.403  0.00  0.00    +0.000 C 
BRANCH  16  17
ATOM     17  C   UNL     1       8.105   7.954  17.332  0.00  0.00    +0.000 C 
BRANCH  17  18
ATOM     18  C   UNL     1       7.956   9.361  17.906  0.00  0.00    +0.000 C 
BRANCH  18  19
ATOM     19  C   UNL     1       9.038   9.669  18.941  0.00  0.00    +0.000 C 
BRANCH  19  20
ATOM     20  C   UNL     1       9.723  10.992  18.645  0.00  0.00    +0.000 C 
ATOM     21  O   UNL     1      10.234  11.251  17.557  0.00  0.00    +0.000 OA
BRANCH  20  22
ATOM     22  C   UNL     1       9.813  11.997  19.738  0.00  0.00    +0.000 A 
ATOM     23  C   UNL     1      10.636  13.115  19.547  0.00  0.00    +0.000 A 
ATOM     24  C   UNL     1      10.725  14.094  20.536  0.00  0.00    +0.000 A 
ATOM     25  C   UNL     1       9.994  13.962  21.716  0.00  0.00    +0.000 A 
ATOM     26  C   UNL     1       9.178  12.848  21.912  0.00  0.00    +0.000 A 
ATOM     27  C   UNL     1       9.085  11.865  20.926  0.00  0.00    +0.000 A 
ENDBRANCH  20  22
ENDBRANCH  19  20
ENDBRANCH  18  19
ENDBRANCH  17  18
ENDBRANCH  16  17
ENDBRANCH  15  16
ENDBRANCH   1  15
TORSDOF 9
ENDMDL
MODEL 9
REMARK VINA RESULT:      -7.1      3.280      5.288
REMARK  Name = 
REMARK  11 active torsions:
REMARK  status: ('A' for Active; 'I' for Inactive)
REMARK    1  A    between atoms: C_1  and  C_2
REMARK    2  A    between atoms: C_2  and  C_3
REMARK    3  A    between atoms: C_2  and  C_4
REMARK    4  A    between atoms: C_6  and  C_7
REMARK    5  A    between atoms: C_7  and  C_8
REMARK    6  A    between atoms: C_8  and  C_9
REMARK    7  A    between atoms: C_9  and  C_10
REMARK    8  A    between atoms: C_10  and  C_11
REMARK    9  A    between atoms: C_11  and  C_12
REMARK   10  A    between atoms: C_12  and  C_13
REMARK   11  A    between atoms: C_13  and  C_15
REMARK                            x       y       z     vdW  Elec       q    Type
REMARK                         _______ _______ _______ _____ _____    ______ ____
ROOT
ATOM      1  C   UNL     1       2.270   7.738  17.628  0.00  0.00    +0.000 C 
ENDROOT
BRANCH   1   4
ATOM      2  C   UNL     1       5.404   5.954  17.850  0.00  0.00    +0.000 A 
ATOM      3  N   UNL     1       4.660   7.017  17.390  0.00  0.00    +0.000 NA
ATOM      4  C   UNL     1       3.428   6.816  17.826  0.00  0.00    +0.000 A 
ATOM      5  N   UNL     1       3.338   5.641  18.544  0.00  0.00    +0.000 N 
ATOM      6  N   UNL     1       2.224   5.138  19.145  0.00  0.00    +0.000 NA
ATOM      7  C   UNL     1       2.441   4.026  19.773  0.00  0.00    +0.000 A 
ATOM      8 CL   UNL     1       1.067   3.338  20.565  0.00  0.00    +0.000 Cl
ATOM      9  C   UNL     1       3.744   3.316  19.870  0.00  0.00    +0.000 A 
ATOM     10  C   UNL     1       4.793   3.873  19.255  0.00  0.00    +0.000 A 
ATOM     11  C   UNL     1       4.603   5.088  18.561  0.00  0.00    +0.000 A 
BRANCH   2  13
ATOM     12  C   UNL     1       7.693   5.994  18.857  0.00  0.00    +0.000 C 
ATOM     13  C   UNL     1       6.875   5.872  17.572  0.00  0.00    +0.000 C 
ATOM     14  C   UNL     1       7.222   4.588  16.818  0.00  0.00    +0.000 C 
ENDBRANCH   2  13
ENDBRANCH   1   4
BRANCH   1  15
ATOM     15  C   UNL     1       2.337   8.907  18.615  0.00  0.00    +0.000 C 
BRANCH  15  16
ATOM     16  C   UNL     1       1.103   8.975  19.516  0.00  0.00    +0.000 C 
BRANCH  16  17
ATOM     17  C   UNL     1       1.348   8.238  20.836  0.00  0.00    +0.000 C 
BRANCH  17  18
ATOM     18  C   UNL     1       1.203   9.182  22.028  0.00  0.00    +0.000 C 
BRANCH  18  19
ATOM     19  C   UNL     1      -0.263   9.436  22.377  0.00  0.00    +0.000 C 
BRANCH  19  20
ATOM     20  C   UNL     1      -0.588  10.920  22.350  0.00  0.00    +0.000 C 
ATOM     21  O   UNL     1      -1.005  11.530  23.333  0.00  0.00    +0.000 OA
BRANCH  20  22
ATOM     22  C   UNL     1      -0.432  11.650  21.064  0.00  0.00    +0.000 A 
ATOM     23  C   UNL     1       0.686  12.477  20.901  0.00  0.00    +0.000 A 
ATOM     24  C   UNL     1       0.884  13.157  19.699  0.00  0.00    +0.000 A 
ATOM     25  C   UNL     1      -0.033  13.013  18.658  0.00  0.00    +0.000 A 
ATOM     26  C   UNL     1      -1.150  12.194  18.818  0.00  0.00    +0.000 A 
ATOM     27  C   UNL     1      -1.353  11.512  20.019  0.00  0.00    +0.000 A 
ENDBRANCH  20  22
ENDBRANCH  19  20
ENDBRANCH  18  19
ENDBRANCH  17  18
ENDBRANCH  16  17
ENDBRANCH  15  16
ENDBRANCH   1  15
TORSDOF 9
ENDMDL
