MODEL 1
REMARK VINA RESULT:      -6.8      0.000      0.000
REMARK  Name = 
REMARK  19 active torsions:
REMARK  status: ('A' for Active; 'I' for Inactive)
REMARK    1  A    between atoms: C_1  and  C_2
REMARK    2  A    between atoms: C_2  and  C_3
REMARK    3  A    between atoms: C_3  and  N_4
REMARK    4  A    between atoms: N_4  and  C_5
REMARK    5  A    between atoms: C_5  and  C_6
REMARK    6  A    between atoms: C_6  and  C_7
REMARK    7  A    between atoms: C_8  and  C_10
REMARK    8  A    between atoms: C_10  and  C_11
REMARK    9  A    between atoms: C_10  and  N_26
REMARK   10  A    between atoms: C_11  and  C_12
REMARK   11  A    between atoms: C_15  and  O_16
REMARK   12  A    between atoms: O_16  and  C_17
REMARK   13  A    between atoms: C_17  and  C_18
REMARK   14  A    between atoms: C_18  and  N_19
REMARK   15  A    between atoms: N_19  and  C_20
REMARK   16  A    between atoms: N_19  and  C_22
REMARK   17  A    between atoms: C_20  and  C_21
REMARK   18  A    between atoms: C_22  and  C_23
REMARK   19  A    between atoms: C_27  and  C_29
REMARK                            x       y       z     vdW  Elec       q    Type
REMARK                         _______ _______ _______ _____ _____    ______ ____
ROOT
ATOM      1  C   UNL     1       4.234   6.929  17.499  0.00  0.00    +0.000 C 
ENDROOT
BRANCH   1   2
ATOM      2  N   UNL     1       3.348   5.863  17.986  0.00  0.00    +0.000 N 
ATOM      3  C   UNL     1       3.568   5.149  19.129  0.00  0.00    +0.000 C 
ATOM      4  O   UNL     1       4.482   5.362  19.910  0.00  0.00    +0.000 OA
ATOM      5  H   UNL     1       2.527   5.655  17.425  0.00  0.00    +0.000 HD
BRANCH   3   6
ATOM      6  C   UNL     1       2.524   4.141  19.443  0.00  0.00    +0.000 A 
ATOM      7  C   UNL     1       2.137   3.851  20.759  0.00  0.00    +0.000 A 
ATOM      8  C   UNL     1       1.181   2.864  20.996  0.00  0.00    +0.000 A 
ATOM      9  C   UNL     1       0.611   2.175  19.925  0.00  0.00    +0.000 A 
ATOM     10  C   UNL     1       0.986   2.475  18.616  0.00  0.00    +0.000 A 
ATOM     11  C   UNL     1       1.941   3.459  18.372  0.00  0.00    +0.000 A 
ENDBRANCH   3   6
ENDBRANCH   1   2
BRANCH   1  13
ATOM     12  N   UNL     1       6.249   5.698  16.479  0.00  0.00    +0.000 N 
ATOM     13  C   UNL     1       5.080   6.469  16.278  0.00  0.00    +0.000 C 
ATOM     14  O   UNL     1       4.786   6.889  15.155  0.00  0.00    +0.000 OA
BRANCH  12  15
ATOM     15  C   UNL     1       6.967   5.270  15.270  0.00  0.00    +0.000 C 
BRANCH  15  17
ATOM     16  C   UNL     1       6.204   3.881  13.222  0.00  0.00    +0.000 C 
ATOM     17  C   UNL     1       6.559   3.896  14.703  0.00  0.00    +0.000 C 
ENDBRANCH  15  17
ENDBRANCH  12  15
BRANCH  12  18
ATOM     18  C   UNL     1       6.765   5.182  17.763  0.00  0.00    +0.000 C 
BRANCH  18  19
ATOM     19  C   UNL     1       7.649   6.104  18.615  0.00  0.00    +0.000 C 
ATOM     20  C   UNL     1       7.946   7.481  18.036  0.00  0.00    +0.000 C 
ENDBRANCH  18  19
ENDBRANCH  12  18
ENDBRANCH   1  13
BRANCH   1  21
ATOM     21  C   UNL     1       3.490   8.289  17.303  0.00  0.00    +0.000 C 
BRANCH  21  22
ATOM     22  C   UNL     1       2.318   8.564  18.254  0.00  0.00    +0.000 A 
ATOM     23  C   UNL     1       1.275   9.429  17.906  0.00  0.00    +0.000 A 
ATOM     24  C   UNL     1       0.361   9.891  18.845  0.00  0.00    +0.000 A 
ATOM     25  C   UNL     1       0.350   9.364  20.125  0.00  0.00    +0.000 A 
ATOM     26  C   UNL     1       1.300   8.405  20.477  0.00  0.00    +0.000 A 
ATOM     27  C   UNL     1       2.295   8.023  19.551  0.00  0.00    +0.000 A 
BRANCH  25  28
ATOM     28  O   UNL     1      -0.584   9.921  20.951  0.00  0.00    +0.000 OA
BRANCH  28  29
ATOM     29  C   UNL     1      -0.086  11.010  21.728  0.00  0.00    +0.000 C 
BRANCH  29  30
ATOM     30  C   UNL     1      -0.912  12.276  21.405  0.00  0.00    +0.000 C 
BRANCH  30  31
ATOM     31  N   UNL     1      -0.101  13.501  21.219  0.00  0.00    +0.000 NA
BRANCH  31  32
ATOM     32  C   UNL     1      -0.120  14.386  22.393  0.00  0.00    +0.000 C 
ATOM     33  C   UNL     1      -1.186  14.091  23.445  0.00  0.00    +0.000 C 
ENDBRANCH  31  32
BRANCH  31  34
ATOM     34  C   UNL     1       1.257  13.166  20.754  0.00  0.00    +0.000 C 
ATOM     35  C   UNL     1       1.454  13.366  19.250  0.00  0.00    +0.000 C 
ENDBRANCH  31  34
ENDBRANCH  30  31
ENDBRANCH  29  30
ENDBRANCH  28  29
ENDBRANCH  25  28
ENDBRANCH  21  22
ENDBRANCH   1  21
TORSDOF 15
ENDMDL
MODEL 2
REMARK VINA RESULT:      -6.8      1.818      5.339
REMARK  Name = 
REMARK  19 active torsions:
REMARK  status: ('A' for Active; 'I' for Inactive)
REMARK    1  A    between atoms: C_1  and  C_2
REMARK    2  A    between atoms: C_2  and  C_3
REMARK    3  A    between atoms: C_3  and  N_4
REMARK    4  A    between atoms: N_4  and  C_5
REMARK    5  A    between atoms: C_5  and  C_6
REMARK    6  A    between atoms: C_6  and  C_7
REMARK    7  A    between atoms: C_8  and  C_10
REMARK    8  A    between atoms: C_10  and  C_11
REMARK    9  A    between atoms: C_10  and  N_26
REMARK   10  A    between atoms: C_11  and  C_12
REMARK   11  A    between atoms: C_15  and  O_16
REMARK   12  A    between atoms: O_16  and  C_17
REMARK   13  A    between atoms: C_17  and  C_18
REMARK   14  A    between atoms: C_18  and  N_19
REMARK   15  A    between atoms: N_19  and  C_20
REMARK   16  A    between atoms: N_19  and  C_22
REMARK   17  A    between atoms: C_20  and  C_21
REMARK   18  A    between atoms: C_22  and  C_23
REMARK   19  A    between atoms: C_27  and  C_29
REMARK                            x       y       z     vdW  Elec       q    Type
REMARK                         _______ _______ _______ _____ _____    ______ ____
ROOT
ATOM      1  C   UNL     1       4.201   4.904  17.372  0.00  0.00    +0.000 C 
ENDROOT
BRANCH   1   2
ATOM      2  N   UNL     1       4.795   4.737  16.039  0.00  0.00    +0.000 N 
ATOM      3  C   UNL     1       6.124   4.892  15.770  0.00  0.00    +0.000 C 
ATOM      4  O   UNL     1       6.977   5.117  16.614  0.00  0.00    +0.000 OA
ATOM      5  H   UNL     1       4.163   4.493  15.281  0.00  0.00    +0.000 HD
BRANCH   3   6
ATOM      6  C   UNL     1       6.505   4.644  14.356  0.00  0.00    +0.000 A 
ATOM      7  C   UNL     1       7.543   5.346  13.728  0.00  0.00    +0.000 A 
ATOM      8  C   UNL     1       7.829   5.100  12.385  0.00  0.00    +0.000 A 
ATOM      9  C   UNL     1       7.087   4.155  11.677  0.00  0.00    +0.000 A 
ATOM     10  C   UNL     1       6.064   3.447  12.308  0.00  0.00    +0.000 A 
ATOM     11  C   UNL     1       5.773   3.688  13.648  0.00  0.00    +0.000 A 
ENDBRANCH   3   6
ENDBRANCH   1   2
BRANCH   1  13
ATOM     12  N   UNL     1       3.600   2.668  18.493  0.00  0.00    +0.000 N 
ATOM     13  C   UNL     1       4.537   3.713  18.312  0.00  0.00    +0.000 C 
ATOM     14  O   UNL     1       5.570   3.756  18.987  0.00  0.00    +0.000 OA
BRANCH  12  15
ATOM     15  C   UNL     1       4.014   1.560  19.366  0.00  0.00    +0.000 C 
BRANCH  15  17
ATOM     16  C   UNL     1       5.382   1.082  21.511  0.00  0.00    +0.000 C 
ATOM     17  C   UNL     1       4.331   1.943  20.824  0.00  0.00    +0.000 C 
ENDBRANCH  15  17
ENDBRANCH  12  15
BRANCH  12  18
ATOM     18  C   UNL     1       2.298   2.514  17.813  0.00  0.00    +0.000 C 
BRANCH  18  19
ATOM     19  C   UNL     1       1.021   2.594  18.662  0.00  0.00    +0.000 C 
ATOM     20  C   UNL     1       1.016   3.629  19.779  0.00  0.00    +0.000 C 
ENDBRANCH  18  19
ENDBRANCH  12  18
ENDBRANCH   1  13
BRANCH   1  21
ATOM     21  C   UNL     1       4.475   6.316  17.982  0.00  0.00    +0.000 C 
BRANCH  21  22
ATOM     22  C   UNL     1       3.241   7.140  18.368  0.00  0.00    +0.000 A 
ATOM     23  C   UNL     1       2.763   8.176  17.558  0.00  0.00    +0.000 A 
ATOM     24  C   UNL     1       1.825   9.093  18.015  0.00  0.00    +0.000 A 
ATOM     25  C   UNL     1       1.198   8.900  19.235  0.00  0.00    +0.000 A 
ATOM     26  C   UNL     1       1.559   7.806  20.022  0.00  0.00    +0.000 A 
ATOM     27  C   UNL     1       2.593   6.942  19.600  0.00  0.00    +0.000 A 
BRANCH  25  28
ATOM     28  O   UNL     1       0.315   9.885  19.571  0.00  0.00    +0.000 OA
BRANCH  28  29
ATOM     29  C   UNL     1       0.926  11.160  19.769  0.00  0.00    +0.000 C 
BRANCH  29  30
ATOM     30  C   UNL     1       0.744  11.579  21.246  0.00  0.00    +0.000 C 
BRANCH  30  31
ATOM     31  N   UNL     1       1.026  13.009  21.512  0.00  0.00    +0.000 NA
BRANCH  31  32
ATOM     32  C   UNL     1       1.690  13.682  20.386  0.00  0.00    +0.000 C 
ATOM     33  C   UNL     1       3.159  14.045  20.586  0.00  0.00    +0.000 C 
ENDBRANCH  31  32
BRANCH  31  34
ATOM     34  C   UNL     1      -0.184  13.704  21.985  0.00  0.00    +0.000 C 
ATOM     35  C   UNL     1      -1.113  12.816  22.814  0.00  0.00    +0.000 C 
ENDBRANCH  31  34
ENDBRANCH  30  31
ENDBRANCH  29  30
ENDBRANCH  28  29
ENDBRANCH  25  28
ENDBRANCH  21  22
ENDBRANCH   1  21
TORSDOF 15
ENDMDL
MODEL 3
REMARK VINA RESULT:      -6.7      1.713      5.278
REMARK  Name = 
REMARK  19 active torsions:
REMARK  status: ('A' for Active; 'I' for Inactive)
REMARK    1  A    between atoms: C_1  and  C_2
REMARK    2  A    between atoms: C_2  and  C_3
REMARK    3  A    between atoms: C_3  and  N_4
REMARK    4  A    between atoms: N_4  and  C_5
REMARK    5  A    between atoms: C_5  and  C_6
REMARK    6  A    between atoms: C_6  and  C_7
REMARK    7  A    between atoms: C_8  and  C_10
REMARK    8  A    between atoms: C_10  and  C_11
REMARK    9  A    between atoms: C_10  and  N_26
REMARK   10  A    between atoms: C_11  and  C_12
REMARK   11  A    between atoms: C_15  and  O_16
REMARK   12  A    between atoms: O_16  and  C_17
REMARK   13  A    between atoms: C_17  and  C_18
REMARK   14  A    between atoms: C_18  and  N_19
REMARK   15  A    between atoms: N_19  and  C_20
REMARK   16  A    between atoms: N_19  and  C_22
REMARK   17  A    between atoms: C_20  and  C_21
REMARK   18  A    between atoms: C_22  and  C_23
REMARK   19  A    between atoms: C_27  and  C_29
REMARK                            x       y       z     vdW  Elec       q    Type
REMARK                         _______ _______ _______ _____ _____    ______ ____
ROOT
ATOM      1  C   UNL     1       4.229   5.004  17.492  0.00  0.00    +0.000 C 
ENDROOT
BRANCH   1   2
ATOM      2  N   UNL     1       4.763   4.749  16.147  0.00  0.00    +0.000 N 
ATOM      3  C   UNL     1       6.045   5.023  15.769  0.00  0.00    +0.000 C 
ATOM      4  O   UNL     1       6.911   5.444  16.521  0.00  0.00    +0.000 OA
ATOM      5  H   UNL     1       4.124   4.344  15.468  0.00  0.00    +0.000 HD
BRANCH   3   6
ATOM      6  C   UNL     1       6.373   4.653  14.369  0.00  0.00    +0.000 A 
ATOM      7  C   UNL     1       5.634   3.700  13.654  0.00  0.00    +0.000 A 
ATOM      8  C   UNL     1       6.015   3.362  12.357  0.00  0.00    +0.000 A 
ATOM      9  C   UNL     1       7.124   3.975  11.774  0.00  0.00    +0.000 A 
ATOM     10  C   UNL     1       7.850   4.934  12.480  0.00  0.00    +0.000 A 
ATOM     11  C   UNL     1       7.475   5.276  13.778  0.00  0.00    +0.000 A 
ENDBRANCH   3   6
ENDBRANCH   1   2
BRANCH   1  13
ATOM     12  N   UNL     1       3.847   2.750  18.669  0.00  0.00    +0.000 N 
ATOM     13  C   UNL     1       4.651   3.902  18.504  0.00  0.00    +0.000 C 
ATOM     14  O   UNL     1       5.619   4.106  19.242  0.00  0.00    +0.000 OA
BRANCH  12  15
ATOM     15  C   UNL     1       4.339   1.737  19.615  0.00  0.00    +0.000 C 
BRANCH  15  17
ATOM     16  C   UNL     1       2.685   2.586  21.417  0.00  0.00    +0.000 C 
ATOM     17  C   UNL     1       4.067   2.028  21.104  0.00  0.00    +0.000 C 
ENDBRANCH  15  17
ENDBRANCH  12  15
BRANCH  12  18
ATOM     18  C   UNL     1       2.627   2.400  17.913  0.00  0.00    +0.000 C 
BRANCH  18  19
ATOM     19  C   UNL     1       1.316   3.110  18.280  0.00  0.00    +0.000 C 
ATOM     20  C   UNL     1       1.016   4.404  17.535  0.00  0.00    +0.000 C 
ENDBRANCH  18  19
ENDBRANCH  12  18
ENDBRANCH   1  13
BRANCH   1  21
ATOM     21  C   UNL     1       4.486   6.468  17.975  0.00  0.00    +0.000 C 
BRANCH  21  22
ATOM     22  C   UNL     1       3.244   7.288  18.344  0.00  0.00    +0.000 A 
ATOM     23  C   UNL     1       2.731   8.273  17.493  0.00  0.00    +0.000 A 
ATOM     24  C   UNL     1       1.786   9.195  17.924  0.00  0.00    +0.000 A 
ATOM     25  C   UNL     1       1.186   9.053  19.164  0.00  0.00    +0.000 A 
ATOM     26  C   UNL     1       1.584   8.007  19.998  0.00  0.00    +0.000 A 
ATOM     27  C   UNL     1       2.625   7.140  19.597  0.00  0.00    +0.000 A 
BRANCH  25  28
ATOM     28  O   UNL     1       0.292  10.038  19.469  0.00  0.00    +0.000 OA
BRANCH  28  29
ATOM     29  C   UNL     1      -0.141  10.018  20.829  0.00  0.00    +0.000 C 
BRANCH  29  30
ATOM     30  C   UNL     1       0.433  11.256  21.556  0.00  0.00    +0.000 C 
BRANCH  30  31
ATOM     31  N   UNL     1      -0.490  12.414  21.606  0.00  0.00    +0.000 NA
BRANCH  31  32
ATOM     32  C   UNL     1      -0.405  13.268  20.411  0.00  0.00    +0.000 C 
ATOM     33  C   UNL     1      -0.743  14.743  20.609  0.00  0.00    +0.000 C 
ENDBRANCH  31  32
BRANCH  31  34
ATOM     34  C   UNL     1      -1.862  11.979  21.924  0.00  0.00    +0.000 C 
ATOM     35  C   UNL     1      -2.396  12.555  23.236  0.00  0.00    +0.000 C 
ENDBRANCH  31  34
ENDBRANCH  30  31
ENDBRANCH  29  30
ENDBRANCH  28  29
ENDBRANCH  25  28
ENDBRANCH  21  22
ENDBRANCH   1  21
TORSDOF 15
ENDMDL
MODEL 4
REMARK VINA RESULT:      -6.7      2.572      9.164
REMARK  Name = 
REMARK  19 active torsions:
REMARK  status: ('A' for Active; 'I' for Inactive)
REMARK    1  A    between atoms: C_1  and  C_2
REMARK    2  A    between atoms: C_2  and  C_3
REMARK    3  A    between atoms: C_3  and  N_4
REMARK    4  A    between atoms: N_4  and  C_5
REMARK    5  A    between atoms: C_5  and  C_6
REMARK    6  A    between atoms: C_6  and  C_7
REMARK    7  A    between atoms: C_8  and  C_10
REMARK    8  A    between atoms: C_10  and  C_11
REMARK    9  A    between atoms: C_10  and  N_26
REMARK   10  A    between atoms: C_11  and  C_12
REMARK   11  A    between atoms: C_15  and  O_16
REMARK   12  A    between atoms: O_16  and  C_17
REMARK   13  A    between atoms: C_17  and  C_18
REMARK   14  A    between atoms: C_18  and  N_19
REMARK   15  A    between atoms: N_19  and  C_20
REMARK   16  A    between atoms: N_19  and  C_22
REMARK   17  A    between atoms: C_20  and  C_21
REMARK   18  A    between atoms: C_22  and  C_23
REMARK   19  A    between atoms: C_27  and  C_29
REMARK                            x       y       z     vdW  Elec       q    Type
REMARK                         _______ _______ _______ _____ _____    ______ ____
ROOT
ATOM      1  C   UNL     1       0.511  10.649  19.968  0.00  0.00    +0.000 C 
ENDROOT
BRANCH   1   2
ATOM      2  N   UNL     1      -0.749  10.857  19.243  0.00  0.00    +0.000 N 
ATOM      3  C   UNL     1      -0.992  10.390  17.983  0.00  0.00    +0.000 C 
ATOM      4  O   UNL     1      -0.220   9.689  17.347  0.00  0.00    +0.000 OA
ATOM      5  H   UNL     1      -1.474  11.386  19.720  0.00  0.00    +0.000 HD
BRANCH   3   6
ATOM      6  C   UNL     1      -2.347  10.693  17.458  0.00  0.00    +0.000 A 
ATOM      7  C   UNL     1      -2.726  10.382  16.144  0.00  0.00    +0.000 A 
ATOM      8  C   UNL     1      -3.999  10.728  15.693  0.00  0.00    +0.000 A 
ATOM      9  C   UNL     1      -4.890  11.377  16.549  0.00  0.00    +0.000 A 
ATOM     10  C   UNL     1      -4.516  11.672  17.859  0.00  0.00    +0.000 A 
ATOM     11  C   UNL     1      -3.246  11.330  18.317  0.00  0.00    +0.000 A 
ENDBRANCH   3   6
ENDBRANCH   1   2
BRANCH   1  13
ATOM     12  N   UNL     1       1.698  12.912  20.259  0.00  0.00    +0.000 N 
ATOM     13  C   UNL     1       0.901  11.888  20.823  0.00  0.00    +0.000 C 
ATOM     14  O   UNL     1       0.612  11.903  22.023  0.00  0.00    +0.000 OA
BRANCH  12  15
ATOM     15  C   UNL     1       1.987  14.067  21.121  0.00  0.00    +0.000 C 
BRANCH  15  17
ATOM     16  C   UNL     1       1.249  16.400  21.968  0.00  0.00    +0.000 C 
ATOM     17  C   UNL     1       1.013  15.255  20.993  0.00  0.00    +0.000 C 
ENDBRANCH  15  17
ENDBRANCH  12  15
BRANCH  12  18
ATOM     18  C   UNL     1       2.179  13.000  18.865  0.00  0.00    +0.000 C 
BRANCH  18  19
ATOM     19  C   UNL     1       3.378  13.911  18.566  0.00  0.00    +0.000 C 
ATOM     20  C   UNL     1       3.096  15.145  17.718  0.00  0.00    +0.000 C 
ENDBRANCH  18  19
ENDBRANCH  12  18
ENDBRANCH   1  13
BRANCH   1  21
ATOM     21  C   UNL     1       0.547   9.289  20.736  0.00  0.00    +0.000 C 
BRANCH  21  22
ATOM     22  C   UNL     1       1.430   8.191  20.130  0.00  0.00    +0.000 A 
ATOM     23  C   UNL     1       2.114   8.377  18.924  0.00  0.00    +0.000 A 
ATOM     24  C   UNL     1       2.691   7.317  18.236  0.00  0.00    +0.000 A 
ATOM     25  C   UNL     1       2.761   6.063  18.819  0.00  0.00    +0.000 A 
ATOM     26  C   UNL     1       2.197   5.864  20.080  0.00  0.00    +0.000 A 
ATOM     27  C   UNL     1       1.514   6.920  20.723  0.00  0.00    +0.000 A 
BRANCH  25  28
ATOM     28  O   UNL     1       3.334   5.110  18.028  0.00  0.00    +0.000 OA
BRANCH  28  29
ATOM     29  C   UNL     1       4.055   4.116  18.756  0.00  0.00    +0.000 C 
BRANCH  29  30
ATOM     30  C   UNL     1       5.569   4.336  18.539  0.00  0.00    +0.000 C 
BRANCH  30  31
ATOM     31  N   UNL     1       5.912   4.974  17.246  0.00  0.00    +0.000 NA
BRANCH  31  32
ATOM     32  C   UNL     1       7.225   5.636  17.263  0.00  0.00    +0.000 C 
ATOM     33  C   UNL     1       7.213   7.156  17.394  0.00  0.00    +0.000 C 
ENDBRANCH  31  32
BRANCH  31  34
ATOM     34  C   UNL     1       5.744   4.023  16.132  0.00  0.00    +0.000 C 
ATOM     35  C   UNL     1       6.628   4.338  14.923  0.00  0.00    +0.000 C 
ENDBRANCH  31  34
ENDBRANCH  30  31
ENDBRANCH  29  30
ENDBRANCH  28  29
ENDBRANCH  25  28
ENDBRANCH  21  22
ENDBRANCH   1  21
TORSDOF 15
ENDMDL
MODEL 5
REMARK VINA RESULT:      -6.7      4.067      8.123
REMARK  Name = 
REMARK  19 active torsions:
REMARK  status: ('A' for Active; 'I' for Inactive)
REMARK    1  A    between atoms: C_1  and  C_2
REMARK    2  A    between atoms: C_2  and  C_3
REMARK    3  A    between atoms: C_3  and  N_4
REMARK    4  A    between atoms: N_4  and  C_5
REMARK    5  A    between atoms: C_5  and  C_6
REMARK    6  A    between atoms: C_6  and  C_7
REMARK    7  A    between atoms: C_8  and  C_10
REMARK    8  A    between atoms: C_10  and  C_11
REMARK    9  A    between atoms: C_10  and  N_26
REMARK   10  A    between atoms: C_11  and  C_12
REMARK   11  A    between atoms: C_15  and  O_16
REMARK   12  A    between atoms: O_16  and  C_17
REMARK   13  A    between atoms: C_17  and  C_18
REMARK   14  A    between atoms: C_18  and  N_19
REMARK   15  A    between atoms: N_19  and  C_20
REMARK   16  A    between atoms: N_19  and  C_22
REMARK   17  A    between atoms: C_20  and  C_21
REMARK   18  A    between atoms: C_22  and  C_23
REMARK   19  A    between atoms: C_27  and  C_29
REMARK                            x       y       z     vdW  Elec       q    Type
REMARK                         _______ _______ _______ _____ _____    ______ ____
ROOT
ATOM      1  C   UNL     1       5.867   5.751  17.921  0.00  0.00    +0.000 C 
ENDROOT
BRANCH   1   2
ATOM      2  N   UNL     1       5.982   5.443  16.490  0.00  0.00    +0.000 N 
ATOM      3  C   UNL     1       7.005   4.724  15.942  0.00  0.00    +0.000 C 
ATOM      4  O   UNL     1       7.899   4.197  16.586  0.00  0.00    +0.000 OA
ATOM      5  H   UNL     1       5.248   5.797  15.882  0.00  0.00    +0.000 HD
BRANCH   3   6
ATOM      6  C   UNL     1       6.899   4.509  14.477  0.00  0.00    +0.000 A 
ATOM      7  C   UNL     1       5.973   3.619  13.917  0.00  0.00    +0.000 A 
ATOM      8  C   UNL     1       5.948   3.425  12.536  0.00  0.00    +0.000 A 
ATOM      9  C   UNL     1       6.839   4.120  11.719  0.00  0.00    +0.000 A 
ATOM     10  C   UNL     1       7.751   5.017  12.276  0.00  0.00    +0.000 A 
ATOM     11  C   UNL     1       7.782   5.214  13.655  0.00  0.00    +0.000 A 
ENDBRANCH   3   6
ENDBRANCH   1   2
BRANCH   1  13
ATOM     12  N   UNL     1       3.598   4.838  18.713  0.00  0.00    +0.000 N 
ATOM     13  C   UNL     1       5.005   4.700  18.675  0.00  0.00    +0.000 C 
ATOM     14  O   UNL     1       5.572   3.824  19.336  0.00  0.00    +0.000 OA
BRANCH  12  15
ATOM     15  C   UNL     1       2.855   3.778  19.411  0.00  0.00    +0.000 C 
BRANCH  15  17
ATOM     16  C   UNL     1       1.892   3.043  21.699  0.00  0.00    +0.000 C 
ATOM     17  C   UNL     1       2.204   4.188  20.746  0.00  0.00    +0.000 C 
ENDBRANCH  15  17
ENDBRANCH  12  15
BRANCH  12  18
ATOM     18  C   UNL     1       2.785   5.867  18.035  0.00  0.00    +0.000 C 
BRANCH  18  19
ATOM     19  C   UNL     1       3.083   7.343  18.335  0.00  0.00    +0.000 C 
ATOM     20  C   UNL     1       2.015   8.347  17.921  0.00  0.00    +0.000 C 
ENDBRANCH  18  19
ENDBRANCH  12  18
ENDBRANCH   1  13
BRANCH   1  21
ATOM     21  C   UNL     1       7.248   6.060  18.585  0.00  0.00    +0.000 C 
BRANCH  21  22
ATOM     22  C   UNL     1       7.807   7.471  18.362  0.00  0.00    +0.000 A 
ATOM     23  C   UNL     1       8.841   7.988  19.150  0.00  0.00    +0.000 A 
ATOM     24  C   UNL     1       9.169   9.338  19.139  0.00  0.00    +0.000 A 
ATOM     25  C   UNL     1       8.596  10.187  18.207  0.00  0.00    +0.000 A 
ATOM     26  C   UNL     1       7.647   9.682  17.317  0.00  0.00    +0.000 A 
ATOM     27  C   UNL     1       7.238   8.334  17.409  0.00  0.00    +0.000 A 
BRANCH  25  28
ATOM     28  O   UNL     1       8.991  11.488  18.320  0.00  0.00    +0.000 OA
BRANCH  28  29
ATOM     29  C   UNL     1      10.408  11.660  18.336  0.00  0.00    +0.000 C 
BRANCH  29  30
ATOM     30  C   UNL     1      10.782  12.823  17.389  0.00  0.00    +0.000 C 
BRANCH  30  31
ATOM     31  N   UNL     1      11.419  13.977  18.065  0.00  0.00    +0.000 NA
BRANCH  31  32
ATOM     32  C   UNL     1      10.996  15.272  17.511  0.00  0.00    +0.000 C 
ATOM     33  C   UNL     1      12.110  16.258  17.170  0.00  0.00    +0.000 C 
ENDBRANCH  31  32
BRANCH  31  34
ATOM     34  C   UNL     1      11.262  13.881  19.527  0.00  0.00    +0.000 C 
ATOM     35  C   UNL     1      10.253  14.877  20.099  0.00  0.00    +0.000 C 
ENDBRANCH  31  34
ENDBRANCH  30  31
ENDBRANCH  29  30
ENDBRANCH  28  29
ENDBRANCH  25  28
ENDBRANCH  21  22
ENDBRANCH   1  21
TORSDOF 15
ENDMDL
MODEL 6
REMARK VINA RESULT:      -6.6      1.707      4.991
REMARK  Name = 
REMARK  19 active torsions:
REMARK  status: ('A' for Active; 'I' for Inactive)
REMARK    1  A    between atoms: C_1  and  C_2
REMARK    2  A    between atoms: C_2  and  C_3
REMARK    3  A    between atoms: C_3  and  N_4
REMARK    4  A    between atoms: N_4  and  C_5
REMARK    5  A    between atoms: C_5  and  C_6
REMARK    6  A    between atoms: C_6  and  C_7
REMARK    7  A    between atoms: C_8  and  C_10
REMARK    8  A    between atoms: C_10  and  C_11
REMARK    9  A    between atoms: C_10  and  N_26
REMARK   10  A    between atoms: C_11  and  C_12
REMARK   11  A    between atoms: C_15  and  O_16
REMARK   12  A    between atoms: O_16  and  C_17
REMARK   13  A    between atoms: C_17  and  C_18
REMARK   14  A    between atoms: C_18  and  N_19
REMARK   15  A    between atoms: N_19  and  C_20
REMARK   16  A    between atoms: N_19  and  C_22
REMARK   17  A    between atoms: C_20  and  C_21
REMARK   18  A    between atoms: C_22  and  C_23
REMARK   19  A    between atoms: C_27  and  C_29
REMARK                            x       y       z     vdW  Elec       q    Type
REMARK                         _______ _______ _______ _____ _____    ______ ____
ROOT
ATOM      1  C   UNL     1       3.786   5.654  17.380  0.00  0.00    +0.000 C 
ENDROOT
BRANCH   1   2
ATOM      2  N   UNL     1       4.437   5.211  16.140  0.00  0.00    +0.000 N 
ATOM      3  C   UNL     1       5.753   5.422  15.849  0.00  0.00    +0.000 C 
ATOM      4  O   UNL     1       6.554   5.938  16.614  0.00  0.00    +0.000 OA
ATOM      5  H   UNL     1       3.856   4.721  15.465  0.00  0.00    +0.000 HD
BRANCH   3   6
ATOM      6  C   UNL     1       6.202   4.859  14.551  0.00  0.00    +0.000 A 
ATOM      7  C   UNL     1       7.382   5.280  13.922  0.00  0.00    +0.000 A 
ATOM      8  C   UNL     1       7.732   4.746  12.682  0.00  0.00    +0.000 A 
ATOM      9  C   UNL     1       6.911   3.794  12.077  0.00  0.00    +0.000 A 
ATOM     10  C   UNL     1       5.745   3.367  12.710  0.00  0.00    +0.000 A 
ATOM     11  C   UNL     1       5.389   3.896  13.949  0.00  0.00    +0.000 A 
ENDBRANCH   3   6
ENDBRANCH   1   2
BRANCH   1  13
ATOM     12  N   UNL     1       3.453   3.708  19.028  0.00  0.00    +0.000 N 
ATOM     13  C   UNL     1       4.235   4.810  18.606  0.00  0.00    +0.000 C 
ATOM     14  O   UNL     1       5.203   5.187  19.271  0.00  0.00    +0.000 OA
BRANCH  12  15
ATOM     15  C   UNL     1       3.970   2.938  20.169  0.00  0.00    +0.000 C 
BRANCH  15  17
ATOM     16  C   UNL     1       5.328   0.894  20.996  0.00  0.00    +0.000 C 
ATOM     17  C   UNL     1       4.804   1.693  19.810  0.00  0.00    +0.000 C 
ENDBRANCH  15  17
ENDBRANCH  12  15
BRANCH  12  18
ATOM     18  C   UNL     1       2.236   3.180  18.380  0.00  0.00    +0.000 C 
BRANCH  18  19
ATOM     19  C   UNL     1       0.955   3.068  19.220  0.00  0.00    +0.000 C 
ATOM     20  C   UNL     1       0.779   4.102  20.325  0.00  0.00    +0.000 C 
ENDBRANCH  18  19
ENDBRANCH  12  18
ENDBRANCH   1  13
BRANCH   1  21
ATOM     21  C   UNL     1       3.871   7.201  17.587  0.00  0.00    +0.000 C 
BRANCH  21  22
ATOM     22  C   UNL     1       2.701   7.851  18.335  0.00  0.00    +0.000 A 
ATOM     23  C   UNL     1       1.991   8.931  17.799  0.00  0.00    +0.000 A 
ATOM     24  C   UNL     1       1.120   9.691  18.569  0.00  0.00    +0.000 A 
ATOM     25  C   UNL     1       0.789   9.288  19.851  0.00  0.00    +0.000 A 
ATOM     26  C   UNL     1       1.383   8.142  20.381  0.00  0.00    +0.000 A 
ATOM     27  C   UNL     1       2.353   7.438  19.633  0.00  0.00    +0.000 A 
BRANCH  25  28
ATOM     28  O   UNL     1      -0.060  10.135  20.502  0.00  0.00    +0.000 OA
BRANCH  28  29
ATOM     29  C   UNL     1      -0.546   9.621  21.742  0.00  0.00    +0.000 C 
BRANCH  29  30
ATOM     30  C   UNL     1      -0.596  10.770  22.775  0.00  0.00    +0.000 C 
BRANCH  30  31
ATOM     31  N   UNL     1      -1.333  11.971  22.314  0.00  0.00    +0.000 NA
BRANCH  31  32
ATOM     32  C   UNL     1      -2.555  12.227  23.091  0.00  0.00    +0.000 C 
ATOM     33  C   UNL     1      -3.797  12.609  22.290  0.00  0.00    +0.000 C 
ENDBRANCH  31  32
BRANCH  31  34
ATOM     34  C   UNL     1      -0.434  13.136  22.225  0.00  0.00    +0.000 C 
ATOM     35  C   UNL     1      -0.261  13.665  20.800  0.00  0.00    +0.000 C 
ENDBRANCH  31  34
ENDBRANCH  30  31
ENDBRANCH  29  30
ENDBRANCH  28  29
ENDBRANCH  25  28
ENDBRANCH  21  22
ENDBRANCH   1  21
TORSDOF 15
ENDMDL
MODEL 7
REMARK VINA RESULT:      -6.6      2.540      9.979
REMARK  Name = 
REMARK  19 active torsions:
REMARK  status: ('A' for Active; 'I' for Inactive)
REMARK    1  A    between atoms: C_1  and  C_2
REMARK    2  A    between atoms: C_2  and  C_3
REMARK    3  A    between atoms: C_3  and  N_4
REMARK    4  A    between atoms: N_4  and  C_5
REMARK    5  A    between atoms: C_5  and  C_6
REMARK    6  A    between atoms: C_6  and  C_7
REMARK    7  A    between atoms: C_8  and  C_10
REMARK    8  A    between atoms: C_10  and  C_11
REMARK    9  A    between atoms: C_10  and  N_26
REMARK   10  A    between atoms: C_11  and  C_12
REMARK   11  A    between atoms: C_15  and  O_16
REMARK   12  A    between atoms: O_16  and  C_17
REMARK   13  A    between atoms: C_17  and  C_18
REMARK   14  A    between atoms: C_18  and  N_19
REMARK   15  A    between atoms: N_19  and  C_20
REMARK   16  A    between atoms: N_19  and  C_22
REMARK   17  A    between atoms: C_20  and  C_21
REMARK   18  A    between atoms: C_22  and  C_23
REMARK   19  A    between atoms: C_27  and  C_29
REMARK                            x       y       z     vdW  Elec       q    Type
REMARK                         _______ _______ _______ _____ _____    ______ ____
ROOT
ATOM      1  C   UNL     1       0.630  12.182  19.659  0.00  0.00    +0.000 C 
ENDROOT
BRANCH   1   2
ATOM      2  N   UNL     1       1.847  12.944  19.348  0.00  0.00    +0.000 N 
ATOM      3  C   UNL     1       2.552  13.667  20.266  0.00  0.00    +0.000 C 
ATOM      4  O   UNL     1       2.295  13.704  21.459  0.00  0.00    +0.000 OA
ATOM      5  H   UNL     1       2.169  12.924  18.384  0.00  0.00    +0.000 HD
BRANCH   3   6
ATOM      6  C   UNL     1       3.768  14.333  19.733  0.00  0.00    +0.000 A 
ATOM      7  C   UNL     1       4.712  14.945  20.569  0.00  0.00    +0.000 A 
ATOM      8  C   UNL     1       5.813  15.592  20.009  0.00  0.00    +0.000 A 
ATOM      9  C   UNL     1       5.973  15.623  18.624  0.00  0.00    +0.000 A 
ATOM     10  C   UNL     1       5.040  15.001  17.794  0.00  0.00    +0.000 A 
ATOM     11  C   UNL     1       3.938  14.353  18.346  0.00  0.00    +0.000 A 
ENDBRANCH   3   6
ENDBRANCH   1   2
BRANCH   1  13
ATOM     12  N   UNL     1      -1.651  12.691  20.732  0.00  0.00    +0.000 N 
ATOM     13  C   UNL     1      -0.595  13.111  19.889  0.00  0.00    +0.000 C 
ATOM     14  O   UNL     1      -0.688  14.153  19.233  0.00  0.00    +0.000 OA
BRANCH  12  15
ATOM     15  C   UNL     1      -2.752  13.646  20.928  0.00  0.00    +0.000 C 
BRANCH  15  17
ATOM     16  C   UNL     1      -4.889  12.595  19.913  0.00  0.00    +0.000 C 
ATOM     17  C   UNL     1      -4.141  13.023  21.168  0.00  0.00    +0.000 C 
ENDBRANCH  15  17
ENDBRANCH  12  15
BRANCH  12  18
ATOM     18  C   UNL     1      -1.717  11.446  21.524  0.00  0.00    +0.000 C 
BRANCH  18  19
ATOM     19  C   UNL     1      -0.849  11.341  22.786  0.00  0.00    +0.000 C 
ATOM     20  C   UNL     1      -0.387   9.944  23.176  0.00  0.00    +0.000 C 
ENDBRANCH  18  19
ENDBRANCH  12  18
ENDBRANCH   1  13
BRANCH   1  21
ATOM     21  C   UNL     1       0.381  11.008  18.658  0.00  0.00    +0.000 C 
BRANCH  21  22
ATOM     22  C   UNL     1       1.205   9.735  18.888  0.00  0.00    +0.000 A 
ATOM     23  C   UNL     1       1.957   9.148  17.865  0.00  0.00    +0.000 A 
ATOM     24  C   UNL     1       2.482   7.868  17.981  0.00  0.00    +0.000 A 
ATOM     25  C   UNL     1       2.429   7.199  19.192  0.00  0.00    +0.000 A 
ATOM     26  C   UNL     1       1.793   7.803  20.278  0.00  0.00    +0.000 A 
ATOM     27  C   UNL     1       1.164   9.058  20.119  0.00  0.00    +0.000 A 
BRANCH  25  28
ATOM     28  O   UNL     1       2.963   5.943  19.162  0.00  0.00    +0.000 OA
BRANCH  28  29
ATOM     29  C   UNL     1       2.707   5.240  17.947  0.00  0.00    +0.000 C 
BRANCH  29  30
ATOM     30  C   UNL     1       4.002   4.523  17.500  0.00  0.00    +0.000 C 
BRANCH  30  31
ATOM     31  N   UNL     1       5.190   5.406  17.423  0.00  0.00    +0.000 NA
BRANCH  31  32
ATOM     32  C   UNL     1       6.416   4.762  17.918  0.00  0.00    +0.000 C 
ATOM     33  C   UNL     1       7.557   5.695  18.314  0.00  0.00    +0.000 C 
ENDBRANCH  31  32
BRANCH  31  34
ATOM     34  C   UNL     1       5.329   5.983  16.074  0.00  0.00    +0.000 C 
ATOM     35  C   UNL     1       5.649   4.945  14.997  0.00  0.00    +0.000 C 
ENDBRANCH  31  34
ENDBRANCH  30  31
ENDBRANCH  29  30
ENDBRANCH  28  29
ENDBRANCH  25  28
ENDBRANCH  21  22
ENDBRANCH   1  21
TORSDOF 15
ENDMDL
MODEL 8
REMARK VINA RESULT:      -6.6      2.567      5.568
REMARK  Name = 
REMARK  19 active torsions:
REMARK  status: ('A' for Active; 'I' for Inactive)
REMARK    1  A    between atoms: C_1  and  C_2
REMARK    2  A    between atoms: C_2  and  C_3
REMARK    3  A    between atoms: C_3  and  N_4
REMARK    4  A    between atoms: N_4  and  C_5
REMARK    5  A    between atoms: C_5  and  C_6
REMARK    6  A    between atoms: C_6  and  C_7
REMARK    7  A    between atoms: C_8  and  C_10
REMARK    8  A    between atoms: C_10  and  C_11
REMARK    9  A    between atoms: C_10  and  N_26
REMARK   10  A    between atoms: C_11  and  C_12
REMARK   11  A    between atoms: C_15  and  O_16
REMARK   12  A    between atoms: O_16  and  C_17
REMARK   13  A    between atoms: C_17  and  C_18
REMARK   14  A    between atoms: C_18  and  N_19
REMARK   15  A    between atoms: N_19  and  C_20
REMARK   16  A    between atoms: N_19  and  C_22
REMARK   17  A    between atoms: C_20  and  C_21
REMARK   18  A    between atoms: C_22  and  C_23
REMARK   19  A    between atoms: C_27  and  C_29
REMARK                            x       y       z     vdW  Elec       q    Type
REMARK                         _______ _______ _______ _____ _____    ______ ____
ROOT
ATOM      1  C   UNL     1       4.151   6.083  17.384  0.00  0.00    +0.000 C 
ENDROOT
BRANCH   1   2
ATOM      2  N   UNL     1       4.930   5.781  16.177  0.00  0.00    +0.000 N 
ATOM      3  C   UNL     1       5.193   4.518  15.732  0.00  0.00    +0.000 C 
ATOM      4  O   UNL     1       4.752   3.501  16.244  0.00  0.00    +0.000 OA
ATOM      5  H   UNL     1       5.292   6.573  15.652  0.00  0.00    +0.000 HD
BRANCH   3   6
ATOM      6  C   UNL     1       5.974   4.451  14.471  0.00  0.00    +0.000 A 
ATOM      7  C   UNL     1       7.147   5.194  14.278  0.00  0.00    +0.000 A 
ATOM      8  C   UNL     1       7.816   5.125  13.057  0.00  0.00    +0.000 A 
ATOM      9  C   UNL     1       7.320   4.314  12.036  0.00  0.00    +0.000 A 
ATOM     10  C   UNL     1       6.160   3.565  12.234  0.00  0.00    +0.000 A 
ATOM     11  C   UNL     1       5.487   3.630  13.451  0.00  0.00    +0.000 A 
ENDBRANCH   3   6
ENDBRANCH   1   2
BRANCH   1  13
ATOM     12  N   UNL     1       3.529   4.314  19.145  0.00  0.00    +0.000 N 
ATOM     13  C   UNL     1       4.520   5.141  18.565  0.00  0.00    +0.000 C 
ATOM     14  O   UNL     1       5.648   5.218  19.062  0.00  0.00    +0.000 OA
BRANCH  12  15
ATOM     15  C   UNL     1       3.971   3.424  20.229  0.00  0.00    +0.000 C 
BRANCH  15  17
ATOM     16  C   UNL     1       3.702   1.440  18.586  0.00  0.00    +0.000 C 
ATOM     17  C   UNL     1       4.431   2.019  19.792  0.00  0.00    +0.000 C 
ENDBRANCH  15  17
ENDBRANCH  12  15
BRANCH  12  18
ATOM     18  C   UNL     1       2.126   4.166  18.708  0.00  0.00    +0.000 C 
BRANCH  18  19
ATOM     19  C   UNL     1       1.063   3.855  19.771  0.00  0.00    +0.000 C 
ATOM     20  C   UNL     1       0.344   2.519  19.639  0.00  0.00    +0.000 C 
ENDBRANCH  18  19
ENDBRANCH  12  18
ENDBRANCH   1  13
BRANCH   1  21
ATOM     21  C   UNL     1       4.152   7.605  17.738  0.00  0.00    +0.000 C 
BRANCH  21  22
ATOM     22  C   UNL     1       2.808   8.199  18.178  0.00  0.00    +0.000 A 
ATOM     23  C   UNL     1       2.167   9.199  17.439  0.00  0.00    +0.000 A 
ATOM     24  C   UNL     1       1.104   9.927  17.956  0.00  0.00    +0.000 A 
ATOM     25  C   UNL     1       0.526   9.559  19.160  0.00  0.00    +0.000 A 
ATOM     26  C   UNL     1       1.061   8.485  19.872  0.00  0.00    +0.000 A 
ATOM     27  C   UNL     1       2.212   7.821  19.393  0.00  0.00    +0.000 A 
BRANCH  25  28
ATOM     28  O   UNL     1      -0.495  10.370  19.561  0.00  0.00    +0.000 OA
BRANCH  28  29
ATOM     29  C   UNL     1      -1.354  10.781  18.498  0.00  0.00    +0.000 C 
BRANCH  29  30
ATOM     30  C   UNL     1      -2.447   9.707  18.293  0.00  0.00    +0.000 C 
BRANCH  30  31
ATOM     31  N   UNL     1      -3.512  10.096  17.339  0.00  0.00    +0.000 NA
BRANCH  31  32
ATOM     32  C   UNL     1      -4.715  10.619  18.003  0.00  0.00    +0.000 C 
ATOM     33  C   UNL     1      -4.901  12.133  17.972  0.00  0.00    +0.000 C 
ENDBRANCH  31  32
BRANCH  31  34
ATOM     34  C   UNL     1      -2.979  10.990  16.294  0.00  0.00    +0.000 C 
ATOM     35  C   UNL     1      -2.916  10.342  14.910  0.00  0.00    +0.000 C 
ENDBRANCH  31  34
ENDBRANCH  30  31
ENDBRANCH  29  30
ENDBRANCH  28  29
ENDBRANCH  25  28
ENDBRANCH  21  22
ENDBRANCH   1  21
TORSDOF 15
ENDMDL
MODEL 9
REMARK VINA RESULT:      -6.6      4.288      7.917
REMARK  Name = 
REMARK  19 active torsions:
REMARK  status: ('A' for Active; 'I' for Inactive)
REMARK    1  A    between atoms: C_1  and  C_2
REMARK    2  A    between atoms: C_2  and  C_3
REMARK    3  A    between atoms: C_3  and  N_4
REMARK    4  A    between atoms: N_4  and  C_5
REMARK    5  A    between atoms: C_5  and  C_6
REMARK    6  A    between atoms: C_6  and  C_7
REMARK    7  A    between atoms: C_8  and  C_10
REMARK    8  A    between atoms: C_10  and  C_11
REMARK    9  A    between atoms: C_10  and  N_26
REMARK   10  A    between atoms: C_11  and  C_12
REMARK   11  A    between atoms: C_15  and  O_16
REMARK   12  A    between atoms: O_16  and  C_17
REMARK   13  A    between atoms: C_17  and  C_18
REMARK   14  A    between atoms: C_18  and  N_19
REMARK   15  A    between atoms: N_19  and  C_20
REMARK   16  A    between atoms: N_19  and  C_22
REMARK   17  A    between atoms: C_20  and  C_21
REMARK   18  A    between atoms: C_22  and  C_23
REMARK   19  A    between atoms: C_27  and  C_29
REMARK                            x       y       z     vdW  Elec       q    Type
REMARK                         _______ _______ _______ _____ _____    ______ ____
ROOT
ATOM      1  C   UNL     1       5.355   4.406  17.051  0.00  0.00    +0.000 C 
ENDROOT
BRANCH   1   2
ATOM      2  N   UNL     1       5.559   3.868  15.700  0.00  0.00    +0.000 N 
ATOM      3  C   UNL     1       5.586   4.631  14.569  0.00  0.00    +0.000 C 
ATOM      4  O   UNL     1       5.515   5.850  14.558  0.00  0.00    +0.000 OA
ATOM      5  H   UNL     1       5.684   2.862  15.618  0.00  0.00    +0.000 HD
BRANCH   3   6
ATOM      6  C   UNL     1       5.837   3.877  13.315  0.00  0.00    +0.000 A 
ATOM      7  C   UNL     1       7.123   3.732  12.775  0.00  0.00    +0.000 A 
ATOM      8  C   UNL     1       7.294   3.049  11.571  0.00  0.00    +0.000 A 
ATOM      9  C   UNL     1       6.188   2.509  10.913  0.00  0.00    +0.000 A 
ATOM     10  C   UNL     1       4.912   2.642  11.459  0.00  0.00    +0.000 A 
ATOM     11  C   UNL     1       4.734   3.324  12.661  0.00  0.00    +0.000 A 
ENDBRANCH   3   6
ENDBRANCH   1   2
BRANCH   1  13
ATOM     12  N   UNL     1       3.493   4.362  18.825  0.00  0.00    +0.000 N 
ATOM     13  C   UNL     1       4.189   3.692  17.791  0.00  0.00    +0.000 C 
ATOM     14  O   UNL     1       3.967   2.501  17.550  0.00  0.00    +0.000 OA
BRANCH  12  15
ATOM     15  C   UNL     1       2.378   3.631  19.445  0.00  0.00    +0.000 C 
BRANCH  15  17
ATOM     16  C   UNL     1       2.044   3.231  21.981  0.00  0.00    +0.000 C 
ATOM     17  C   UNL     1       2.736   2.803  20.694  0.00  0.00    +0.000 C 
ENDBRANCH  15  17
ENDBRANCH  12  15
BRANCH  12  18
ATOM     18  C   UNL     1       3.691   5.755  19.273  0.00  0.00    +0.000 C 
BRANCH  18  19
ATOM     19  C   UNL     1       2.755   6.838  18.717  0.00  0.00    +0.000 C 
ATOM     20  C   UNL     1       3.320   7.717  17.610  0.00  0.00    +0.000 C 
ENDBRANCH  18  19
ENDBRANCH  12  18
ENDBRANCH   1  13
BRANCH   1  21
ATOM     21  C   UNL     1       6.683   4.506  17.868  0.00  0.00    +0.000 C 
BRANCH  21  22
ATOM     22  C   UNL     1       7.300   5.905  17.991  0.00  0.00    +0.000 A 
ATOM     23  C   UNL     1       8.181   6.234  19.027  0.00  0.00    +0.000 A 
ATOM     24  C   UNL     1       8.530   7.549  19.304  0.00  0.00    +0.000 A 
ATOM     25  C   UNL     1       8.155   8.567  18.443  0.00  0.00    +0.000 A 
ATOM     26  C   UNL     1       7.375   8.262  17.326  0.00  0.00    +0.000 A 
ATOM     27  C   UNL     1       6.931   6.939  17.113  0.00  0.00    +0.000 A 
BRANCH  25  28
ATOM     28  O   UNL     1       8.545   9.811  18.844  0.00  0.00    +0.000 OA
BRANCH  28  29
ATOM     29  C   UNL     1       9.580  10.375  18.039  0.00  0.00    +0.000 C 
BRANCH  29  30
ATOM     30  C   UNL     1      10.594  11.094  18.958  0.00  0.00    +0.000 C 
BRANCH  30  31
ATOM     31  N   UNL     1      10.620  12.567  18.800  0.00  0.00    +0.000 NA
BRANCH  31  32
ATOM     32  C   UNL     1      10.220  13.007  17.455  0.00  0.00    +0.000 C 
ATOM     33  C   UNL     1      11.332  13.550  16.562  0.00  0.00    +0.000 C 
ENDBRANCH  31  32
BRANCH  31  34
ATOM     34  C   UNL     1       9.869  13.225  19.884  0.00  0.00    +0.000 C 
ATOM     35  C   UNL     1       9.964  12.493  21.224  0.00  0.00    +0.000 C 
ENDBRANCH  31  34
ENDBRANCH  30  31
ENDBRANCH  29  30
ENDBRANCH  28  29
ENDBRANCH  25  28
ENDBRANCH  21  22
ENDBRANCH   1  21
TORSDOF 15
ENDMDL
