MODEL 1
REMARK VINA RESULT:      -8.0      0.000      0.000
REMARK  Name = 
REMARK  9 active torsions:
REMARK  status: ('A' for Active; 'I' for Inactive)
REMARK    1  A    between atoms: N_1  and  C_2
REMARK    2  A    between atoms: C_4  and  C_5
REMARK    3  A    between atoms: C_6  and  C_7
REMARK    4  A    between atoms: N_9  and  C_10
REMARK    5  A    between atoms: C_10  and  C_11
REMARK    6  A    between atoms: C_11  and  C_12
REMARK    7  A    between atoms: C_12  and  N_13
REMARK    8  A    between atoms: C_21  and  S_22
REMARK    9  A    between atoms: S_22  and  C_23
REMARK                            x       y       z     vdW  Elec       q    Type
REMARK                         _______ _______ _______ _____ _____    ______ ____
ROOT
ATOM      1  C   UNL     1       6.011   6.586  16.712  0.00  0.00    +0.000 A 
ATOM      2  C   UNL     1       6.942   7.563  17.103  0.00  0.00    +0.000 A 
ATOM      3  C   UNL     1       7.796   7.372  18.200  0.00  0.00    +0.000 A 
ATOM      4  C   UNL     1       7.763   6.142  18.862  0.00  0.00    +0.000 A 
ATOM      5  C   UNL     1       6.897   5.125  18.433  0.00  0.00    +0.000 A 
ATOM      6  C   UNL     1       6.040   5.324  17.341  0.00  0.00    +0.000 A 
ENDROOT
BRANCH   1   7
ATOM      7  N   UNL     1       5.212   6.832  15.573  0.00  0.00    +0.000 N 
ATOM      8  H   UNL     1       4.608   7.642  15.671  0.00  0.00    +0.000 HD
ATOM      9  H   UNL     1       4.693   5.999  15.301  0.00  0.00    +0.000 HD
ENDBRANCH   1   7
BRANCH   3  10
ATOM     10  C   UNL     1       8.725   8.459  18.563  0.00  0.00    +0.000 C 
ATOM     11  C   UNL     1       8.549   9.764  18.295  0.00  0.00    +0.000 C 
BRANCH  11  12
ATOM     12  C   UNL     1       9.599  10.739  18.696  0.00  0.00    +0.000 C 
ATOM     13  O   UNL     1      10.380  11.241  17.896  0.00  0.00    +0.000 OA
ATOM     14  N   UNL     1       9.602  11.016  20.041  0.00  0.00    +0.000 N 
ATOM     15  H   UNL     1       8.902  10.606  20.646  0.00  0.00    +0.000 HD
BRANCH  14  16
ATOM     16  C   UNL     1      10.546  11.947  20.634  0.00  0.00    +0.000 C 
BRANCH  16  17
ATOM     17  C   UNL     1      10.109  13.400  20.453  0.00  0.00    +0.000 C 
BRANCH  17  18
ATOM     18  C   UNL     1       8.633  13.573  20.815  0.00  0.00    +0.000 C 
BRANCH  18  19
ATOM     19  N   UNL     1       7.876  14.281  19.796  0.00  0.00    +0.000 N 
ATOM     20  C   UNL     1       8.089  14.075  18.386  0.00  0.00    +0.000 C 
ATOM     21  C   UNL     1       7.254  15.170  17.752  0.00  0.00    +0.000 C 
ATOM     22  C   UNL     1       6.082  15.331  18.713  0.00  0.00    +0.000 C 
ATOM     23  C   UNL     1       6.679  14.942  20.044  0.00  0.00    +0.000 C 
ATOM     24  O   UNL     1       6.163  15.126  21.135  0.00  0.00    +0.000 OA
ENDBRANCH  18  19
ENDBRANCH  17  18
ENDBRANCH  16  17
ENDBRANCH  14  16
ENDBRANCH  11  12
ENDBRANCH   3  10
BRANCH   6  25
ATOM     25  S   UNL     1       4.913   4.008  16.885  0.00  0.00    +0.000 S 
BRANCH  25  26
ATOM     26  C   UNL     1       3.952   3.761  18.381  0.00  0.00    +0.000 A 
ATOM     27  C   UNL     1       4.174   2.599  19.134  0.00  0.00    +0.000 A 
ATOM     28  C   UNL     1       3.357   2.281  20.226  0.00  0.00    +0.000 A 
ATOM     29  C   UNL     1       2.306   3.121  20.574  0.00  0.00    +0.000 A 
ATOM     30 CL   UNL     1       1.272   2.703  21.884  0.00  0.00    +0.000 Cl
ATOM     31  C   UNL     1       2.075   4.289  19.855  0.00  0.00    +0.000 A 
ATOM     32  C   UNL     1       2.893   4.609  18.760  0.00  0.00    +0.000 A 
ATOM     33 CL   UNL     1       2.524   6.070  17.908  0.00  0.00    +0.000 Cl
ENDBRANCH  25  26
ENDBRANCH   6  25
TORSDOF 9
ENDMDL
MODEL 2
REMARK VINA RESULT:      -8.0      1.694      2.355
REMARK  Name = 
REMARK  9 active torsions:
REMARK  status: ('A' for Active; 'I' for Inactive)
REMARK    1  A    between atoms: N_1  and  C_2
REMARK    2  A    between atoms: C_4  and  C_5
REMARK    3  A    between atoms: C_6  and  C_7
REMARK    4  A    between atoms: N_9  and  C_10
REMARK    5  A    between atoms: C_10  and  C_11
REMARK    6  A    between atoms: C_11  and  C_12
REMARK    7  A    between atoms: C_12  and  N_13
REMARK    8  A    between atoms: C_21  and  S_22
REMARK    9  A    between atoms: S_22  and  C_23
REMARK                            x       y       z     vdW  Elec       q    Type
REMARK                         _______ _______ _______ _____ _____    ______ ____
ROOT
ATOM      1  C   UNL     1       6.115   6.430  16.476  0.00  0.00    +0.000 A 
ATOM      2  C   UNL     1       6.941   7.438  17.001  0.00  0.00    +0.000 A 
ATOM      3  C   UNL     1       7.751   7.219  18.125  0.00  0.00    +0.000 A 
ATOM      4  C   UNL     1       7.786   5.936  18.679  0.00  0.00    +0.000 A 
ATOM      5  C   UNL     1       7.031   4.897  18.116  0.00  0.00    +0.000 A 
ATOM      6  C   UNL     1       6.218   5.124  16.997  0.00  0.00    +0.000 A 
ENDROOT
BRANCH   1   7
ATOM      7  N   UNL     1       5.358   6.713  15.316  0.00  0.00    +0.000 N 
ATOM      8  H   UNL     1       5.394   7.689  15.040  0.00  0.00    +0.000 HD
ATOM      9  H   UNL     1       4.401   6.378  15.412  0.00  0.00    +0.000 HD
ENDBRANCH   1   7
BRANCH   3  10
ATOM     10  C   UNL     1       8.567   8.339  18.631  0.00  0.00    +0.000 C 
ATOM     11  C   UNL     1       8.535   9.602  18.174  0.00  0.00    +0.000 C 
BRANCH  11  12
ATOM     12  C   UNL     1       9.449  10.616  18.767  0.00  0.00    +0.000 C 
ATOM     13  O   UNL     1       9.564  10.779  19.976  0.00  0.00    +0.000 OA
ATOM     14  N   UNL     1      10.142  11.342  17.830  0.00  0.00    +0.000 N 
ATOM     15  H   UNL     1      10.040  11.130  16.846  0.00  0.00    +0.000 HD
BRANCH  14  16
ATOM     16  C   UNL     1      11.089  12.377  18.205  0.00  0.00    +0.000 C 
BRANCH  16  17
ATOM     17  C   UNL     1      10.771  13.714  17.538  0.00  0.00    +0.000 C 
BRANCH  17  18
ATOM     18  C   UNL     1      10.585  14.814  18.585  0.00  0.00    +0.000 C 
BRANCH  18  19
ATOM     19  N   UNL     1       9.860  14.364  19.762  0.00  0.00    +0.000 N 
ATOM     20  C   UNL     1      10.426  14.404  21.086  0.00  0.00    +0.000 C 
ATOM     21  C   UNL     1       9.409  13.642  21.913  0.00  0.00    +0.000 C 
ATOM     22  C   UNL     1       8.082  13.960  21.235  0.00  0.00    +0.000 C 
ATOM     23  C   UNL     1       8.481  14.185  19.797  0.00  0.00    +0.000 C 
ATOM     24  O   UNL     1       7.716  14.255  18.850  0.00  0.00    +0.000 OA
ENDBRANCH  18  19
ENDBRANCH  17  18
ENDBRANCH  16  17
ENDBRANCH  14  16
ENDBRANCH  11  12
ENDBRANCH   3  10
BRANCH   6  25
ATOM     25  S   UNL     1       5.228   3.769  16.367  0.00  0.00    +0.000 S 
BRANCH  25  26
ATOM     26  C   UNL     1       3.797   3.774  17.451  0.00  0.00    +0.000 A 
ATOM     27  C   UNL     1       3.149   4.994  17.697  0.00  0.00    +0.000 A 
ATOM     28  C   UNL     1       2.121   5.085  18.644  0.00  0.00    +0.000 A 
ATOM     29  C   UNL     1       1.733   3.957  19.358  0.00  0.00    +0.000 A 
ATOM     30 CL   UNL     1       0.506   4.081  20.557  0.00  0.00    +0.000 Cl
ATOM     31  C   UNL     1       2.347   2.732  19.120  0.00  0.00    +0.000 A 
ATOM     32  C   UNL     1       3.378   2.639  18.171  0.00  0.00    +0.000 A 
ATOM     33 CL   UNL     1       4.101   1.081  17.952  0.00  0.00    +0.000 Cl
ENDBRANCH  25  26
ENDBRANCH   6  25
TORSDOF 9
ENDMDL
MODEL 3
REMARK VINA RESULT:      -7.9      1.883      2.122
REMARK  Name = 
REMARK  9 active torsions:
REMARK  status: ('A' for Active; 'I' for Inactive)
REMARK    1  A    between atoms: N_1  and  C_2
REMARK    2  A    between atoms: C_4  and  C_5
REMARK    3  A    between atoms: C_6  and  C_7
REMARK    4  A    between atoms: N_9  and  C_10
REMARK    5  A    between atoms: C_10  and  C_11
REMARK    6  A    between atoms: C_11  and  C_12
REMARK    7  A    between atoms: C_12  and  N_13
REMARK    8  A    between atoms: C_21  and  S_22
REMARK    9  A    between atoms: S_22  and  C_23
REMARK                            x       y       z     vdW  Elec       q    Type
REMARK                         _______ _______ _______ _____ _____    ______ ____
ROOT
ATOM      1  C   UNL     1       5.985   6.657  16.737  0.00  0.00    +0.000 A 
ATOM      2  C   UNL     1       6.924   7.616  17.152  0.00  0.00    +0.000 A 
ATOM      3  C   UNL     1       7.770   7.396  18.249  0.00  0.00    +0.000 A 
ATOM      4  C   UNL     1       7.722   6.153  18.886  0.00  0.00    +0.000 A 
ATOM      5  C   UNL     1       6.849   5.153  18.432  0.00  0.00    +0.000 A 
ATOM      6  C   UNL     1       6.000   5.382  17.340  0.00  0.00    +0.000 A 
ENDROOT
BRANCH   1   7
ATOM      7  N   UNL     1       5.195   6.933  15.598  0.00  0.00    +0.000 N 
ATOM      8  H   UNL     1       4.381   6.332  15.517  0.00  0.00    +0.000 HD
ATOM      9  H   UNL     1       5.759   6.928  14.750  0.00  0.00    +0.000 HD
ENDBRANCH   1   7
BRANCH   3  10
ATOM     10  C   UNL     1       8.707   8.467  18.638  0.00  0.00    +0.000 C 
ATOM     11  C   UNL     1       8.620   9.757  18.273  0.00  0.00    +0.000 C 
BRANCH  11  12
ATOM     12  C   UNL     1       9.668  10.714  18.720  0.00  0.00    +0.000 C 
ATOM     13  O   UNL     1       9.740  11.129  19.871  0.00  0.00    +0.000 OA
ATOM     14  N   UNL     1      10.536  11.081  17.721  0.00  0.00    +0.000 N 
ATOM     15  H   UNL     1      10.454  10.669  16.800  0.00  0.00    +0.000 HD
BRANCH  14  16
ATOM     16  C   UNL     1      11.633  12.003  17.954  0.00  0.00    +0.000 C 
BRANCH  16  17
ATOM     17  C   UNL     1      11.486  13.287  17.141  0.00  0.00    +0.000 C 
BRANCH  17  18
ATOM     18  C   UNL     1      10.116  13.926  17.375  0.00  0.00    +0.000 C 
BRANCH  18  19
ATOM     19  N   UNL     1      10.199  15.257  17.955  0.00  0.00    +0.000 N 
ATOM     20  C   UNL     1      11.454  15.923  18.193  0.00  0.00    +0.000 C 
ATOM     21  C   UNL     1      11.044  17.144  18.993  0.00  0.00    +0.000 C 
ATOM     22  C   UNL     1       9.663  17.484  18.448  0.00  0.00    +0.000 C 
ATOM     23  C   UNL     1       9.128  16.141  18.015  0.00  0.00    +0.000 C 
ATOM     24  O   UNL     1       7.970  15.900  17.716  0.00  0.00    +0.000 OA
ENDBRANCH  18  19
ENDBRANCH  17  18
ENDBRANCH  16  17
ENDBRANCH  14  16
ENDBRANCH  11  12
ENDBRANCH   3  10
BRANCH   6  25
ATOM     25  S   UNL     1       4.863   4.086  16.851  0.00  0.00    +0.000 S 
BRANCH  25  26
ATOM     26  C   UNL     1       3.905   3.804  18.343  0.00  0.00    +0.000 A 
ATOM     27  C   UNL     1       4.080   2.594  19.032  0.00  0.00    +0.000 A 
ATOM     28  C   UNL     1       3.260   2.256  20.115  0.00  0.00    +0.000 A 
ATOM     29  C   UNL     1       2.252   3.124  20.519  0.00  0.00    +0.000 A 
ATOM     30 CL   UNL     1       1.212   2.684  21.817  0.00  0.00    +0.000 Cl
ATOM     31  C   UNL     1       2.069   4.338  19.866  0.00  0.00    +0.000 A 
ATOM     32  C   UNL     1       2.890   4.678  18.779  0.00  0.00    +0.000 A 
ATOM     33 CL   UNL     1       2.581   6.198  18.011  0.00  0.00    +0.000 Cl
ENDBRANCH  25  26
ENDBRANCH   6  25
TORSDOF 9
ENDMDL
MODEL 4
REMARK VINA RESULT:      -7.9      5.147     10.474
REMARK  Name = 
REMARK  9 active torsions:
REMARK  status: ('A' for Active; 'I' for Inactive)
REMARK    1  A    between atoms: N_1  and  C_2
REMARK    2  A    between atoms: C_4  and  C_5
REMARK    3  A    between atoms: C_6  and  C_7
REMARK    4  A    between atoms: N_9  and  C_10
REMARK    5  A    between atoms: C_10  and  C_11
REMARK    6  A    between atoms: C_11  and  C_12
REMARK    7  A    between atoms: C_12  and  N_13
REMARK    8  A    between atoms: C_21  and  S_22
REMARK    9  A    between atoms: S_22  and  C_23
REMARK                            x       y       z     vdW  Elec       q    Type
REMARK                         _______ _______ _______ _____ _____    ______ ____
ROOT
ATOM      1  C   UNL     1       9.914  12.791  18.156  0.00  0.00    +0.000 A 
ATOM      2  C   UNL     1       9.349  11.516  17.982  0.00  0.00    +0.000 A 
ATOM      3  C   UNL     1       9.328  10.569  19.018  0.00  0.00    +0.000 A 
ATOM      4  C   UNL     1       9.815  10.947  20.272  0.00  0.00    +0.000 A 
ATOM      5  C   UNL     1      10.306  12.243  20.485  0.00  0.00    +0.000 A 
ATOM      6  C   UNL     1      10.331  13.182  19.445  0.00  0.00    +0.000 A 
ENDROOT
BRANCH   1   7
ATOM      7  N   UNL     1       9.861  13.706  17.080  0.00  0.00    +0.000 N 
ATOM      8  H   UNL     1      10.640  14.356  17.066  0.00  0.00    +0.000 HD
ATOM      9  H   UNL     1       8.963  14.185  17.049  0.00  0.00    +0.000 HD
ENDBRANCH   1   7
BRANCH   3  10
ATOM     10  C   UNL     1       8.743   9.243  18.744  0.00  0.00    +0.000 C 
ATOM     11  C   UNL     1       8.065   8.898  17.637  0.00  0.00    +0.000 C 
BRANCH  11  12
ATOM     12  C   UNL     1       7.503   7.525  17.524  0.00  0.00    +0.000 C 
ATOM     13  O   UNL     1       6.755   7.187  16.614  0.00  0.00    +0.000 OA
ATOM     14  N   UNL     1       7.904   6.685  18.534  0.00  0.00    +0.000 N 
ATOM     15  H   UNL     1       8.560   7.009  19.232  0.00  0.00    +0.000 HD
BRANCH  14  16
ATOM     16  C   UNL     1       7.470   5.301  18.602  0.00  0.00    +0.000 C 
BRANCH  16  17
ATOM     17  C   UNL     1       6.108   5.160  19.278  0.00  0.00    +0.000 C 
BRANCH  17  18
ATOM     18  C   UNL     1       5.324   3.989  18.683  0.00  0.00    +0.000 C 
BRANCH  18  19
ATOM     19  N   UNL     1       3.933   4.314  18.411  0.00  0.00    +0.000 N 
ATOM     20  C   UNL     1       3.525   5.583  17.864  0.00  0.00    +0.000 C 
ATOM     21  C   UNL     1       2.014   5.530  17.976  0.00  0.00    +0.000 C 
ATOM     22  C   UNL     1       1.690   4.053  17.785  0.00  0.00    +0.000 C 
ATOM     23  C   UNL     1       2.923   3.364  18.318  0.00  0.00    +0.000 C 
ATOM     24  O   UNL     1       3.021   2.172  18.561  0.00  0.00    +0.000 OA
ENDBRANCH  18  19
ENDBRANCH  17  18
ENDBRANCH  16  17
ENDBRANCH  14  16
ENDBRANCH  11  12
ENDBRANCH   3  10
BRANCH   6  25
ATOM     25  S   UNL     1      11.032  14.800  19.766  0.00  0.00    +0.000 S 
BRANCH  25  26
ATOM     26  C   UNL     1       9.582  15.847  19.917  0.00  0.00    +0.000 A 
ATOM     27  C   UNL     1       8.686  15.602  20.969  0.00  0.00    +0.000 A 
ATOM     28  C   UNL     1       7.469  16.288  21.052  0.00  0.00    +0.000 A 
ATOM     29  C   UNL     1       7.132  17.225  20.082  0.00  0.00    +0.000 A 
ATOM     30 CL   UNL     1       5.613  18.030  20.158  0.00  0.00    +0.000 Cl
ATOM     31  C   UNL     1       8.009  17.500  19.039  0.00  0.00    +0.000 A 
ATOM     32  C   UNL     1       9.230  16.812  18.953  0.00  0.00    +0.000 A 
ATOM     33 CL   UNL     1      10.254  17.201  17.612  0.00  0.00    +0.000 Cl
ENDBRANCH  25  26
ENDBRANCH   6  25
TORSDOF 9
ENDMDL
MODEL 5
REMARK VINA RESULT:      -7.8      5.051     10.570
REMARK  Name = 
REMARK  9 active torsions:
REMARK  status: ('A' for Active; 'I' for Inactive)
REMARK    1  A    between atoms: N_1  and  C_2
REMARK    2  A    between atoms: C_4  and  C_5
REMARK    3  A    between atoms: C_6  and  C_7
REMARK    4  A    between atoms: N_9  and  C_10
REMARK    5  A    between atoms: C_10  and  C_11
REMARK    6  A    between atoms: C_11  and  C_12
REMARK    7  A    between atoms: C_12  and  N_13
REMARK    8  A    between atoms: C_21  and  S_22
REMARK    9  A    between atoms: S_22  and  C_23
REMARK                            x       y       z     vdW  Elec       q    Type
REMARK                         _______ _______ _______ _____ _____    ______ ____
ROOT
ATOM      1  C   UNL     1      10.179  12.682  18.161  0.00  0.00    +0.000 A 
ATOM      2  C   UNL     1       9.643  11.391  18.014  0.00  0.00    +0.000 A 
ATOM      3  C   UNL     1       9.425  10.552  19.117  0.00  0.00    +0.000 A 
ATOM      4  C   UNL     1       9.678  11.055  20.396  0.00  0.00    +0.000 A 
ATOM      5  C   UNL     1      10.135  12.371  20.566  0.00  0.00    +0.000 A 
ATOM      6  C   UNL     1      10.358  13.202  19.459  0.00  0.00    +0.000 A 
ENDROOT
BRANCH   1   7
ATOM      7  N   UNL     1      10.331  13.485  17.009  0.00  0.00    +0.000 N 
ATOM      8  H   UNL     1       9.744  14.313  17.014  0.00  0.00    +0.000 HD
ATOM      9  H   UNL     1      10.211  12.937  16.159  0.00  0.00    +0.000 HD
ENDBRANCH   1   7
BRANCH   3  10
ATOM     10  C   UNL     1       8.886   9.200  18.873  0.00  0.00    +0.000 C 
ATOM     11  C   UNL     1       8.103   8.841  17.843  0.00  0.00    +0.000 C 
BRANCH  11  12
ATOM     12  C   UNL     1       7.609   7.440  17.755  0.00  0.00    +0.000 C 
ATOM     13  O   UNL     1       7.898   6.581  18.579  0.00  0.00    +0.000 OA
ATOM     14  N   UNL     1       6.805   7.212  16.665  0.00  0.00    +0.000 N 
ATOM     15  H   UNL     1       6.564   7.972  16.043  0.00  0.00    +0.000 HD
BRANCH  14  16
ATOM     16  C   UNL     1       6.218   5.910  16.401  0.00  0.00    +0.000 C 
BRANCH  16  17
ATOM     17  C   UNL     1       4.731   5.870  16.749  0.00  0.00    +0.000 C 
BRANCH  17  18
ATOM     18  C   UNL     1       4.516   5.320  18.160  0.00  0.00    +0.000 C 
BRANCH  18  19
ATOM     19  N   UNL     1       3.497   4.286  18.220  0.00  0.00    +0.000 N 
ATOM     20  C   UNL     1       3.727   2.942  17.754  0.00  0.00    +0.000 C 
ATOM     21  C   UNL     1       2.344   2.322  17.810  0.00  0.00    +0.000 C 
ATOM     22  C   UNL     1       1.687   3.017  18.996  0.00  0.00    +0.000 C 
ATOM     23  C   UNL     1       2.360   4.367  19.015  0.00  0.00    +0.000 C 
ATOM     24  O   UNL     1       1.995   5.334  19.664  0.00  0.00    +0.000 OA
ENDBRANCH  18  19
ENDBRANCH  17  18
ENDBRANCH  16  17
ENDBRANCH  14  16
ENDBRANCH  11  12
ENDBRANCH   3  10
BRANCH   6  25
ATOM     25  S   UNL     1      11.004  14.850  19.742  0.00  0.00    +0.000 S 
BRANCH  25  26
ATOM     26  C   UNL     1       9.520  15.851  19.867  0.00  0.00    +0.000 A 
ATOM     27  C   UNL     1       8.696  15.688  20.991  0.00  0.00    +0.000 A 
ATOM     28  C   UNL     1       7.456  16.332  21.074  0.00  0.00    +0.000 A 
ATOM     29  C   UNL     1       7.024  17.145  20.033  0.00  0.00    +0.000 A 
ATOM     30 CL   UNL     1       5.478  17.895  20.114  0.00  0.00    +0.000 Cl
ATOM     31  C   UNL     1       7.829  17.338  18.916  0.00  0.00    +0.000 A 
ATOM     32  C   UNL     1       9.073  16.693  18.830  0.00  0.00    +0.000 A 
ATOM     33 CL   UNL     1      10.003  16.972  17.396  0.00  0.00    +0.000 Cl
ENDBRANCH  25  26
ENDBRANCH   6  25
TORSDOF 9
ENDMDL
MODEL 6
REMARK VINA RESULT:      -7.7      7.061     10.540
REMARK  Name = 
REMARK  9 active torsions:
REMARK  status: ('A' for Active; 'I' for Inactive)
REMARK    1  A    between atoms: N_1  and  C_2
REMARK    2  A    between atoms: C_4  and  C_5
REMARK    3  A    between atoms: C_6  and  C_7
REMARK    4  A    between atoms: N_9  and  C_10
REMARK    5  A    between atoms: C_10  and  C_11
REMARK    6  A    between atoms: C_11  and  C_12
REMARK    7  A    between atoms: C_12  and  N_13
REMARK    8  A    between atoms: C_21  and  S_22
REMARK    9  A    between atoms: S_22  and  C_23
REMARK                            x       y       z     vdW  Elec       q    Type
REMARK                         _______ _______ _______ _____ _____    ______ ____
ROOT
ATOM      1  C   UNL     1       0.832  11.042  19.096  0.00  0.00    +0.000 A 
ATOM      2  C   UNL     1       1.512   9.818  18.973  0.00  0.00    +0.000 A 
ATOM      3  C   UNL     1       1.382   8.801  19.931  0.00  0.00    +0.000 A 
ATOM      4  C   UNL     1       0.487   8.993  20.987  0.00  0.00    +0.000 A 
ATOM      5  C   UNL     1      -0.262  10.176  21.080  0.00  0.00    +0.000 A 
ATOM      6  C   UNL     1      -0.121  11.192  20.124  0.00  0.00    +0.000 A 
ENDROOT
BRANCH   1   7
ATOM      7  N   UNL     1       0.981  12.003  18.071  0.00  0.00    +0.000 N 
ATOM      8  H   UNL     1       0.724  11.656  17.153  0.00  0.00    +0.000 HD
ATOM      9  H   UNL     1       1.915  12.408  18.079  0.00  0.00    +0.000 HD
ENDBRANCH   1   7
BRANCH   3  10
ATOM     10  C   UNL     1       2.153   7.558  19.742  0.00  0.00    +0.000 C 
ATOM     11  C   UNL     1       2.895   7.250  18.665  0.00  0.00    +0.000 C 
BRANCH  11  12
ATOM     12  C   UNL     1       3.589   5.935  18.609  0.00  0.00    +0.000 C 
ATOM     13  O   UNL     1       4.233   5.483  19.548  0.00  0.00    +0.000 OA
ATOM     14  N   UNL     1       3.435   5.287  17.408  0.00  0.00    +0.000 N 
ATOM     15  H   UNL     1       2.853   5.689  16.685  0.00  0.00    +0.000 HD
BRANCH  14  16
ATOM     16  C   UNL     1       4.031   3.987  17.153  0.00  0.00    +0.000 C 
BRANCH  16  17
ATOM     17  C   UNL     1       2.980   2.882  17.062  0.00  0.00    +0.000 C 
BRANCH  17  18
ATOM     18  C   UNL     1       2.978   2.027  18.330  0.00  0.00    +0.000 C 
BRANCH  18  19
ATOM     19  N   UNL     1       2.442   2.724  19.487  0.00  0.00    +0.000 N 
ATOM     20  C   UNL     1       1.103   3.257  19.522  0.00  0.00    +0.000 C 
ATOM     21  C   UNL     1       1.093   4.066  20.804  0.00  0.00    +0.000 C 
ATOM     22  C   UNL     1       2.034   3.297  21.723  0.00  0.00    +0.000 C 
ATOM     23  C   UNL     1       3.001   2.654  20.757  0.00  0.00    +0.000 C 
ATOM     24  O   UNL     1       4.055   2.118  21.059  0.00  0.00    +0.000 OA
ENDBRANCH  18  19
ENDBRANCH  17  18
ENDBRANCH  16  17
ENDBRANCH  14  16
ENDBRANCH  11  12
ENDBRANCH   3  10
BRANCH   6  25
ATOM     25  S   UNL     1      -1.059  12.704  20.337  0.00  0.00    +0.000 S 
BRANCH  25  26
ATOM     26  C   UNL     1      -2.697  12.250  19.758  0.00  0.00    +0.000 A 
ATOM     27  C   UNL     1      -2.811  11.586  18.527  0.00  0.00    +0.000 A 
ATOM     28  C   UNL     1      -4.065  11.337  17.957  0.00  0.00    +0.000 A 
ATOM     29  C   UNL     1      -5.219  11.753  18.611  0.00  0.00    +0.000 A 
ATOM     30 CL   UNL     1      -6.757  11.492  17.884  0.00  0.00    +0.000 Cl
ATOM     31  C   UNL     1      -5.135  12.396  19.840  0.00  0.00    +0.000 A 
ATOM     32  C   UNL     1      -3.878  12.647  20.413  0.00  0.00    +0.000 A 
ATOM     33 CL   UNL     1      -3.863  13.471  21.936  0.00  0.00    +0.000 Cl
ENDBRANCH  25  26
ENDBRANCH   6  25
TORSDOF 9
ENDMDL
MODEL 7
REMARK VINA RESULT:      -7.7      2.269      2.720
REMARK  Name = 
REMARK  9 active torsions:
REMARK  status: ('A' for Active; 'I' for Inactive)
REMARK    1  A    between atoms: N_1  and  C_2
REMARK    2  A    between atoms: C_4  and  C_5
REMARK    3  A    between atoms: C_6  and  C_7
REMARK    4  A    between atoms: N_9  and  C_10
REMARK    5  A    between atoms: C_10  and  C_11
REMARK    6  A    between atoms: C_11  and  C_12
REMARK    7  A    between atoms: C_12  and  N_13
REMARK    8  A    between atoms: C_21  and  S_22
REMARK    9  A    between atoms: S_22  and  C_23
REMARK                            x       y       z     vdW  Elec       q    Type
REMARK                         _______ _______ _______ _____ _____    ______ ____
ROOT
ATOM      1  C   UNL     1       6.145   6.414  16.501  0.00  0.00    +0.000 A 
ATOM      2  C   UNL     1       6.966   7.445  16.988  0.00  0.00    +0.000 A 
ATOM      3  C   UNL     1       7.801   7.261  18.101  0.00  0.00    +0.000 A 
ATOM      4  C   UNL     1       7.865   5.992  18.682  0.00  0.00    +0.000 A 
ATOM      5  C   UNL     1       7.114   4.930  18.156  0.00  0.00    +0.000 A 
ATOM      6  C   UNL     1       6.276   5.121  17.049  0.00  0.00    +0.000 A 
ENDROOT
BRANCH   1   7
ATOM      7  N   UNL     1       5.362   6.660  15.351  0.00  0.00    +0.000 N 
ATOM      8  H   UNL     1       5.882   7.092  14.594  0.00  0.00    +0.000 HD
ATOM      9  H   UNL     1       4.521   7.184  15.584  0.00  0.00    +0.000 HD
ENDBRANCH   1   7
BRANCH   3  10
ATOM     10  C   UNL     1       8.610   8.404  18.566  0.00  0.00    +0.000 C 
ATOM     11  C   UNL     1       8.432   9.687  18.213  0.00  0.00    +0.000 C 
BRANCH  11  12
ATOM     12  C   UNL     1       9.358  10.726  18.742  0.00  0.00    +0.000 C 
ATOM     13  O   UNL     1       9.345  11.092  19.911  0.00  0.00    +0.000 OA
ATOM     14  N   UNL     1      10.218  11.225  17.795  0.00  0.00    +0.000 N 
ATOM     15  H   UNL     1      10.212  10.849  16.856  0.00  0.00    +0.000 HD
BRANCH  14  16
ATOM     16  C   UNL     1      11.204  12.243  18.112  0.00  0.00    +0.000 C 
BRANCH  16  17
ATOM     17  C   UNL     1      10.769  13.629  17.640  0.00  0.00    +0.000 C 
BRANCH  17  18
ATOM     18  C   UNL     1      10.802  14.632  18.794  0.00  0.00    +0.000 C 
BRANCH  18  19
ATOM     19  N   UNL     1      10.136  15.885  18.479  0.00  0.00    +0.000 N 
ATOM     20  C   UNL     1       8.956  16.334  19.175  0.00  0.00    +0.000 C 
ATOM     21  C   UNL     1       8.519  17.536  18.360  0.00  0.00    +0.000 C 
ATOM     22  C   UNL     1       9.830  18.122  17.851  0.00  0.00    +0.000 C 
ATOM     23  C   UNL     1      10.728  16.912  17.753  0.00  0.00    +0.000 C 
ATOM     24  O   UNL     1      11.807  16.872  17.187  0.00  0.00    +0.000 OA
ENDBRANCH  18  19
ENDBRANCH  17  18
ENDBRANCH  16  17
ENDBRANCH  14  16
ENDBRANCH  11  12
ENDBRANCH   3  10
BRANCH   6  25
ATOM     25  S   UNL     1       5.294   3.739  16.468  0.00  0.00    +0.000 S 
BRANCH  25  26
ATOM     26  C   UNL     1       3.838   3.807  17.517  0.00  0.00    +0.000 A 
ATOM     27  C   UNL     1       3.243   5.055  17.756  0.00  0.00    +0.000 A 
ATOM     28  C   UNL     1       2.199   5.190  18.678  0.00  0.00    +0.000 A 
ATOM     29  C   UNL     1       1.740   4.078  19.375  0.00  0.00    +0.000 A 
ATOM     30 CL   UNL     1       0.491   4.255  20.545  0.00  0.00    +0.000 Cl
ATOM     31  C   UNL     1       2.299   2.826  19.143  0.00  0.00    +0.000 A 
ATOM     32  C   UNL     1       3.348   2.689  18.220  0.00  0.00    +0.000 A 
ATOM     33 CL   UNL     1       4.000   1.099  18.007  0.00  0.00    +0.000 Cl
ENDBRANCH  25  26
ENDBRANCH   6  25
TORSDOF 9
ENDMDL
MODEL 8
REMARK VINA RESULT:      -7.6      4.743     10.008
REMARK  Name = 
REMARK  9 active torsions:
REMARK  status: ('A' for Active; 'I' for Inactive)
REMARK    1  A    between atoms: N_1  and  C_2
REMARK    2  A    between atoms: C_4  and  C_5
REMARK    3  A    between atoms: C_6  and  C_7
REMARK    4  A    between atoms: N_9  and  C_10
REMARK    5  A    between atoms: C_10  and  C_11
REMARK    6  A    between atoms: C_11  and  C_12
REMARK    7  A    between atoms: C_12  and  N_13
REMARK    8  A    between atoms: C_21  and  S_22
REMARK    9  A    between atoms: S_22  and  C_23
REMARK                            x       y       z     vdW  Elec       q    Type
REMARK                         _______ _______ _______ _____ _____    ______ ____
ROOT
ATOM      1  C   UNL     1       9.314  12.317  18.192  0.00  0.00    +0.000 A 
ATOM      2  C   UNL     1       8.885  11.006  17.925  0.00  0.00    +0.000 A 
ATOM      3  C   UNL     1       8.973   9.989  18.888  0.00  0.00    +0.000 A 
ATOM      4  C   UNL     1       9.429  10.323  20.166  0.00  0.00    +0.000 A 
ATOM      5  C   UNL     1       9.783  11.645  20.474  0.00  0.00    +0.000 A 
ATOM      6  C   UNL     1       9.700  12.655  19.505  0.00  0.00    +0.000 A 
ENDROOT
BRANCH   1   7
ATOM      7  N   UNL     1       9.156  13.298  17.187  0.00  0.00    +0.000 N 
ATOM      8  H   UNL     1       9.312  12.943  16.249  0.00  0.00    +0.000 HD
ATOM      9  H   UNL     1       9.724  14.120  17.383  0.00  0.00    +0.000 HD
ENDBRANCH   1   7
BRANCH   3  10
ATOM     10  C   UNL     1       8.528   8.633  18.517  0.00  0.00    +0.000 C 
ATOM     11  C   UNL     1       7.653   8.333  17.543  0.00  0.00    +0.000 C 
BRANCH  11  12
ATOM     12  C   UNL     1       7.276   6.911  17.313  0.00  0.00    +0.000 C 
ATOM     13  O   UNL     1       7.640   6.279  16.329  0.00  0.00    +0.000 OA
ATOM     14  N   UNL     1       6.488   6.387  18.308  0.00  0.00    +0.000 N 
ATOM     15  H   UNL     1       6.258   6.944  19.121  0.00  0.00    +0.000 HD
BRANCH  14  16
ATOM     16  C   UNL     1       6.017   5.014  18.274  0.00  0.00    +0.000 C 
BRANCH  16  17
ATOM     17  C   UNL     1       4.650   4.893  17.605  0.00  0.00    +0.000 C 
BRANCH  17  18
ATOM     18  C   UNL     1       3.576   5.608  18.427  0.00  0.00    +0.000 C 
BRANCH  18  19
ATOM     19  N   UNL     1       2.721   4.694  19.166  0.00  0.00    +0.000 N 
ATOM     20  C   UNL     1       2.584   4.746  20.600  0.00  0.00    +0.000 C 
ATOM     21  C   UNL     1       1.794   3.490  20.911  0.00  0.00    +0.000 C 
ATOM     22  C   UNL     1       0.900   3.315  19.690  0.00  0.00    +0.000 C 
ATOM     23  C   UNL     1       1.716   3.934  18.580  0.00  0.00    +0.000 C 
ATOM     24  O   UNL     1       1.487   3.828  17.387  0.00  0.00    +0.000 OA
ENDBRANCH  18  19
ENDBRANCH  17  18
ENDBRANCH  16  17
ENDBRANCH  14  16
ENDBRANCH  11  12
ENDBRANCH   3  10
BRANCH   6  25
ATOM     25  S   UNL     1      10.230  14.309  19.945  0.00  0.00    +0.000 S 
BRANCH  25  26
ATOM     26  C   UNL     1       9.044  14.794  21.203  0.00  0.00    +0.000 A 
ATOM     27  C   UNL     1       9.389  14.613  22.551  0.00  0.00    +0.000 A 
ATOM     28  C   UNL     1       8.454  14.835  23.569  0.00  0.00    +0.000 A 
ATOM     29  C   UNL     1       7.162  15.237  23.250  0.00  0.00    +0.000 A 
ATOM     30 CL   UNL     1       6.000  15.460  24.499  0.00  0.00    +0.000 Cl
ATOM     31  C   UNL     1       6.800  15.442  21.923  0.00  0.00    +0.000 A 
ATOM     32  C   UNL     1       7.736  15.219  20.901  0.00  0.00    +0.000 A 
ATOM     33 CL   UNL     1       7.197  15.477  19.276  0.00  0.00    +0.000 Cl
ENDBRANCH  25  26
ENDBRANCH   6  25
TORSDOF 9
ENDMDL
MODEL 9
REMARK VINA RESULT:      -7.6      5.036     10.250
REMARK  Name = 
REMARK  9 active torsions:
REMARK  status: ('A' for Active; 'I' for Inactive)
REMARK    1  A    between atoms: N_1  and  C_2
REMARK    2  A    between atoms: C_4  and  C_5
REMARK    3  A    between atoms: C_6  and  C_7
REMARK    4  A    between atoms: N_9  and  C_10
REMARK    5  A    between atoms: C_10  and  C_11
REMARK    6  A    between atoms: C_11  and  C_12
REMARK    7  A    between atoms: C_12  and  N_13
REMARK    8  A    between atoms: C_21  and  S_22
REMARK    9  A    between atoms: S_22  and  C_23
REMARK                            x       y       z     vdW  Elec       q    Type
REMARK                         _______ _______ _______ _____ _____    ______ ____
ROOT
ATOM      1  C   UNL     1       9.139  12.474  17.986  0.00  0.00    +0.000 A 
ATOM      2  C   UNL     1       8.401  11.336  17.620  0.00  0.00    +0.000 A 
ATOM      3  C   UNL     1       8.583  10.100  18.259  0.00  0.00    +0.000 A 
ATOM      4  C   UNL     1       9.469  10.034  19.338  0.00  0.00    +0.000 A 
ATOM      5  C   UNL     1      10.152  11.181  19.770  0.00  0.00    +0.000 A 
ATOM      6  C   UNL     1       9.971  12.411  19.123  0.00  0.00    +0.000 A 
ENDROOT
BRANCH   1   7
ATOM      7  N   UNL     1       8.871  13.694  17.325  0.00  0.00    +0.000 N 
ATOM      8  H   UNL     1       9.273  13.745  16.394  0.00  0.00    +0.000 HD
ATOM      9  H   UNL     1       9.140  14.490  17.901  0.00  0.00    +0.000 HD
ENDBRANCH   1   7
BRANCH   3  10
ATOM     10  C   UNL     1       7.789   8.947  17.794  0.00  0.00    +0.000 C 
ATOM     11  C   UNL     1       8.128   7.654  17.930  0.00  0.00    +0.000 C 
BRANCH  11  12
ATOM     12  C   UNL     1       7.233   6.603  17.374  0.00  0.00    +0.000 C 
ATOM     13  O   UNL     1       7.627   5.476  17.095  0.00  0.00    +0.000 OA
ATOM     14  N   UNL     1       5.936   7.022  17.207  0.00  0.00    +0.000 N 
ATOM     15  H   UNL     1       5.661   7.950  17.498  0.00  0.00    +0.000 HD
BRANCH  14  16
ATOM     16  C   UNL     1       4.906   6.143  16.681  0.00  0.00    +0.000 C 
BRANCH  16  17
ATOM     17  C   UNL     1       4.366   5.190  17.746  0.00  0.00    +0.000 C 
BRANCH  17  18
ATOM     18  C   UNL     1       3.130   5.779  18.427  0.00  0.00    +0.000 C 
BRANCH  18  19
ATOM     19  N   UNL     1       2.379   4.798  19.192  0.00  0.00    +0.000 N 
ATOM     20  C   UNL     1       2.195   4.899  20.618  0.00  0.00    +0.000 C 
ATOM     21  C   UNL     1       1.565   3.567  20.975  0.00  0.00    +0.000 C 
ATOM     22  C   UNL     1       0.738   3.218  19.744  0.00  0.00    +0.000 C 
ATOM     23  C   UNL     1       1.498   3.885  18.623  0.00  0.00    +0.000 C 
ATOM     24  O   UNL     1       1.320   3.694  17.432  0.00  0.00    +0.000 OA
ENDBRANCH  18  19
ENDBRANCH  17  18
ENDBRANCH  16  17
ENDBRANCH  14  16
ENDBRANCH  11  12
ENDBRANCH   3  10
BRANCH   6  25
ATOM     25  S   UNL     1      10.923  13.822  19.683  0.00  0.00    +0.000 S 
BRANCH  25  26
ATOM     26  C   UNL     1       9.830  14.602  20.874  0.00  0.00    +0.000 A 
ATOM     27  C   UNL     1       9.495  13.894  22.039  0.00  0.00    +0.000 A 
ATOM     28  C   UNL     1       8.536  14.387  22.931  0.00  0.00    +0.000 A 
ATOM     29  C   UNL     1       7.898  15.594  22.667  0.00  0.00    +0.000 A 
ATOM     30 CL   UNL     1       6.683  16.173  23.739  0.00  0.00    +0.000 Cl
ATOM     31  C   UNL     1       8.224  16.324  21.530  0.00  0.00    +0.000 A 
ATOM     32  C   UNL     1       9.185  15.831  20.633  0.00  0.00    +0.000 A 
ATOM     33 CL   UNL     1       9.516  16.793  19.233  0.00  0.00    +0.000 Cl
ENDBRANCH  25  26
ENDBRANCH   6  25
TORSDOF 9
ENDMDL
