MODEL 1
REMARK VINA RESULT:      -6.3      0.000      0.000
REMARK  Name = 
REMARK  11 active torsions:
REMARK  status: ('A' for Active; 'I' for Inactive)
REMARK    1  A    between atoms: C_1  and  C_2
REMARK    2  A    between atoms: C_2  and  C_3
REMARK    3  A    between atoms: C_2  and  C_4
REMARK    4  A    between atoms: C_4  and  O_5
REMARK    5  A    between atoms: C_4  and  C_6
REMARK    6  A    between atoms: C_7  and  C_8
REMARK    7  A    between atoms: C_8  and  O_10
REMARK    8  A    between atoms: C_14  and  C_15
REMARK    9  A    between atoms: C_15  and  C_16
REMARK   10  A    between atoms: C_15  and  O_17
REMARK   11  A    between atoms: C_19  and  C_20
REMARK                            x       y       z     vdW  Elec       q    Type
REMARK                         _______ _______ _______ _____ _____    ______ ____
ROOT
ATOM      1  C   UNL     1       4.718   5.485  17.394  0.00  0.00    +0.000 C 
ATOM      2  C   UNL     1       4.844   4.270  16.828  0.00  0.00    +0.000 C 
ATOM      3  N   UNL     1       4.223   3.276  17.569  0.00  0.00    +0.000 N 
ATOM      4  C   UNL     1       2.912   2.873  17.350  0.00  0.00    +0.000 C 
ATOM      5  O   UNL     1       2.273   2.719  16.341  0.00  0.00    +0.000 OA
ATOM      6  C   UNL     1       2.689   2.833  18.882  0.00  0.00    +0.000 C 
ATOM      7  C   UNL     1       3.813   3.920  18.879  0.00  0.00    +0.000 C 
ATOM      8  C   UNL     1       3.662   5.406  18.479  0.00  0.00    +0.000 C 
ATOM      9  C   UNL     1       3.707   6.327  19.682  0.00  0.00    +0.000 C 
ENDROOT
BRANCH   2  10
ATOM     10  C   UNL     1       5.673   3.930  15.642  0.00  0.00    +0.000 C 
ATOM     11  O   UNL     1       5.401   4.219  14.485  0.00  0.00    +0.000 OA
BRANCH  10  12
ATOM     12  O   UNL     1       6.792   3.245  15.977  0.00  0.00    +0.000 OA
ATOM     13  H   UNL     1       6.649   2.280  15.902  0.00  0.00    +0.000 HD
ENDBRANCH  10  12
ENDBRANCH   2  10
BRANCH   6  14
ATOM     14  C   UNL     1       1.353   3.164  19.515  0.00  0.00    +0.000 C 
ATOM     15  C   UNL     1       1.352   2.889  21.009  0.00  0.00    +0.000 C 
BRANCH  14  16
ATOM     16  O   UNL     1       0.290   2.457  18.895  0.00  0.00    +0.000 OA
ATOM     17  H   UNL     1      -0.411   2.312  19.556  0.00  0.00    +0.000 HD
ENDBRANCH  14  16
ENDBRANCH   6  14
BRANCH   1  18
ATOM     18  C   UNL     1       5.478   6.725  17.059  0.00  0.00    +0.000 C 
BRANCH  18  20
ATOM     19  C   UNL     1       7.549   8.093  17.486  0.00  0.00    +0.000 C 
ATOM     20  C   UNL     1       6.994   6.671  17.346  0.00  0.00    +0.000 C 
ATOM     21  C   UNL     1       7.310   5.866  18.608  0.00  0.00    +0.000 C 
ENDBRANCH  18  20
BRANCH  18  22
ATOM     22  O   UNL     1       5.203   6.985  15.681  0.00  0.00    +0.000 OA
ATOM     23  H   UNL     1       5.705   6.361  15.134  0.00  0.00    +0.000 HD
ENDBRANCH  18  22
ENDBRANCH   1  18
TORSDOF 7
ENDMDL
MODEL 2
REMARK VINA RESULT:      -6.0      2.223      5.575
REMARK  Name = 
REMARK  11 active torsions:
REMARK  status: ('A' for Active; 'I' for Inactive)
REMARK    1  A    between atoms: C_1  and  C_2
REMARK    2  A    between atoms: C_2  and  C_3
REMARK    3  A    between atoms: C_2  and  C_4
REMARK    4  A    between atoms: C_4  and  O_5
REMARK    5  A    between atoms: C_4  and  C_6
REMARK    6  A    between atoms: C_7  and  C_8
REMARK    7  A    between atoms: C_8  and  O_10
REMARK    8  A    between atoms: C_14  and  C_15
REMARK    9  A    between atoms: C_15  and  C_16
REMARK   10  A    between atoms: C_15  and  O_17
REMARK   11  A    between atoms: C_19  and  C_20
REMARK                            x       y       z     vdW  Elec       q    Type
REMARK                         _______ _______ _______ _____ _____    ______ ____
ROOT
ATOM      1  C   UNL     1       3.005   3.271  18.967  0.00  0.00    +0.000 C 
ATOM      2  C   UNL     1       4.273   2.852  19.143  0.00  0.00    +0.000 C 
ATOM      3  N   UNL     1       5.162   3.493  18.293  0.00  0.00    +0.000 N 
ATOM      4  C   UNL     1       5.849   4.647  18.645  0.00  0.00    +0.000 C 
ATOM      5  O   UNL     1       6.358   5.001  19.677  0.00  0.00    +0.000 OA
ATOM      6  C   UNL     1       5.566   5.222  17.234  0.00  0.00    +0.000 C 
ATOM      7  C   UNL     1       4.316   4.285  17.316  0.00  0.00    +0.000 C 
ATOM      8  C   UNL     1       3.025   4.534  18.129  0.00  0.00    +0.000 C 
ATOM      9  C   UNL     1       1.854   4.900  17.240  0.00  0.00    +0.000 C 
ENDROOT
BRANCH   2  10
ATOM     10  C   UNL     1       4.719   1.727  20.005  0.00  0.00    +0.000 C 
ATOM     11  O   UNL     1       4.990   1.814  21.195  0.00  0.00    +0.000 OA
BRANCH  10  12
ATOM     12  O   UNL     1       4.804   0.560  19.325  0.00  0.00    +0.000 OA
ATOM     13  H   UNL     1       3.919   0.160  19.203  0.00  0.00    +0.000 HD
ENDBRANCH  10  12
ENDBRANCH   2  10
BRANCH   6  14
ATOM     14  C   UNL     1       5.356   6.702  16.989  0.00  0.00    +0.000 C 
ATOM     15  C   UNL     1       4.805   6.971  15.599  0.00  0.00    +0.000 C 
BRANCH  14  16
ATOM     16  O   UNL     1       6.553   7.439  17.184  0.00  0.00    +0.000 OA
ATOM     17  H   UNL     1       7.033   7.477  16.337  0.00  0.00    +0.000 HD
ENDBRANCH  14  16
ENDBRANCH   6  14
BRANCH   1  18
ATOM     18  C   UNL     1       1.758   2.627  19.475  0.00  0.00    +0.000 C 
BRANCH  18  20
ATOM     19  C   UNL     1       1.525   2.584  21.982  0.00  0.00    +0.000 C 
ATOM     20  C   UNL     1       1.111   3.312  20.698  0.00  0.00    +0.000 C 
ATOM     21  C   UNL     1       1.492   4.790  20.796  0.00  0.00    +0.000 C 
ENDBRANCH  18  20
BRANCH  18  22
ATOM     22  O   UNL     1       0.869   2.574  18.358  0.00  0.00    +0.000 OA
ATOM     23  H   UNL     1       1.182   3.187  17.674  0.00  0.00    +0.000 HD
ENDBRANCH  18  22
ENDBRANCH   1  18
TORSDOF 7
ENDMDL
MODEL 3
REMARK VINA RESULT:      -6.0      2.174      5.629
REMARK  Name = 
REMARK  11 active torsions:
REMARK  status: ('A' for Active; 'I' for Inactive)
REMARK    1  A    between atoms: C_1  and  C_2
REMARK    2  A    between atoms: C_2  and  C_3
REMARK    3  A    between atoms: C_2  and  C_4
REMARK    4  A    between atoms: C_4  and  O_5
REMARK    5  A    between atoms: C_4  and  C_6
REMARK    6  A    between atoms: C_7  and  C_8
REMARK    7  A    between atoms: C_8  and  O_10
REMARK    8  A    between atoms: C_14  and  C_15
REMARK    9  A    between atoms: C_15  and  C_16
REMARK   10  A    between atoms: C_15  and  O_17
REMARK   11  A    between atoms: C_19  and  C_20
REMARK                            x       y       z     vdW  Elec       q    Type
REMARK                         _______ _______ _______ _____ _____    ______ ____
ROOT
ATOM      1  C   UNL     1       3.309   5.519  18.742  0.00  0.00    +0.000 C 
ATOM      2  C   UNL     1       3.543   6.752  18.257  0.00  0.00    +0.000 C 
ATOM      3  N   UNL     1       4.858   6.918  17.851  0.00  0.00    +0.000 N 
ATOM      4  C   UNL     1       5.285   6.690  16.549  0.00  0.00    +0.000 C 
ATOM      5  O   UNL     1       4.777   6.916  15.482  0.00  0.00    +0.000 OA
ATOM      6  C   UNL     1       6.546   5.983  17.107  0.00  0.00    +0.000 C 
ATOM      7  C   UNL     1       5.604   5.684  18.320  0.00  0.00    +0.000 C 
ATOM      8  C   UNL     1       4.479   4.626  18.378  0.00  0.00    +0.000 C 
ATOM      9  C   UNL     1       4.856   3.440  19.243  0.00  0.00    +0.000 C 
ENDROOT
BRANCH   2  10
ATOM     10  C   UNL     1       2.601   7.902  18.275  0.00  0.00    +0.000 C 
ATOM     11  O   UNL     1       1.936   8.254  19.240  0.00  0.00    +0.000 OA
BRANCH  10  12
ATOM     12  O   UNL     1       2.548   8.541  17.084  0.00  0.00    +0.000 OA
ATOM     13  H   UNL     1       1.736   8.301  16.592  0.00  0.00    +0.000 HD
ENDBRANCH  10  12
ENDBRANCH   2  10
BRANCH   6  14
ATOM     14  C   UNL     1       7.208   4.824  16.393  0.00  0.00    +0.000 C 
ATOM     15  C   UNL     1       6.189   3.906  15.741  0.00  0.00    +0.000 C 
BRANCH  14  16
ATOM     16  O   UNL     1       8.040   4.076  17.267  0.00  0.00    +0.000 OA
ATOM     17  H   UNL     1       7.836   3.130  17.152  0.00  0.00    +0.000 HD
ENDBRANCH  14  16
ENDBRANCH   6  14
BRANCH   1  18
ATOM     18  C   UNL     1       2.124   5.062  19.526  0.00  0.00    +0.000 C 
BRANCH  18  20
ATOM     19  C   UNL     1       1.297   3.144  20.935  0.00  0.00    +0.000 C 
ATOM     20  C   UNL     1       1.923   3.532  19.591  0.00  0.00    +0.000 C 
ATOM     21  C   UNL     1       1.047   3.020  18.446  0.00  0.00    +0.000 C 
ENDBRANCH  18  20
BRANCH  18  22
ATOM     22  O   UNL     1       2.276   5.637  20.826  0.00  0.00    +0.000 OA
ATOM     23  H   UNL     1       1.880   5.044  21.483  0.00  0.00    +0.000 HD
ENDBRANCH  18  22
ENDBRANCH   1  18
TORSDOF 7
ENDMDL
MODEL 4
REMARK VINA RESULT:      -5.9      2.382      5.191
REMARK  Name = 
REMARK  11 active torsions:
REMARK  status: ('A' for Active; 'I' for Inactive)
REMARK    1  A    between atoms: C_1  and  C_2
REMARK    2  A    between atoms: C_2  and  C_3
REMARK    3  A    between atoms: C_2  and  C_4
REMARK    4  A    between atoms: C_4  and  O_5
REMARK    5  A    between atoms: C_4  and  C_6
REMARK    6  A    between atoms: C_7  and  C_8
REMARK    7  A    between atoms: C_8  and  O_10
REMARK    8  A    between atoms: C_14  and  C_15
REMARK    9  A    between atoms: C_15  and  C_16
REMARK   10  A    between atoms: C_15  and  O_17
REMARK   11  A    between atoms: C_19  and  C_20
REMARK                            x       y       z     vdW  Elec       q    Type
REMARK                         _______ _______ _______ _____ _____    ______ ____
ROOT
ATOM      1  C   UNL     1       4.979   5.003  18.232  0.00  0.00    +0.000 C 
ATOM      2  C   UNL     1       6.320   5.078  18.134  0.00  0.00    +0.000 C 
ATOM      3  N   UNL     1       6.807   4.386  17.035  0.00  0.00    +0.000 N 
ATOM      4  C   UNL     1       7.017   4.979  15.797  0.00  0.00    +0.000 C 
ATOM      5  O   UNL     1       7.439   6.061  15.481  0.00  0.00    +0.000 OA
ATOM      6  C   UNL     1       6.405   3.729  15.117  0.00  0.00    +0.000 C 
ATOM      7  C   UNL     1       5.633   3.609  16.472  0.00  0.00    +0.000 C 
ATOM      8  C   UNL     1       4.427   4.462  16.928  0.00  0.00    +0.000 C 
ATOM      9  C   UNL     1       3.130   3.679  16.894  0.00  0.00    +0.000 C 
ENDROOT
BRANCH   2  10
ATOM     10  C   UNL     1       7.247   5.672  19.131  0.00  0.00    +0.000 C 
ATOM     11  O   UNL     1       7.399   5.274  20.278  0.00  0.00    +0.000 OA
BRANCH  10  12
ATOM     12  O   UNL     1       7.927   6.731  18.634  0.00  0.00    +0.000 OA
ATOM     13  H   UNL     1       8.581   7.065  19.282  0.00  0.00    +0.000 HD
ENDBRANCH  10  12
ENDBRANCH   2  10
BRANCH   6  14
ATOM     14  C   UNL     1       5.612   3.814  13.829  0.00  0.00    +0.000 C 
ATOM     15  C   UNL     1       6.446   3.411  12.625  0.00  0.00    +0.000 C 
BRANCH  14  16
ATOM     16  O   UNL     1       5.075   5.113  13.629  0.00  0.00    +0.000 OA
ATOM     17  H   UNL     1       5.647   5.589  13.000  0.00  0.00    +0.000 HD
ENDBRANCH  14  16
ENDBRANCH   6  14
BRANCH   1  18
ATOM     18  C   UNL     1       4.135   5.363  19.409  0.00  0.00    +0.000 C 
BRANCH  18  20
ATOM     19  C   UNL     1       1.960   6.212  20.355  0.00  0.00    +0.000 C 
ATOM     20  C   UNL     1       2.783   6.030  19.075  0.00  0.00    +0.000 C 
ATOM     21  C   UNL     1       2.966   7.382  18.382  0.00  0.00    +0.000 C 
ENDBRANCH  18  20
BRANCH  18  22
ATOM     22  O   UNL     1       3.966   4.152  20.148  0.00  0.00    +0.000 OA
ATOM     23  H   UNL     1       4.408   3.429  19.676  0.00  0.00    +0.000 HD
ENDBRANCH  18  22
ENDBRANCH   1  18
TORSDOF 7
ENDMDL
MODEL 5
REMARK VINA RESULT:      -5.9      2.243      5.696
REMARK  Name = 
REMARK  11 active torsions:
REMARK  status: ('A' for Active; 'I' for Inactive)
REMARK    1  A    between atoms: C_1  and  C_2
REMARK    2  A    between atoms: C_2  and  C_3
REMARK    3  A    between atoms: C_2  and  C_4
REMARK    4  A    between atoms: C_4  and  O_5
REMARK    5  A    between atoms: C_4  and  C_6
REMARK    6  A    between atoms: C_7  and  C_8
REMARK    7  A    between atoms: C_8  and  O_10
REMARK    8  A    between atoms: C_14  and  C_15
REMARK    9  A    between atoms: C_15  and  C_16
REMARK   10  A    between atoms: C_15  and  O_17
REMARK   11  A    between atoms: C_19  and  C_20
REMARK                            x       y       z     vdW  Elec       q    Type
REMARK                         _______ _______ _______ _____ _____    ______ ____
ROOT
ATOM      1  C   UNL     1       3.394   4.251  19.444  0.00  0.00    +0.000 C 
ATOM      2  C   UNL     1       4.364   3.349  19.207  0.00  0.00    +0.000 C 
ATOM      3  N   UNL     1       5.063   3.620  18.040  0.00  0.00    +0.000 N 
ATOM      4  C   UNL     1       6.225   4.380  18.010  0.00  0.00    +0.000 C 
ATOM      5  O   UNL     1       7.166   4.445  18.758  0.00  0.00    +0.000 OA
ATOM      6  C   UNL     1       5.703   5.092  16.737  0.00  0.00    +0.000 C 
ATOM      7  C   UNL     1       4.307   4.736  17.345  0.00  0.00    +0.000 C 
ATOM      8  C   UNL     1       3.606   5.441  18.528  0.00  0.00    +0.000 C 
ATOM      9  C   UNL     1       2.439   6.294  18.073  0.00  0.00    +0.000 C 
ENDROOT
BRANCH   2  10
ATOM     10  C   UNL     1       4.610   2.096  19.967  0.00  0.00    +0.000 C 
ATOM     11  O   UNL     1       4.862   2.034  21.163  0.00  0.00    +0.000 OA
BRANCH  10  12
ATOM     12  O   UNL     1       4.529   0.995  19.185  0.00  0.00    +0.000 OA
ATOM     13  H   UNL     1       4.355   1.238  18.252  0.00  0.00    +0.000 HD
ENDBRANCH  10  12
ENDBRANCH   2  10
BRANCH   6  14
ATOM     14  C   UNL     1       6.020   6.542  16.433  0.00  0.00    +0.000 C 
ATOM     15  C   UNL     1       5.363   7.003  15.143  0.00  0.00    +0.000 C 
BRANCH  14  16
ATOM     16  O   UNL     1       7.419   6.770  16.369  0.00  0.00    +0.000 OA
ATOM     17  H   UNL     1       7.870   5.907  16.332  0.00  0.00    +0.000 HD
ENDBRANCH  14  16
ENDBRANCH   6  14
BRANCH   1  18
ATOM     18  C   UNL     1       2.269   4.139  20.418  0.00  0.00    +0.000 C 
BRANCH  18  20
ATOM     19  C   UNL     1       1.109   2.482  21.920  0.00  0.00    +0.000 C 
ATOM     20  C   UNL     1       1.592   2.753  20.490  0.00  0.00    +0.000 C 
ATOM     21  C   UNL     1       0.417   2.637  19.517  0.00  0.00    +0.000 C 
ENDBRANCH  18  20
BRANCH  18  22
ATOM     22  O   UNL     1       2.810   4.537  21.679  0.00  0.00    +0.000 OA
ATOM     23  H   UNL     1       3.573   5.115  21.528  0.00  0.00    +0.000 HD
ENDBRANCH  18  22
ENDBRANCH   1  18
TORSDOF 7
ENDMDL
MODEL 6
REMARK VINA RESULT:      -5.8      2.350      5.805
REMARK  Name = 
REMARK  11 active torsions:
REMARK  status: ('A' for Active; 'I' for Inactive)
REMARK    1  A    between atoms: C_1  and  C_2
REMARK    2  A    between atoms: C_2  and  C_3
REMARK    3  A    between atoms: C_2  and  C_4
REMARK    4  A    between atoms: C_4  and  O_5
REMARK    5  A    between atoms: C_4  and  C_6
REMARK    6  A    between atoms: C_7  and  C_8
REMARK    7  A    between atoms: C_8  and  O_10
REMARK    8  A    between atoms: C_14  and  C_15
REMARK    9  A    between atoms: C_15  and  C_16
REMARK   10  A    between atoms: C_15  and  O_17
REMARK   11  A    between atoms: C_19  and  C_20
REMARK                            x       y       z     vdW  Elec       q    Type
REMARK                         _______ _______ _______ _____ _____    ______ ____
ROOT
ATOM      1  C   UNL     1       3.035   5.435  19.007  0.00  0.00    +0.000 C 
ATOM      2  C   UNL     1       3.187   6.694  18.557  0.00  0.00    +0.000 C 
ATOM      3  N   UNL     1       4.489   6.957  18.156  0.00  0.00    +0.000 N 
ATOM      4  C   UNL     1       4.929   6.793  16.849  0.00  0.00    +0.000 C 
ATOM      5  O   UNL     1       4.406   7.015  15.788  0.00  0.00    +0.000 OA
ATOM      6  C   UNL     1       6.233   6.155  17.389  0.00  0.00    +0.000 C 
ATOM      7  C   UNL     1       5.314   5.761  18.591  0.00  0.00    +0.000 C 
ATOM      8  C   UNL     1       4.261   4.630  18.619  0.00  0.00    +0.000 C 
ATOM      9  C   UNL     1       4.715   3.449  19.451  0.00  0.00    +0.000 C 
ENDROOT
BRANCH   2  10
ATOM     10  C   UNL     1       2.173   7.779  18.606  0.00  0.00    +0.000 C 
ATOM     11  O   UNL     1       1.687   8.336  17.631  0.00  0.00    +0.000 OA
BRANCH  10  12
ATOM     12  O   UNL     1       1.828   8.103  19.874  0.00  0.00    +0.000 OA
ATOM     13  H   UNL     1       2.476   8.723  20.267  0.00  0.00    +0.000 HD
ENDBRANCH  10  12
ENDBRANCH   2  10
BRANCH   6  14
ATOM     14  C   UNL     1       6.969   5.062  16.643  0.00  0.00    +0.000 C 
ATOM     15  C   UNL     1       7.958   4.335  17.538  0.00  0.00    +0.000 C 
BRANCH  14  16
ATOM     16  O   UNL     1       7.638   5.568  15.498  0.00  0.00    +0.000 OA
ATOM     17  H   UNL     1       7.370   5.039  14.725  0.00  0.00    +0.000 HD
ENDBRANCH  14  16
ENDBRANCH   6  14
BRANCH   1  18
ATOM     18  C   UNL     1       1.883   4.880  19.777  0.00  0.00    +0.000 C 
BRANCH  18  20
ATOM     19  C   UNL     1       1.340   2.837  21.147  0.00  0.00    +0.000 C 
ATOM     20  C   UNL     1       1.756   3.341  19.760  0.00  0.00    +0.000 C 
ATOM     21  C   UNL     1       0.751   2.859  18.712  0.00  0.00    +0.000 C 
ENDBRANCH  18  20
BRANCH  18  22
ATOM     22  O   UNL     1       2.024   5.391  21.104  0.00  0.00    +0.000 OA
ATOM     23  H   UNL     1       1.721   4.720  21.735  0.00  0.00    +0.000 HD
ENDBRANCH  18  22
ENDBRANCH   1  18
TORSDOF 7
ENDMDL
MODEL 7
REMARK VINA RESULT:      -5.7      2.150      3.157
REMARK  Name = 
REMARK  11 active torsions:
REMARK  status: ('A' for Active; 'I' for Inactive)
REMARK    1  A    between atoms: C_1  and  C_2
REMARK    2  A    between atoms: C_2  and  C_3
REMARK    3  A    between atoms: C_2  and  C_4
REMARK    4  A    between atoms: C_4  and  O_5
REMARK    5  A    between atoms: C_4  and  C_6
REMARK    6  A    between atoms: C_7  and  C_8
REMARK    7  A    between atoms: C_8  and  O_10
REMARK    8  A    between atoms: C_14  and  C_15
REMARK    9  A    between atoms: C_15  and  C_16
REMARK   10  A    between atoms: C_15  and  O_17
REMARK   11  A    between atoms: C_19  and  C_20
REMARK                            x       y       z     vdW  Elec       q    Type
REMARK                         _______ _______ _______ _____ _____    ______ ____
ROOT
ATOM      1  C   UNL     1       4.811   3.960  17.338  0.00  0.00    +0.000 C 
ATOM      2  C   UNL     1       5.534   4.196  18.449  0.00  0.00    +0.000 C 
ATOM      3  N   UNL     1       4.745   4.255  19.588  0.00  0.00    +0.000 N 
ATOM      4  C   UNL     1       4.491   3.152  20.392  0.00  0.00    +0.000 C 
ATOM      5  O   UNL     1       5.184   2.234  20.746  0.00  0.00    +0.000 OA
ATOM      6  C   UNL     1       3.010   3.595  20.498  0.00  0.00    +0.000 C 
ATOM      7  C   UNL     1       3.307   4.245  19.106  0.00  0.00    +0.000 C 
ATOM      8  C   UNL     1       3.422   3.513  17.750  0.00  0.00    +0.000 C 
ATOM      9  C   UNL     1       2.223   3.771  16.860  0.00  0.00    +0.000 C 
ENDROOT
BRANCH   2  10
ATOM     10  C   UNL     1       6.981   4.529  18.507  0.00  0.00    +0.000 C 
ATOM     11  O   UNL     1       7.847   4.041  17.794  0.00  0.00    +0.000 OA
BRANCH  10  12
ATOM     12  O   UNL     1       7.258   5.452  19.458  0.00  0.00    +0.000 OA
ATOM     13  H   UNL     1       6.752   6.276  19.306  0.00  0.00    +0.000 HD
ENDBRANCH  10  12
ENDBRANCH   2  10
BRANCH   6  14
ATOM     14  C   UNL     1       1.873   2.601  20.612  0.00  0.00    +0.000 C 
ATOM     15  C   UNL     1       0.577   3.159  20.050  0.00  0.00    +0.000 C 
BRANCH  14  16
ATOM     16  O   UNL     1       1.675   2.185  21.955  0.00  0.00    +0.000 OA
ATOM     17  H   UNL     1       1.763   1.215  21.993  0.00  0.00    +0.000 HD
ENDBRANCH  14  16
ENDBRANCH   6  14
BRANCH   1  18
ATOM     18  C   UNL     1       5.251   4.113  15.920  0.00  0.00    +0.000 C 
BRANCH  18  20
ATOM     19  C   UNL     1       6.853   5.228  14.327  0.00  0.00    +0.000 C 
ATOM     20  C   UNL     1       6.025   5.412  15.604  0.00  0.00    +0.000 C 
ATOM     21  C   UNL     1       5.089   6.612  15.444  0.00  0.00    +0.000 C 
ENDBRANCH  18  20
BRANCH  18  22
ATOM     22  O   UNL     1       6.022   2.947  15.627  0.00  0.00    +0.000 OA
ATOM     23  H   UNL     1       5.441   2.171  15.643  0.00  0.00    +0.000 HD
ENDBRANCH  18  22
ENDBRANCH   1  18
TORSDOF 7
ENDMDL
MODEL 8
REMARK VINA RESULT:      -5.6      2.077      3.738
REMARK  Name = 
REMARK  11 active torsions:
REMARK  status: ('A' for Active; 'I' for Inactive)
REMARK    1  A    between atoms: C_1  and  C_2
REMARK    2  A    between atoms: C_2  and  C_3
REMARK    3  A    between atoms: C_2  and  C_4
REMARK    4  A    between atoms: C_4  and  O_5
REMARK    5  A    between atoms: C_4  and  C_6
REMARK    6  A    between atoms: C_7  and  C_8
REMARK    7  A    between atoms: C_8  and  O_10
REMARK    8  A    between atoms: C_14  and  C_15
REMARK    9  A    between atoms: C_15  and  C_16
REMARK   10  A    between atoms: C_15  and  O_17
REMARK   11  A    between atoms: C_19  and  C_20
REMARK                            x       y       z     vdW  Elec       q    Type
REMARK                         _______ _______ _______ _____ _____    ______ ____
ROOT
ATOM      1  C   UNL     1       4.889   4.547  17.358  0.00  0.00    +0.000 C 
ATOM      2  C   UNL     1       4.159   3.873  18.266  0.00  0.00    +0.000 C 
ATOM      3  N   UNL     1       3.569   4.714  19.197  0.00  0.00    +0.000 N 
ATOM      4  C   UNL     1       2.289   5.233  19.048  0.00  0.00    +0.000 C 
ATOM      5  O   UNL     1       1.270   4.756  18.621  0.00  0.00    +0.000 OA
ATOM      6  C   UNL     1       2.808   6.604  19.549  0.00  0.00    +0.000 C 
ATOM      7  C   UNL     1       4.162   6.089  18.959  0.00  0.00    +0.000 C 
ATOM      8  C   UNL     1       4.553   6.022  17.466  0.00  0.00    +0.000 C 
ATOM      9  C   UNL     1       5.569   7.083  17.094  0.00  0.00    +0.000 C 
ENDROOT
BRANCH   2  10
ATOM     10  C   UNL     1       4.081   2.397  18.417  0.00  0.00    +0.000 C 
ATOM     11  O   UNL     1       3.367   1.656  17.755  0.00  0.00    +0.000 OA
BRANCH  10  12
ATOM     12  O   UNL     1       4.900   1.936  19.391  0.00  0.00    +0.000 OA
ATOM     13  H   UNL     1       4.394   1.459  20.080  0.00  0.00    +0.000 HD
ENDBRANCH  10  12
ENDBRANCH   2  10
BRANCH   6  14
ATOM     14  C   UNL     1       2.243   7.917  19.047  0.00  0.00    +0.000 C 
ATOM     15  C   UNL     1       1.321   8.562  20.067  0.00  0.00    +0.000 C 
BRANCH  14  16
ATOM     16  O   UNL     1       1.558   7.754  17.814  0.00  0.00    +0.000 OA
ATOM     17  H   UNL     1       1.559   8.609  17.346  0.00  0.00    +0.000 HD
ENDBRANCH  14  16
ENDBRANCH   6  14
BRANCH   1  18
ATOM     18  C   UNL     1       5.885   3.987  16.398  0.00  0.00    +0.000 C 
BRANCH  18  20
ATOM     19  C   UNL     1       7.363   5.044  14.654  0.00  0.00    +0.000 C 
ATOM     20  C   UNL     1       5.921   4.665  15.011  0.00  0.00    +0.000 C 
ATOM     21  C   UNL     1       5.337   3.767  13.918  0.00  0.00    +0.000 C 
ENDBRANCH  18  20
BRANCH  18  22
ATOM     22  O   UNL     1       7.147   4.061  17.063  0.00  0.00    +0.000 OA
ATOM     23  H   UNL     1       7.785   4.505  16.484  0.00  0.00    +0.000 HD
ENDBRANCH  18  22
ENDBRANCH   1  18
TORSDOF 7
ENDMDL
MODEL 9
REMARK VINA RESULT:      -5.6      2.139      3.416
REMARK  Name = 
REMARK  11 active torsions:
REMARK  status: ('A' for Active; 'I' for Inactive)
REMARK    1  A    between atoms: C_1  and  C_2
REMARK    2  A    between atoms: C_2  and  C_3
REMARK    3  A    between atoms: C_2  and  C_4
REMARK    4  A    between atoms: C_4  and  O_5
REMARK    5  A    between atoms: C_4  and  C_6
REMARK    6  A    between atoms: C_7  and  C_8
REMARK    7  A    between atoms: C_8  and  O_10
REMARK    8  A    between atoms: C_14  and  C_15
REMARK    9  A    between atoms: C_15  and  C_16
REMARK   10  A    between atoms: C_15  and  O_17
REMARK   11  A    between atoms: C_19  and  C_20
REMARK                            x       y       z     vdW  Elec       q    Type
REMARK                         _______ _______ _______ _____ _____    ______ ____
ROOT
ATOM      1  C   UNL     1       4.081   6.065  17.522  0.00  0.00    +0.000 C 
ATOM      2  C   UNL     1       2.918   6.530  18.016  0.00  0.00    +0.000 C 
ATOM      3  N   UNL     1       2.006   5.515  18.260  0.00  0.00    +0.000 N 
ATOM      4  C   UNL     1       1.888   4.879  19.489  0.00  0.00    +0.000 C 
ATOM      5  O   UNL     1       1.950   5.288  20.619  0.00  0.00    +0.000 OA
ATOM      6  C   UNL     1       1.761   3.522  18.752  0.00  0.00    +0.000 C 
ATOM      7  C   UNL     1       2.603   4.258  17.658  0.00  0.00    +0.000 C 
ATOM      8  C   UNL     1       4.117   4.560  17.705  0.00  0.00    +0.000 C 
ATOM      9  C   UNL     1       4.905   3.678  16.758  0.00  0.00    +0.000 C 
ENDROOT
BRANCH   2  10
ATOM     10  C   UNL     1       2.525   7.956  18.157  0.00  0.00    +0.000 C 
ATOM     11  O   UNL     1       2.536   8.784  17.256  0.00  0.00    +0.000 OA
BRANCH  10  12
ATOM     12  O   UNL     1       2.144   8.262  19.419  0.00  0.00    +0.000 OA
ATOM     13  H   UNL     1       1.796   9.176  19.469  0.00  0.00    +0.000 HD
ENDBRANCH  10  12
ENDBRANCH   2  10
BRANCH   6  14
ATOM     14  C   UNL     1       2.292   2.229  19.337  0.00  0.00    +0.000 C 
ATOM     15  C   UNL     1       3.426   2.478  20.317  0.00  0.00    +0.000 C 
BRANCH  14  16
ATOM     16  O   UNL     1       2.721   1.333  18.323  0.00  0.00    +0.000 OA
ATOM     17  H   UNL     1       3.331   0.687  18.721  0.00  0.00    +0.000 HD
ENDBRANCH  14  16
ENDBRANCH   6  14
BRANCH   1  18
ATOM     18  C   UNL     1       5.172   6.854  16.877  0.00  0.00    +0.000 C 
BRANCH  18  20
ATOM     19  C   UNL     1       7.300   5.677  16.217  0.00  0.00    +0.000 C 
ATOM     20  C   UNL     1       6.605   6.485  17.320  0.00  0.00    +0.000 C 
ATOM     21  C   UNL     1       7.438   7.723  17.657  0.00  0.00    +0.000 C 
ENDBRANCH  18  20
BRANCH  18  22
ATOM     22  O   UNL     1       4.988   6.689  15.470  0.00  0.00    +0.000 OA
ATOM     23  H   UNL     1       4.435   7.413  15.136  0.00  0.00    +0.000 HD
ENDBRANCH  18  22
ENDBRANCH   1  18
TORSDOF 7
ENDMDL
