MODEL 1
REMARK VINA RESULT:      -7.2      0.000      0.000
REMARK  Name = 
REMARK  4 active torsions:
REMARK  status: ('A' for Active; 'I' for Inactive)
REMARK    1  A    between atoms: C_1  and  N_2
REMARK    2  A    between atoms: N_9  and  C_10
REMARK    3  A    between atoms: C_10  and  C_11
REMARK    4  A    between atoms: C_14  and  C_15
REMARK                            x       y       z     vdW  Elec       q    Type
REMARK                         _______ _______ _______ _____ _____    ______ ____
ROOT
ATOM      1  C   UNL     1       4.245   5.340  19.297  0.00  0.00    +0.000 A 
ATOM      2  C   UNL     1       3.379   4.491  19.958  0.00  0.00    +0.000 A 
ATOM      3  S   UNL     1       1.921   5.303  20.315  0.00  0.00    +0.000 S 
ATOM      4  C   UNL     1       2.564   6.765  19.659  0.00  0.00    +0.000 A 
ATOM      5  N   UNL     1       3.770   6.638  19.131  0.00  0.00    +0.000 NA
ENDROOT
BRANCH   4   6
ATOM      6  C   UNL     1       1.785   8.013  19.655  0.00  0.00    +0.000 A 
ATOM      7  C   UNL     1       1.143   8.436  20.834  0.00  0.00    +0.000 A 
ATOM      8  C   UNL     1       0.388   9.616  20.863  0.00  0.00    +0.000 A 
ATOM      9  C   UNL     1       0.255  10.391  19.713  0.00  0.00    +0.000 A 
ATOM     10  C   UNL     1       0.871   9.981  18.534  0.00  0.00    +0.000 A 
ATOM     11  C   UNL     1       1.619   8.804  18.511  0.00  0.00    +0.000 A 
ATOM     12  F   UNL     1       2.152   8.443  17.334  0.00  0.00    +0.000 F 
ENDBRANCH   4   6
BRANCH   1  13
ATOM     13  C   UNL     1       5.594   4.977  18.744  0.00  0.00    +0.000 C 
BRANCH  13  22
ATOM     14  C   UNL     1       5.880   3.358  12.251  0.00  0.00    +0.000 C 
ATOM     15  N   UNL     1       6.484   4.112  13.316  0.00  0.00    +0.000 N 
ATOM     16  C   UNL     1       7.569   4.943  13.210  0.00  0.00    +0.000 A 
ATOM     17  N   UNL     1       7.878   5.501  14.363  0.00  0.00    +0.000 NA
ATOM     18  C   UNL     1       6.945   5.020  15.246  0.00  0.00    +0.000 A 
ATOM     19  C   UNL     1       6.090   4.144  14.619  0.00  0.00    +0.000 A 
ATOM     20  C   UNL     1       4.978   3.443  15.295  0.00  0.00    +0.000 C 
ATOM     21  C   UNL     1       5.201   3.544  16.830  0.00  0.00    +0.000 C 
ATOM     22  N   UNL     1       5.559   4.919  17.272  0.00  0.00    +0.000 NA
ATOM     23  C   UNL     1       6.881   5.347  16.704  0.00  0.00    +0.000 C 
ENDBRANCH  13  22
ENDBRANCH   1  13
TORSDOF 3
ENDMDL
MODEL 2
REMARK VINA RESULT:      -7.1      0.974      1.395
REMARK  Name = 
REMARK  4 active torsions:
REMARK  status: ('A' for Active; 'I' for Inactive)
REMARK    1  A    between atoms: C_1  and  N_2
REMARK    2  A    between atoms: N_9  and  C_10
REMARK    3  A    between atoms: C_10  and  C_11
REMARK    4  A    between atoms: C_14  and  C_15
REMARK                            x       y       z     vdW  Elec       q    Type
REMARK                         _______ _______ _______ _____ _____    ______ ____
ROOT
ATOM      1  C   UNL     1       4.278   5.450  19.212  0.00  0.00    +0.000 A 
ATOM      2  C   UNL     1       3.431   4.609  19.906  0.00  0.00    +0.000 A 
ATOM      3  S   UNL     1       1.956   5.400  20.233  0.00  0.00    +0.000 S 
ATOM      4  C   UNL     1       2.564   6.849  19.518  0.00  0.00    +0.000 A 
ATOM      5  N   UNL     1       3.772   6.729  18.995  0.00  0.00    +0.000 NA
ENDROOT
BRANCH   4   6
ATOM      6  C   UNL     1       1.756   8.078  19.466  0.00  0.00    +0.000 A 
ATOM      7  C   UNL     1       1.564   8.733  18.236  0.00  0.00    +0.000 A 
ATOM      8  C   UNL     1       0.807   9.909  18.153  0.00  0.00    +0.000 A 
ATOM      9  C   UNL     1       0.234  10.455  19.298  0.00  0.00    +0.000 A 
ATOM     10  C   UNL     1       0.424   9.830  20.526  0.00  0.00    +0.000 A 
ATOM     11  C   UNL     1       1.182   8.661  20.604  0.00  0.00    +0.000 A 
ATOM     12  F   UNL     1       1.362   8.129  21.822  0.00  0.00    +0.000 F 
ENDBRANCH   4   6
BRANCH   1  13
ATOM     13  C   UNL     1       5.634   5.097  18.672  0.00  0.00    +0.000 C 
BRANCH  13  22
ATOM     14  C   UNL     1       5.946   3.359  12.211  0.00  0.00    +0.000 C 
ATOM     15  N   UNL     1       6.550   4.128  13.266  0.00  0.00    +0.000 N 
ATOM     16  C   UNL     1       7.642   4.947  13.151  0.00  0.00    +0.000 A 
ATOM     17  N   UNL     1       7.948   5.524  14.296  0.00  0.00    +0.000 NA
ATOM     18  C   UNL     1       7.006   5.066  15.182  0.00  0.00    +0.000 A 
ATOM     19  C   UNL     1       6.148   4.186  14.565  0.00  0.00    +0.000 A 
ATOM     20  C   UNL     1       5.026   3.506  15.247  0.00  0.00    +0.000 C 
ATOM     21  C   UNL     1       5.241   3.633  16.781  0.00  0.00    +0.000 C 
ATOM     22  N   UNL     1       5.608   5.013  17.200  0.00  0.00    +0.000 NA
ATOM     23  C   UNL     1       6.937   5.420  16.633  0.00  0.00    +0.000 C 
ENDBRANCH  13  22
ENDBRANCH   1  13
TORSDOF 3
ENDMDL
MODEL 3
REMARK VINA RESULT:      -7.0      2.451      7.725
REMARK  Name = 
REMARK  4 active torsions:
REMARK  status: ('A' for Active; 'I' for Inactive)
REMARK    1  A    between atoms: C_1  and  N_2
REMARK    2  A    between atoms: N_9  and  C_10
REMARK    3  A    between atoms: C_10  and  C_11
REMARK    4  A    between atoms: C_14  and  C_15
REMARK                            x       y       z     vdW  Elec       q    Type
REMARK                         _______ _______ _______ _____ _____    ______ ____
ROOT
ATOM      1  C   UNL     1       4.873   4.562  17.834  0.00  0.00    +0.000 A 
ATOM      2  C   UNL     1       6.138   4.735  18.359  0.00  0.00    +0.000 A 
ATOM      3  S   UNL     1       7.293   4.783  17.104  0.00  0.00    +0.000 S 
ATOM      4  C   UNL     1       6.056   4.471  15.941  0.00  0.00    +0.000 A 
ATOM      5  N   UNL     1       4.837   4.412  16.450  0.00  0.00    +0.000 NA
ENDROOT
BRANCH   4   6
ATOM      6  C   UNL     1       6.363   4.343  14.508  0.00  0.00    +0.000 A 
ATOM      7  C   UNL     1       5.630   3.439  13.718  0.00  0.00    +0.000 A 
ATOM      8  C   UNL     1       5.902   3.287  12.351  0.00  0.00    +0.000 A 
ATOM      9  C   UNL     1       6.915   4.031  11.752  0.00  0.00    +0.000 A 
ATOM     10  C   UNL     1       7.660   4.920  12.521  0.00  0.00    +0.000 A 
ATOM     11  C   UNL     1       7.387   5.065  13.881  0.00  0.00    +0.000 A 
ATOM     12  F   UNL     1       8.168   5.907  14.575  0.00  0.00    +0.000 F 
ENDBRANCH   4   6
BRANCH   1  13
ATOM     13  C   UNL     1       3.585   4.550  18.606  0.00  0.00    +0.000 C 
BRANCH  13  22
ATOM     14  C   UNL     1       0.628  10.183  20.703  0.00  0.00    +0.000 C 
ATOM     15  N   UNL     1       1.254   9.509  19.597  0.00  0.00    +0.000 N 
ATOM     16  C   UNL     1       1.479  10.030  18.350  0.00  0.00    +0.000 A 
ATOM     17  N   UNL     1       2.082   9.168  17.556  0.00  0.00    +0.000 NA
ATOM     18  C   UNL     1       2.265   8.050  18.329  0.00  0.00    +0.000 A 
ATOM     19  C   UNL     1       1.739   8.237  19.586  0.00  0.00    +0.000 A 
ATOM     20  C   UNL     1       1.764   7.217  20.655  0.00  0.00    +0.000 C 
ATOM     21  C   UNL     1       2.089   5.842  20.009  0.00  0.00    +0.000 C 
ATOM     22  N   UNL     1       3.228   5.909  19.052  0.00  0.00    +0.000 NA
ATOM     23  C   UNL     1       2.896   6.774  17.871  0.00  0.00    +0.000 C 
ENDBRANCH  13  22
ENDBRANCH   1  13
TORSDOF 3
ENDMDL
MODEL 4
REMARK VINA RESULT:      -6.9      3.348      7.665
REMARK  Name = 
REMARK  4 active torsions:
REMARK  status: ('A' for Active; 'I' for Inactive)
REMARK    1  A    between atoms: C_1  and  N_2
REMARK    2  A    between atoms: N_9  and  C_10
REMARK    3  A    between atoms: C_10  and  C_11
REMARK    4  A    between atoms: C_14  and  C_15
REMARK                            x       y       z     vdW  Elec       q    Type
REMARK                         _______ _______ _______ _____ _____    ______ ____
ROOT
ATOM      1  C   UNL     1       5.135   6.150  16.997  0.00  0.00    +0.000 A 
ATOM      2  C   UNL     1       6.259   5.696  17.658  0.00  0.00    +0.000 A 
ATOM      3  S   UNL     1       7.284   4.870  16.573  0.00  0.00    +0.000 S 
ATOM      4  C   UNL     1       6.128   5.077  15.308  0.00  0.00    +0.000 A 
ATOM      5  N   UNL     1       5.070   5.790  15.653  0.00  0.00    +0.000 NA
ENDROOT
BRANCH   4   6
ATOM      6  C   UNL     1       6.361   4.538  13.958  0.00  0.00    +0.000 A 
ATOM      7  C   UNL     1       5.489   3.564  13.438  0.00  0.00    +0.000 A 
ATOM      8  C   UNL     1       5.687   3.025  12.160  0.00  0.00    +0.000 A 
ATOM      9  C   UNL     1       6.762   3.445  11.382  0.00  0.00    +0.000 A 
ATOM     10  C   UNL     1       7.643   4.398  11.884  0.00  0.00    +0.000 A 
ATOM     11  C   UNL     1       7.443   4.929  13.159  0.00  0.00    +0.000 A 
ATOM     12  F   UNL     1       8.351   5.812  13.601  0.00  0.00    +0.000 F 
ENDBRANCH   4   6
BRANCH   1  13
ATOM     13  C   UNL     1       4.037   6.988  17.584  0.00  0.00    +0.000 C 
BRANCH  13  22
ATOM     14  C   UNL     1       1.128   2.566  21.689  0.00  0.00    +0.000 C 
ATOM     15  N   UNL     1       1.326   2.968  20.323  0.00  0.00    +0.000 N 
ATOM     16  C   UNL     1       0.783   2.375  19.214  0.00  0.00    +0.000 A 
ATOM     17  N   UNL     1       1.145   2.981  18.101  0.00  0.00    +0.000 NA
ATOM     18  C   UNL     1       1.945   4.016  18.512  0.00  0.00    +0.000 A 
ATOM     19  C   UNL     1       2.085   4.009  19.881  0.00  0.00    +0.000 A 
ATOM     20  C   UNL     1       2.893   4.988  20.637  0.00  0.00    +0.000 C 
ATOM     21  C   UNL     1       3.834   5.718  19.639  0.00  0.00    +0.000 C 
ATOM     22  N   UNL     1       3.130   6.166  18.406  0.00  0.00    +0.000 NA
ATOM     23  C   UNL     1       2.626   4.996  17.611  0.00  0.00    +0.000 C 
ENDBRANCH  13  22
ENDBRANCH   1  13
TORSDOF 3
ENDMDL
MODEL 5
REMARK VINA RESULT:      -6.9      4.271      8.456
REMARK  Name = 
REMARK  4 active torsions:
REMARK  status: ('A' for Active; 'I' for Inactive)
REMARK    1  A    between atoms: C_1  and  N_2
REMARK    2  A    between atoms: N_9  and  C_10
REMARK    3  A    between atoms: C_10  and  C_11
REMARK    4  A    between atoms: C_14  and  C_15
REMARK                            x       y       z     vdW  Elec       q    Type
REMARK                         _______ _______ _______ _____ _____    ______ ____
ROOT
ATOM      1  C   UNL     1       2.406   8.215  17.970  0.00  0.00    +0.000 A 
ATOM      2  C   UNL     1       3.643   7.836  17.488  0.00  0.00    +0.000 A 
ATOM      3  S   UNL     1       3.972   6.220  17.922  0.00  0.00    +0.000 S 
ATOM      4  C   UNL     1       2.494   6.148  18.811  0.00  0.00    +0.000 A 
ATOM      5  N   UNL     1       1.757   7.242  18.726  0.00  0.00    +0.000 NA
ENDROOT
BRANCH   4   6
ATOM      6  C   UNL     1       2.095   4.936  19.544  0.00  0.00    +0.000 A 
ATOM      7  C   UNL     1       2.467   4.785  20.893  0.00  0.00    +0.000 A 
ATOM      8  C   UNL     1       2.110   3.640  21.617  0.00  0.00    +0.000 A 
ATOM      9  C   UNL     1       1.382   2.622  21.005  0.00  0.00    +0.000 A 
ATOM     10  C   UNL     1       1.017   2.747  19.668  0.00  0.00    +0.000 A 
ATOM     11  C   UNL     1       1.378   3.888  18.951  0.00  0.00    +0.000 A 
ATOM     12  F   UNL     1       1.033   3.929  17.655  0.00  0.00    +0.000 F 
ENDBRANCH   4   6
BRANCH   1  13
ATOM     13  C   UNL     1       1.725   9.532  17.730  0.00  0.00    +0.000 C 
BRANCH  13  22
ATOM     14  C   UNL     1      -1.143  12.708  22.882  0.00  0.00    +0.000 C 
ATOM     15  N   UNL     1      -0.166  12.791  21.829  0.00  0.00    +0.000 N 
ATOM     16  C   UNL     1       0.671  13.845  21.578  0.00  0.00    +0.000 A 
ATOM     17  N   UNL     1       1.460  13.615  20.548  0.00  0.00    +0.000 NA
ATOM     18  C   UNL     1       1.126  12.353  20.127  0.00  0.00    +0.000 A 
ATOM     19  C   UNL     1       0.107  11.839  20.895  0.00  0.00    +0.000 A 
ATOM     20  C   UNL     1      -0.490  10.502  20.693  0.00  0.00    +0.000 C 
ATOM     21  C   UNL     1      -0.077   9.992  19.284  0.00  0.00    +0.000 C 
ATOM     22  N   UNL     1       1.373  10.182  19.005  0.00  0.00    +0.000 NA
ATOM     23  C   UNL     1       1.734  11.638  18.963  0.00  0.00    +0.000 C 
ENDBRANCH  13  22
ENDBRANCH   1  13
TORSDOF 3
ENDMDL
MODEL 6
REMARK VINA RESULT:      -6.9      3.996      8.431
REMARK  Name = 
REMARK  4 active torsions:
REMARK  status: ('A' for Active; 'I' for Inactive)
REMARK    1  A    between atoms: C_1  and  N_2
REMARK    2  A    between atoms: N_9  and  C_10
REMARK    3  A    between atoms: C_10  and  C_11
REMARK    4  A    between atoms: C_14  and  C_15
REMARK                            x       y       z     vdW  Elec       q    Type
REMARK                         _______ _______ _______ _____ _____    ______ ____
ROOT
ATOM      1  C   UNL     1       2.477   8.140  17.861  0.00  0.00    +0.000 A 
ATOM      2  C   UNL     1       3.813   7.929  17.584  0.00  0.00    +0.000 A 
ATOM      3  S   UNL     1       4.192   6.274  17.751  0.00  0.00    +0.000 S 
ATOM      4  C   UNL     1       2.580   5.948  18.278  0.00  0.00    +0.000 A 
ATOM      5  N   UNL     1       1.781   7.000  18.257  0.00  0.00    +0.000 NA
ENDROOT
BRANCH   4   6
ATOM      6  C   UNL     1       2.155   4.591  18.658  0.00  0.00    +0.000 A 
ATOM      7  C   UNL     1       2.371   3.521  17.772  0.00  0.00    +0.000 A 
ATOM      8  C   UNL     1       1.971   2.218  18.099  0.00  0.00    +0.000 A 
ATOM      9  C   UNL     1       1.344   1.964  19.317  0.00  0.00    +0.000 A 
ATOM     10  C   UNL     1       1.110   3.012  20.201  0.00  0.00    +0.000 A 
ATOM     11  C   UNL     1       1.506   4.308  19.867  0.00  0.00    +0.000 A 
ATOM     12  F   UNL     1       1.215   5.280  20.744  0.00  0.00    +0.000 F 
ENDBRANCH   4   6
BRANCH   1  13
ATOM     13  C   UNL     1       1.742   9.444  17.747  0.00  0.00    +0.000 C 
BRANCH  13  22
ATOM     14  C   UNL     1      -1.863  11.547  22.986  0.00  0.00    +0.000 C 
ATOM     15  N   UNL     1      -0.825  10.659  22.536  0.00  0.00    +0.000 N 
ATOM     16  C   UNL     1      -0.148   9.746  23.302  0.00  0.00    +0.000 A 
ATOM     17  N   UNL     1       0.738   9.072  22.599  0.00  0.00    +0.000 NA
ATOM     18  C   UNL     1       0.619   9.562  21.323  0.00  0.00    +0.000 A 
ATOM     19  C   UNL     1      -0.328  10.558  21.273  0.00  0.00    +0.000 A 
ATOM     20  C   UNL     1      -0.688  11.299  20.046  0.00  0.00    +0.000 C 
ATOM     21  C   UNL     1       0.423  11.056  18.986  0.00  0.00    +0.000 C 
ATOM     22  N   UNL     1       0.810   9.623  18.875  0.00  0.00    +0.000 NA
ATOM     23  C   UNL     1       1.433   9.126  20.147  0.00  0.00    +0.000 C 
ENDBRANCH  13  22
ENDBRANCH   1  13
TORSDOF 3
ENDMDL
MODEL 7
REMARK VINA RESULT:      -6.9      3.965      9.049
REMARK  Name = 
REMARK  4 active torsions:
REMARK  status: ('A' for Active; 'I' for Inactive)
REMARK    1  A    between atoms: C_1  and  N_2
REMARK    2  A    between atoms: N_9  and  C_10
REMARK    3  A    between atoms: C_10  and  C_11
REMARK    4  A    between atoms: C_14  and  C_15
REMARK                            x       y       z     vdW  Elec       q    Type
REMARK                         _______ _______ _______ _____ _____    ______ ____
ROOT
ATOM      1  C   UNL     1       1.457   8.925  19.088  0.00  0.00    +0.000 A 
ATOM      2  C   UNL     1       1.374   8.342  20.337  0.00  0.00    +0.000 A 
ATOM      3  S   UNL     1       2.180   6.839  20.338  0.00  0.00    +0.000 S 
ATOM      4  C   UNL     1       2.510   7.003  18.652  0.00  0.00    +0.000 A 
ATOM      5  N   UNL     1       2.109   8.151  18.131  0.00  0.00    +0.000 NA
ENDROOT
BRANCH   4   6
ATOM      6  C   UNL     1       3.226   5.958  17.903  0.00  0.00    +0.000 A 
ATOM      7  C   UNL     1       2.673   4.668  17.807  0.00  0.00    +0.000 A 
ATOM      8  C   UNL     1       3.332   3.648  17.108  0.00  0.00    +0.000 A 
ATOM      9  C   UNL     1       4.559   3.898  16.498  0.00  0.00    +0.000 A 
ATOM     10  C   UNL     1       5.129   5.164  16.594  0.00  0.00    +0.000 A 
ATOM     11  C   UNL     1       4.469   6.174  17.294  0.00  0.00    +0.000 A 
ATOM     12  F   UNL     1       5.090   7.360  17.385  0.00  0.00    +0.000 F 
ENDBRANCH   4   6
BRANCH   1  13
ATOM     13  C   UNL     1       0.944  10.283  18.705  0.00  0.00    +0.000 C 
BRANCH  13  22
ATOM     14  C   UNL     1      -5.654  11.146  17.940  0.00  0.00    +0.000 C 
ATOM     15  N   UNL     1      -4.467  11.591  18.621  0.00  0.00    +0.000 N 
ATOM     16  C   UNL     1      -4.397  12.573  19.574  0.00  0.00    +0.000 A 
ATOM     17  N   UNL     1      -3.168  12.744  20.017  0.00  0.00    +0.000 NA
ATOM     18  C   UNL     1      -2.417  11.825  19.329  0.00  0.00    +0.000 A 
ATOM     19  C   UNL     1      -3.203  11.119  18.447  0.00  0.00    +0.000 A 
ATOM     20  C   UNL     1      -2.695  10.061  17.549  0.00  0.00    +0.000 C 
ATOM     21  C   UNL     1      -1.146  10.179  17.484  0.00  0.00    +0.000 C 
ATOM     22  N   UNL     1      -0.523  10.343  18.826  0.00  0.00    +0.000 NA
ATOM     23  C   UNL     1      -0.940  11.636  19.465  0.00  0.00    +0.000 C 
ENDBRANCH  13  22
ENDBRANCH   1  13
TORSDOF 3
ENDMDL
MODEL 8
REMARK VINA RESULT:      -6.8      3.926      8.989
REMARK  Name = 
REMARK  4 active torsions:
REMARK  status: ('A' for Active; 'I' for Inactive)
REMARK    1  A    between atoms: C_1  and  N_2
REMARK    2  A    between atoms: N_9  and  C_10
REMARK    3  A    between atoms: C_10  and  C_11
REMARK    4  A    between atoms: C_14  and  C_15
REMARK                            x       y       z     vdW  Elec       q    Type
REMARK                         _______ _______ _______ _____ _____    ______ ____
ROOT
ATOM      1  C   UNL     1       1.435   8.769  19.777  0.00  0.00    +0.000 A 
ATOM      2  C   UNL     1       1.235   7.998  20.905  0.00  0.00    +0.000 A 
ATOM      3  S   UNL     1       1.966   6.469  20.708  0.00  0.00    +0.000 S 
ATOM      4  C   UNL     1       2.421   6.884  19.095  0.00  0.00    +0.000 A 
ATOM      5  N   UNL     1       2.114   8.122  18.748  0.00  0.00    +0.000 NA
ENDROOT
BRANCH   4   6
ATOM      6  C   UNL     1       3.137   5.933  18.230  0.00  0.00    +0.000 A 
ATOM      7  C   UNL     1       4.384   6.290  17.686  0.00  0.00    +0.000 A 
ATOM      8  C   UNL     1       5.088   5.411  16.853  0.00  0.00    +0.000 A 
ATOM      9  C   UNL     1       4.555   4.163  16.542  0.00  0.00    +0.000 A 
ATOM     10  C   UNL     1       3.316   3.797  17.059  0.00  0.00    +0.000 A 
ATOM     11  C   UNL     1       2.618   4.678  17.885  0.00  0.00    +0.000 A 
ATOM     12  F   UNL     1       1.410   4.283  18.317  0.00  0.00    +0.000 F 
ENDBRANCH   4   6
BRANCH   1  13
ATOM     13  C   UNL     1       1.016  10.199  19.593  0.00  0.00    +0.000 C 
BRANCH  13  22
ATOM     14  C   UNL     1      -5.235  11.332  17.471  0.00  0.00    +0.000 C 
ATOM     15  N   UNL     1      -4.221  11.688  18.427  0.00  0.00    +0.000 N 
ATOM     16  C   UNL     1      -4.347  12.596  19.445  0.00  0.00    +0.000 A 
ATOM     17  N   UNL     1      -3.243  12.694  20.158  0.00  0.00    +0.000 NA
ATOM     18  C   UNL     1      -2.374  11.802  19.583  0.00  0.00    +0.000 A 
ATOM     19  C   UNL     1      -2.957  11.188  18.499  0.00  0.00    +0.000 A 
ATOM     20  C   UNL     1      -2.280  10.181  17.654  0.00  0.00    +0.000 C 
ATOM     21  C   UNL     1      -0.754  10.252  17.939  0.00  0.00    +0.000 C 
ATOM     22  N   UNL     1      -0.441  10.299  19.394  0.00  0.00    +0.000 NA
ATOM     23  C   UNL     1      -0.967  11.556  20.024  0.00  0.00    +0.000 C 
ENDBRANCH  13  22
ENDBRANCH   1  13
TORSDOF 3
ENDMDL
MODEL 9
REMARK VINA RESULT:      -6.8      2.216      3.027
REMARK  Name = 
REMARK  4 active torsions:
REMARK  status: ('A' for Active; 'I' for Inactive)
REMARK    1  A    between atoms: C_1  and  N_2
REMARK    2  A    between atoms: N_9  and  C_10
REMARK    3  A    between atoms: C_10  and  C_11
REMARK    4  A    between atoms: C_14  and  C_15
REMARK                            x       y       z     vdW  Elec       q    Type
REMARK                         _______ _______ _______ _____ _____    ______ ____
ROOT
ATOM      1  C   UNL     1       2.359   7.495  19.000  0.00  0.00    +0.000 A 
ATOM      2  C   UNL     1       2.123   8.221  17.849  0.00  0.00    +0.000 A 
ATOM      3  S   UNL     1       1.263   9.647  18.220  0.00  0.00    +0.000 S 
ATOM      4  C   UNL     1       1.167   9.169  19.876  0.00  0.00    +0.000 A 
ATOM      5  N   UNL     1       1.808   8.047  20.154  0.00  0.00    +0.000 NA
ENDROOT
BRANCH   4   6
ATOM      6  C   UNL     1       0.470   9.995  20.875  0.00  0.00    +0.000 A 
ATOM      7  C   UNL     1       0.629  11.392  20.856  0.00  0.00    +0.000 A 
ATOM      8  C   UNL     1      -0.015  12.207  21.797  0.00  0.00    +0.000 A 
ATOM      9  C   UNL     1      -0.823  11.638  22.778  0.00  0.00    +0.000 A 
ATOM     10  C   UNL     1      -0.982  10.256  22.822  0.00  0.00    +0.000 A 
ATOM     11  C   UNL     1      -0.335   9.450  21.884  0.00  0.00    +0.000 A 
ATOM     12  F   UNL     1      -0.496   8.124  22.006  0.00  0.00    +0.000 F 
ENDBRANCH   4   6
BRANCH   1  13
ATOM     13  C   UNL     1       3.153   6.225  19.102  0.00  0.00    +0.000 C 
BRANCH  13  22
ATOM     14  C   UNL     1       6.193   3.423  13.832  0.00  0.00    +0.000 C 
ATOM     15  N   UNL     1       6.317   4.359  14.918  0.00  0.00    +0.000 N 
ATOM     16  C   UNL     1       7.404   5.147  15.191  0.00  0.00    +0.000 A 
ATOM     17  N   UNL     1       7.208   5.909  16.248  0.00  0.00    +0.000 NA
ATOM     18  C   UNL     1       5.937   5.607  16.667  0.00  0.00    +0.000 A 
ATOM     19  C   UNL     1       5.382   4.634  15.867  0.00  0.00    +0.000 A 
ATOM     20  C   UNL     1       4.025   4.080  16.058  0.00  0.00    +0.000 C 
ATOM     21  C   UNL     1       3.538   4.463  17.484  0.00  0.00    +0.000 C 
ATOM     22  N   UNL     1       3.783   5.894  17.811  0.00  0.00    +0.000 NA
ATOM     23  C   UNL     1       5.252   6.200  17.856  0.00  0.00    +0.000 C 
ENDBRANCH  13  22
ENDBRANCH   1  13
TORSDOF 3
ENDMDL
