MODEL 1
REMARK VINA RESULT:      -9.4      0.000      0.000
REMARK  Name = 
REMARK  11 active torsions:
REMARK  status: ('A' for Active; 'I' for Inactive)
REMARK    1  A    between atoms: C_1  and  C_2
REMARK    2  A    between atoms: N_4  and  C_5
REMARK    3  A    between atoms: C_11  and  C_12
REMARK    4  A    between atoms: C_13  and  C_14
REMARK    5  A    between atoms: C_14  and  O_16
REMARK    6  A    between atoms: O_16  and  N_17
REMARK    7  A    between atoms: C_18  and  C_20
REMARK    8  A    between atoms: C_23  and  C_24
REMARK    9  A    between atoms: C_24  and  C_25
REMARK   10  A    between atoms: C_24  and  C_26
REMARK   11  A    between atoms: C_24  and  C_27
REMARK                            x       y       z     vdW  Elec       q    Type
REMARK                         _______ _______ _______ _____ _____    ______ ____
ROOT
ATOM      1  O   UNL     1       7.310   7.180  16.630  0.00  0.00    +0.000 OA
ENDROOT
BRANCH   1   2
ATOM      2  N   UNL     1       7.346   8.474  17.164  0.00  0.00    +0.000 N 
ATOM      3  C   UNL     1       8.225   8.622  18.215  0.00  0.00    +0.000 C 
ATOM      4  N   UNL     1       8.593   7.618  18.960  0.00  0.00    +0.000 NA
ATOM      5  H   UNL     1       7.446   9.174  16.429  0.00  0.00    +0.000 HD
ATOM      6  H   UNL     1       8.080   6.796  18.630  0.00  0.00    +0.000 HD
BRANCH   3   7
ATOM      7  C   UNL     1       8.749   9.984  18.499  0.00  0.00    +0.000 A 
ATOM      8  C   UNL     1       8.444  11.038  17.633  0.00  0.00    +0.000 A 
ATOM      9  C   UNL     1       8.934  12.322  17.878  0.00  0.00    +0.000 A 
ATOM     10  C   UNL     1       9.740  12.594  18.993  0.00  0.00    +0.000 A 
ATOM     11  C   UNL     1      10.042  11.517  19.851  0.00  0.00    +0.000 A 
ATOM     12  C   UNL     1       9.548  10.225  19.614  0.00  0.00    +0.000 A 
BRANCH  10  13
ATOM     13  C   UNL     1      10.250  14.013  19.306  0.00  0.00    +0.000 C 
ATOM     14  C   UNL     1       9.458  14.716  20.433  0.00  0.00    +0.000 C 
ATOM     15  C   UNL     1      11.725  13.943  19.759  0.00  0.00    +0.000 C 
ATOM     16  C   UNL     1      10.148  14.906  18.052  0.00  0.00    +0.000 C 
ENDBRANCH  10  13
ENDBRANCH   3   7
ENDBRANCH   1   2
BRANCH   1  17
ATOM     17  C   UNL     1       6.018   6.742  16.467  0.00  0.00    +0.000 C 
ATOM     18  O   UNL     1       5.326   7.019  15.492  0.00  0.00    +0.000 OA
BRANCH  17  25
ATOM     19  C   UNL     1       7.801   4.366  17.829  0.00  0.00    +0.000 C 
ATOM     20  C   UNL     1       6.381   4.740  18.079  0.00  0.00    +0.000 A 
ATOM     21  N   UNL     1       5.656   4.054  18.968  0.00  0.00    +0.000 NA
ATOM     22  N   UNL     1       4.389   4.530  18.836  0.00  0.00    +0.000 N 
ATOM     23  C   UNL     1       4.362   5.665  18.038  0.00  0.00    +0.000 A 
ATOM     24  C   UNL     1       3.202   6.588  17.882  0.00  0.00    +0.000 C 
ATOM     25  C   UNL     1       5.626   5.779  17.478  0.00  0.00    +0.000 A 
BRANCH  22  26
ATOM     26  C   UNL     1       3.310   3.876  19.496  0.00  0.00    +0.000 A 
ATOM     27  C   UNL     1       2.861   4.367  20.729  0.00  0.00    +0.000 A 
ATOM     28  C   UNL     1       1.717   3.821  21.314  0.00  0.00    +0.000 A 
ATOM     29  C   UNL     1       1.046   2.766  20.696  0.00  0.00    +0.000 A 
ATOM     30  C   UNL     1       1.540   2.222  19.512  0.00  0.00    +0.000 A 
ATOM     31  C   UNL     1       2.680   2.766  18.921  0.00  0.00    +0.000 A 
ENDBRANCH  22  26
ENDBRANCH  17  25
ENDBRANCH   1  17
TORSDOF 6
ENDMDL
MODEL 2
REMARK VINA RESULT:      -9.3      0.462      1.415
REMARK  Name = 
REMARK  11 active torsions:
REMARK  status: ('A' for Active; 'I' for Inactive)
REMARK    1  A    between atoms: C_1  and  C_2
REMARK    2  A    between atoms: N_4  and  C_5
REMARK    3  A    between atoms: C_11  and  C_12
REMARK    4  A    between atoms: C_13  and  C_14
REMARK    5  A    between atoms: C_14  and  O_16
REMARK    6  A    between atoms: O_16  and  N_17
REMARK    7  A    between atoms: C_18  and  C_20
REMARK    8  A    between atoms: C_23  and  C_24
REMARK    9  A    between atoms: C_24  and  C_25
REMARK   10  A    between atoms: C_24  and  C_26
REMARK   11  A    between atoms: C_24  and  C_27
REMARK                            x       y       z     vdW  Elec       q    Type
REMARK                         _______ _______ _______ _____ _____    ______ ____
ROOT
ATOM      1  O   UNL     1       7.328   7.249  16.634  0.00  0.00    +0.000 OA
ENDROOT
BRANCH   1   2
ATOM      2  N   UNL     1       7.382   8.524  17.210  0.00  0.00    +0.000 N 
ATOM      3  C   UNL     1       8.250   8.622  18.276  0.00  0.00    +0.000 C 
ATOM      4  N   UNL     1       8.589   7.588  18.992  0.00  0.00    +0.000 NA
ATOM      5  H   UNL     1       7.505   9.246  16.499  0.00  0.00    +0.000 HD
ATOM      6  H   UNL     1       8.065   6.787  18.630  0.00  0.00    +0.000 HD
BRANCH   3   7
ATOM      7  C   UNL     1       8.796   9.964  18.611  0.00  0.00    +0.000 A 
ATOM      8  C   UNL     1       9.436  10.164  19.838  0.00  0.00    +0.000 A 
ATOM      9  C   UNL     1       9.947  11.419  20.174  0.00  0.00    +0.000 A 
ATOM     10  C   UNL     1       9.839  12.508  19.298  0.00  0.00    +0.000 A 
ATOM     11  C   UNL     1       9.186  12.288  18.069  0.00  0.00    +0.000 A 
ATOM     12  C   UNL     1       8.674  11.028  17.722  0.00  0.00    +0.000 A 
BRANCH  10  13
ATOM     13  C   UNL     1      10.440  13.886  19.631  0.00  0.00    +0.000 C 
ATOM     14  C   UNL     1       9.734  15.056  18.905  0.00  0.00    +0.000 C 
ATOM     15  C   UNL     1      10.317  14.150  21.148  0.00  0.00    +0.000 C 
ATOM     16  C   UNL     1      11.929  13.932  19.228  0.00  0.00    +0.000 C 
ENDBRANCH  10  13
ENDBRANCH   3   7
ENDBRANCH   1   2
BRANCH   1  17
ATOM     17  C   UNL     1       6.030   6.844  16.435  0.00  0.00    +0.000 C 
ATOM     18  O   UNL     1       5.380   7.117  15.431  0.00  0.00    +0.000 OA
BRANCH  17  25
ATOM     19  C   UNL     1       7.641   4.346  17.793  0.00  0.00    +0.000 C 
ATOM     20  C   UNL     1       6.256   4.827  18.054  0.00  0.00    +0.000 A 
ATOM     21  N   UNL     1       5.489   4.202  18.952  0.00  0.00    +0.000 NA
ATOM     22  N   UNL     1       4.261   4.772  18.830  0.00  0.00    +0.000 N 
ATOM     23  C   UNL     1       4.313   5.902  18.026  0.00  0.00    +0.000 A 
ATOM     24  C   UNL     1       3.224   6.909  17.877  0.00  0.00    +0.000 C 
ATOM     25  C   UNL     1       5.576   5.918  17.455  0.00  0.00    +0.000 A 
BRANCH  22  26
ATOM     26  C   UNL     1       3.142   4.204  19.502  0.00  0.00    +0.000 A 
ATOM     27  C   UNL     1       2.112   3.624  18.751  0.00  0.00    +0.000 A 
ATOM     28  C   UNL     1       1.082   2.942  19.402  0.00  0.00    +0.000 A 
ATOM     29  C   UNL     1       1.056   2.871  20.796  0.00  0.00    +0.000 A 
ATOM     30  C   UNL     1       2.035   3.519  21.546  0.00  0.00    +0.000 A 
ATOM     31  C   UNL     1       3.068   4.198  20.901  0.00  0.00    +0.000 A 
ENDBRANCH  22  26
ENDBRANCH  17  25
ENDBRANCH   1  17
TORSDOF 6
ENDMDL
MODEL 3
REMARK VINA RESULT:      -9.3      0.478      1.290
REMARK  Name = 
REMARK  11 active torsions:
REMARK  status: ('A' for Active; 'I' for Inactive)
REMARK    1  A    between atoms: C_1  and  C_2
REMARK    2  A    between atoms: N_4  and  C_5
REMARK    3  A    between atoms: C_11  and  C_12
REMARK    4  A    between atoms: C_13  and  C_14
REMARK    5  A    between atoms: C_14  and  O_16
REMARK    6  A    between atoms: O_16  and  N_17
REMARK    7  A    between atoms: C_18  and  C_20
REMARK    8  A    between atoms: C_23  and  C_24
REMARK    9  A    between atoms: C_24  and  C_25
REMARK   10  A    between atoms: C_24  and  C_26
REMARK   11  A    between atoms: C_24  and  C_27
REMARK                            x       y       z     vdW  Elec       q    Type
REMARK                         _______ _______ _______ _____ _____    ______ ____
ROOT
ATOM      1  O   UNL     1       7.355   7.189  16.637  0.00  0.00    +0.000 OA
ENDROOT
BRANCH   1   2
ATOM      2  N   UNL     1       7.362   8.479  17.182  0.00  0.00    +0.000 N 
ATOM      3  C   UNL     1       8.233   8.637  18.238  0.00  0.00    +0.000 C 
ATOM      4  N   UNL     1       8.620   7.635  18.975  0.00  0.00    +0.000 NA
ATOM      5  H   UNL     1       7.449   9.187  16.453  0.00  0.00    +0.000 HD
ATOM      6  H   UNL     1       8.126   6.805  18.637  0.00  0.00    +0.000 HD
BRANCH   3   7
ATOM      7  C   UNL     1       8.727  10.007  18.535  0.00  0.00    +0.000 A 
ATOM      8  C   UNL     1       8.481  11.044  17.630  0.00  0.00    +0.000 A 
ATOM      9  C   UNL     1       8.945  12.335  17.886  0.00  0.00    +0.000 A 
ATOM     10  C   UNL     1       9.665  12.632  19.053  0.00  0.00    +0.000 A 
ATOM     11  C   UNL     1       9.908  11.573  19.950  0.00  0.00    +0.000 A 
ATOM     12  C   UNL     1       9.439  10.274  19.701  0.00  0.00    +0.000 A 
BRANCH  10  13
ATOM     13  C   UNL     1      10.142  14.060  19.377  0.00  0.00    +0.000 C 
ATOM     14  C   UNL     1      11.272  14.557  18.444  0.00  0.00    +0.000 C 
ATOM     15  C   UNL     1       8.961  15.045  19.229  0.00  0.00    +0.000 C 
ATOM     16  C   UNL     1      10.680  14.129  20.822  0.00  0.00    +0.000 C 
ENDBRANCH  10  13
ENDBRANCH   3   7
ENDBRANCH   1   2
BRANCH   1  17
ATOM     17  C   UNL     1       6.072   6.740  16.429  0.00  0.00    +0.000 C 
ATOM     18  O   UNL     1       5.430   6.971  15.409  0.00  0.00    +0.000 OA
BRANCH  17  25
ATOM     19  C   UNL     1       7.738   4.326  17.870  0.00  0.00    +0.000 C 
ATOM     20  C   UNL     1       6.334   4.769  18.098  0.00  0.00    +0.000 A 
ATOM     21  N   UNL     1       5.573   4.140  18.998  0.00  0.00    +0.000 NA
ATOM     22  N   UNL     1       4.330   4.668  18.843  0.00  0.00    +0.000 N 
ATOM     23  C   UNL     1       4.359   5.781  18.014  0.00  0.00    +0.000 A 
ATOM     24  C   UNL     1       3.242   6.750  17.824  0.00  0.00    +0.000 C 
ATOM     25  C   UNL     1       5.631   5.824  17.463  0.00  0.00    +0.000 A 
BRANCH  22  26
ATOM     26  C   UNL     1       3.218   4.081  19.511  0.00  0.00    +0.000 A 
ATOM     27  C   UNL     1       2.351   3.245  18.796  0.00  0.00    +0.000 A 
ATOM     28  C   UNL     1       1.343   2.554  19.472  0.00  0.00    +0.000 A 
ATOM     29  C   UNL     1       1.174   2.725  20.846  0.00  0.00    +0.000 A 
ATOM     30  C   UNL     1       1.982   3.620  21.543  0.00  0.00    +0.000 A 
ATOM     31  C   UNL     1       2.993   4.309  20.874  0.00  0.00    +0.000 A 
ENDBRANCH  22  26
ENDBRANCH  17  25
ENDBRANCH   1  17
TORSDOF 6
ENDMDL
MODEL 4
REMARK VINA RESULT:      -9.0      1.072      1.497
REMARK  Name = 
REMARK  11 active torsions:
REMARK  status: ('A' for Active; 'I' for Inactive)
REMARK    1  A    between atoms: C_1  and  C_2
REMARK    2  A    between atoms: N_4  and  C_5
REMARK    3  A    between atoms: C_11  and  C_12
REMARK    4  A    between atoms: C_13  and  C_14
REMARK    5  A    between atoms: C_14  and  O_16
REMARK    6  A    between atoms: O_16  and  N_17
REMARK    7  A    between atoms: C_18  and  C_20
REMARK    8  A    between atoms: C_23  and  C_24
REMARK    9  A    between atoms: C_24  and  C_25
REMARK   10  A    between atoms: C_24  and  C_26
REMARK   11  A    between atoms: C_24  and  C_27
REMARK                            x       y       z     vdW  Elec       q    Type
REMARK                         _______ _______ _______ _____ _____    ______ ____
ROOT
ATOM      1  O   UNL     1       6.983   6.869  16.552  0.00  0.00    +0.000 OA
ENDROOT
BRANCH   1   2
ATOM      2  N   UNL     1       7.045   8.161  17.087  0.00  0.00    +0.000 N 
ATOM      3  C   UNL     1       8.000   8.319  18.068  0.00  0.00    +0.000 C 
ATOM      4  N   UNL     1       8.437   7.317  18.777  0.00  0.00    +0.000 NA
ATOM      5  H   UNL     1       7.078   8.865  16.349  0.00  0.00    +0.000 HD
ATOM      6  H   UNL     1       7.911   6.490  18.485  0.00  0.00    +0.000 HD
BRANCH   3   7
ATOM      7  C   UNL     1       8.527   9.686  18.316  0.00  0.00    +0.000 A 
ATOM      8  C   UNL     1       9.398   9.909  19.387  0.00  0.00    +0.000 A 
ATOM      9  C   UNL     1       9.896  11.188  19.642  0.00  0.00    +0.000 A 
ATOM     10  C   UNL     1       9.545  12.280  18.836  0.00  0.00    +0.000 A 
ATOM     11  C   UNL     1       8.662  12.037  17.765  0.00  0.00    +0.000 A 
ATOM     12  C   UNL     1       8.161  10.753  17.499  0.00  0.00    +0.000 A 
BRANCH  10  13
ATOM     13  C   UNL     1      10.123  13.688  19.071  0.00  0.00    +0.000 C 
ATOM     14  C   UNL     1       9.050  14.740  19.438  0.00  0.00    +0.000 C 
ATOM     15  C   UNL     1      11.134  13.642  20.238  0.00  0.00    +0.000 C 
ATOM     16  C   UNL     1      10.840  14.191  17.801  0.00  0.00    +0.000 C 
ENDBRANCH  10  13
ENDBRANCH   3   7
ENDBRANCH   1   2
BRANCH   1  17
ATOM     17  C   UNL     1       5.709   6.556  16.143  0.00  0.00    +0.000 C 
ATOM     18  O   UNL     1       5.164   7.069  15.171  0.00  0.00    +0.000 OA
BRANCH  17  25
ATOM     19  C   UNL     1       5.764   3.380  15.375  0.00  0.00    +0.000 C 
ATOM     20  C   UNL     1       5.160   4.053  16.559  0.00  0.00    +0.000 A 
ATOM     21  N   UNL     1       4.525   3.331  17.487  0.00  0.00    +0.000 NA
ATOM     22  N   UNL     1       3.961   4.242  18.323  0.00  0.00    +0.000 N 
ATOM     23  C   UNL     1       4.430   5.521  18.057  0.00  0.00    +0.000 A 
ATOM     24  C   UNL     1       4.227   6.716  18.924  0.00  0.00    +0.000 C 
ATOM     25  C   UNL     1       5.152   5.435  16.875  0.00  0.00    +0.000 A 
BRANCH  22  26
ATOM     26  C   UNL     1       3.036   3.819  19.318  0.00  0.00    +0.000 A 
ATOM     27  C   UNL     1       1.681   4.144  19.178  0.00  0.00    +0.000 A 
ATOM     28  C   UNL     1       0.747   3.615  20.072  0.00  0.00    +0.000 A 
ATOM     29  C   UNL     1       1.165   2.799  21.124  0.00  0.00    +0.000 A 
ATOM     30  C   UNL     1       2.521   2.544  21.313  0.00  0.00    +0.000 A 
ATOM     31  C   UNL     1       3.457   3.066  20.421  0.00  0.00    +0.000 A 
ENDBRANCH  22  26
ENDBRANCH  17  25
ENDBRANCH   1  17
TORSDOF 6
ENDMDL
MODEL 5
REMARK VINA RESULT:      -8.8      1.222      2.245
REMARK  Name = 
REMARK  11 active torsions:
REMARK  status: ('A' for Active; 'I' for Inactive)
REMARK    1  A    between atoms: C_1  and  C_2
REMARK    2  A    between atoms: N_4  and  C_5
REMARK    3  A    between atoms: C_11  and  C_12
REMARK    4  A    between atoms: C_13  and  C_14
REMARK    5  A    between atoms: C_14  and  O_16
REMARK    6  A    between atoms: O_16  and  N_17
REMARK    7  A    between atoms: C_18  and  C_20
REMARK    8  A    between atoms: C_23  and  C_24
REMARK    9  A    between atoms: C_24  and  C_25
REMARK   10  A    between atoms: C_24  and  C_26
REMARK   11  A    between atoms: C_24  and  C_27
REMARK                            x       y       z     vdW  Elec       q    Type
REMARK                         _______ _______ _______ _____ _____    ______ ____
ROOT
ATOM      1  O   UNL     1       6.575   6.867  16.842  0.00  0.00    +0.000 OA
ENDROOT
BRANCH   1   2
ATOM      2  N   UNL     1       6.775   8.157  17.348  0.00  0.00    +0.000 N 
ATOM      3  C   UNL     1       7.886   8.278  18.154  0.00  0.00    +0.000 C 
ATOM      4  N   UNL     1       8.395   7.261  18.790  0.00  0.00    +0.000 NA
ATOM      5  H   UNL     1       6.713   8.858  16.608  0.00  0.00    +0.000 HD
ATOM      6  H   UNL     1       7.795   6.455  18.597  0.00  0.00    +0.000 HD
BRANCH   3   7
ATOM      7  C   UNL     1       8.501   9.623  18.300  0.00  0.00    +0.000 A 
ATOM      8  C   UNL     1       9.494   9.831  19.262  0.00  0.00    +0.000 A 
ATOM      9  C   UNL     1      10.077  11.089  19.420  0.00  0.00    +0.000 A 
ATOM     10  C   UNL     1       9.690  12.176  18.623  0.00  0.00    +0.000 A 
ATOM     11  C   UNL     1       8.683  11.949  17.663  0.00  0.00    +0.000 A 
ATOM     12  C   UNL     1       8.097  10.685  17.495  0.00  0.00    +0.000 A 
BRANCH  10  13
ATOM     13  C   UNL     1      10.355  13.559  18.749  0.00  0.00    +0.000 C 
ATOM     14  C   UNL     1      11.006  14.050  17.434  0.00  0.00    +0.000 C 
ATOM     15  C   UNL     1       9.295  14.607  19.153  0.00  0.00    +0.000 C 
ATOM     16  C   UNL     1      11.465  13.522  19.821  0.00  0.00    +0.000 C 
ENDBRANCH  10  13
ENDBRANCH   3   7
ENDBRANCH   1   2
BRANCH   1  17
ATOM     17  C   UNL     1       5.370   6.767  16.189  0.00  0.00    +0.000 C 
ATOM     18  O   UNL     1       5.254   6.812  14.968  0.00  0.00    +0.000 OA
BRANCH  17  25
ATOM     19  C   UNL     1       3.150   8.741  17.550  0.00  0.00    +0.000 C 
ATOM     20  C   UNL     1       3.311   7.267  17.688  0.00  0.00    +0.000 A 
ATOM     21  N   UNL     1       2.474   6.574  18.466  0.00  0.00    +0.000 NA
ATOM     22  N   UNL     1       2.986   5.315  18.506  0.00  0.00    +0.000 N 
ATOM     23  C   UNL     1       4.004   5.160  17.575  0.00  0.00    +0.000 A 
ATOM     24  C   UNL     1       4.615   3.863  17.167  0.00  0.00    +0.000 C 
ATOM     25  C   UNL     1       4.281   6.428  17.085  0.00  0.00    +0.000 A 
BRANCH  22  26
ATOM     26  C   UNL     1       2.452   4.357  19.413  0.00  0.00    +0.000 A 
ATOM     27  C   UNL     1       2.846   4.391  20.757  0.00  0.00    +0.000 A 
ATOM     28  C   UNL     1       2.224   3.549  21.681  0.00  0.00    +0.000 A 
ATOM     29  C   UNL     1       1.242   2.650  21.263  0.00  0.00    +0.000 A 
ATOM     30  C   UNL     1       0.910   2.557  19.913  0.00  0.00    +0.000 A 
ATOM     31  C   UNL     1       1.525   3.398  18.987  0.00  0.00    +0.000 A 
ENDBRANCH  22  26
ENDBRANCH  17  25
ENDBRANCH   1  17
TORSDOF 6
ENDMDL
MODEL 6
REMARK VINA RESULT:      -8.6      5.472      7.639
REMARK  Name = 
REMARK  11 active torsions:
REMARK  status: ('A' for Active; 'I' for Inactive)
REMARK    1  A    between atoms: C_1  and  C_2
REMARK    2  A    between atoms: N_4  and  C_5
REMARK    3  A    between atoms: C_11  and  C_12
REMARK    4  A    between atoms: C_13  and  C_14
REMARK    5  A    between atoms: C_14  and  O_16
REMARK    6  A    between atoms: O_16  and  N_17
REMARK    7  A    between atoms: C_18  and  C_20
REMARK    8  A    between atoms: C_23  and  C_24
REMARK    9  A    between atoms: C_24  and  C_25
REMARK   10  A    between atoms: C_24  and  C_26
REMARK   11  A    between atoms: C_24  and  C_27
REMARK                            x       y       z     vdW  Elec       q    Type
REMARK                         _______ _______ _______ _____ _____    ______ ____
ROOT
ATOM      1  O   UNL     1       4.963   5.019  19.970  0.00  0.00    +0.000 OA
ENDROOT
BRANCH   1   2
ATOM      2  N   UNL     1       4.050   5.903  19.383  0.00  0.00    +0.000 N 
ATOM      3  C   UNL     1       2.888   6.070  20.103  0.00  0.00    +0.000 C 
ATOM      4  N   UNL     1       2.451   5.167  20.934  0.00  0.00    +0.000 NA
ATOM      5  H   UNL     1       4.505   6.775  19.108  0.00  0.00    +0.000 HD
ATOM      6  H   UNL     1       3.094   4.373  20.881  0.00  0.00    +0.000 HD
BRANCH   3   7
ATOM      7  C   UNL     1       2.115   7.324  19.901  0.00  0.00    +0.000 A 
ATOM      8  C   UNL     1       2.190   7.994  18.676  0.00  0.00    +0.000 A 
ATOM      9  C   UNL     1       1.480   9.178  18.470  0.00  0.00    +0.000 A 
ATOM     10  C   UNL     1       0.672   9.727  19.476  0.00  0.00    +0.000 A 
ATOM     11  C   UNL     1       0.614   9.041  20.706  0.00  0.00    +0.000 A 
ATOM     12  C   UNL     1       1.322   7.847  20.918  0.00  0.00    +0.000 A 
BRANCH  10  13
ATOM     13  C   UNL     1      -0.157  11.005  19.251  0.00  0.00    +0.000 C 
ATOM     14  C   UNL     1       0.683  12.201  18.742  0.00  0.00    +0.000 C 
ATOM     15  C   UNL     1      -1.250  10.732  18.195  0.00  0.00    +0.000 C 
ATOM     16  C   UNL     1      -0.827  11.446  20.569  0.00  0.00    +0.000 C 
ENDBRANCH  10  13
ENDBRANCH   3   7
ENDBRANCH   1   2
BRANCH   1  17
ATOM     17  C   UNL     1       5.014   3.827  19.290  0.00  0.00    +0.000 C 
ATOM     18  O   UNL     1       4.986   2.730  19.839  0.00  0.00    +0.000 OA
BRANCH  17  25
ATOM     19  C   UNL     1       2.402   3.549  17.346  0.00  0.00    +0.000 C 
ATOM     20  C   UNL     1       3.809   3.885  16.991  0.00  0.00    +0.000 A 
ATOM     21  N   UNL     1       4.140   4.115  15.717  0.00  0.00    +0.000 NA
ATOM     22  N   UNL     1       5.495   4.224  15.716  0.00  0.00    +0.000 N 
ATOM     23  C   UNL     1       5.991   4.293  17.010  0.00  0.00    +0.000 A 
ATOM     24  C   UNL     1       7.386   4.666  17.384  0.00  0.00    +0.000 C 
ATOM     25  C   UNL     1       4.928   4.004  17.853  0.00  0.00    +0.000 A 
BRANCH  22  26
ATOM     26  C   UNL     1       6.204   4.272  14.483  0.00  0.00    +0.000 A 
ATOM     27  C   UNL     1       5.819   3.424  13.437  0.00  0.00    +0.000 A 
ATOM     28  C   UNL     1       6.415   3.562  12.181  0.00  0.00    +0.000 A 
ATOM     29  C   UNL     1       7.417   4.511  11.979  0.00  0.00    +0.000 A 
ATOM     30  C   UNL     1       7.859   5.297  13.040  0.00  0.00    +0.000 A 
ATOM     31  C   UNL     1       7.264   5.167  14.295  0.00  0.00    +0.000 A 
ENDBRANCH  22  26
ENDBRANCH  17  25
ENDBRANCH   1  17
TORSDOF 6
ENDMDL
MODEL 7
REMARK VINA RESULT:      -8.5      4.075      7.333
REMARK  Name = 
REMARK  11 active torsions:
REMARK  status: ('A' for Active; 'I' for Inactive)
REMARK    1  A    between atoms: C_1  and  C_2
REMARK    2  A    between atoms: N_4  and  C_5
REMARK    3  A    between atoms: C_11  and  C_12
REMARK    4  A    between atoms: C_13  and  C_14
REMARK    5  A    between atoms: C_14  and  O_16
REMARK    6  A    between atoms: O_16  and  N_17
REMARK    7  A    between atoms: C_18  and  C_20
REMARK    8  A    between atoms: C_23  and  C_24
REMARK    9  A    between atoms: C_24  and  C_25
REMARK   10  A    between atoms: C_24  and  C_26
REMARK   11  A    between atoms: C_24  and  C_27
REMARK                            x       y       z     vdW  Elec       q    Type
REMARK                         _______ _______ _______ _____ _____    ______ ____
ROOT
ATOM      1  O   UNL     1       4.627   5.073  19.140  0.00  0.00    +0.000 OA
ENDROOT
BRANCH   1   2
ATOM      2  N   UNL     1       3.902   6.196  18.724  0.00  0.00    +0.000 N 
ATOM      3  C   UNL     1       2.649   6.296  19.286  0.00  0.00    +0.000 C 
ATOM      4  N   UNL     1       2.004   5.256  19.734  0.00  0.00    +0.000 NA
ATOM      5  H   UNL     1       4.465   7.045  18.793  0.00  0.00    +0.000 HD
ATOM      6  H   UNL     1       2.583   4.436  19.536  0.00  0.00    +0.000 HD
BRANCH   3   7
ATOM      7  C   UNL     1       2.024   7.643  19.365  0.00  0.00    +0.000 A 
ATOM      8  C   UNL     1       1.980   8.453  18.227  0.00  0.00    +0.000 A 
ATOM      9  C   UNL     1       1.405   9.724  18.283  0.00  0.00    +0.000 A 
ATOM     10  C   UNL     1       0.857  10.224  19.473  0.00  0.00    +0.000 A 
ATOM     11  C   UNL     1       0.917   9.395  20.611  0.00  0.00    +0.000 A 
ATOM     12  C   UNL     1       1.487   8.113  20.560  0.00  0.00    +0.000 A 
BRANCH  10  13
ATOM     13  C   UNL     1       0.176  11.603  19.542  0.00  0.00    +0.000 C 
ATOM     14  C   UNL     1       0.062  12.161  20.981  0.00  0.00    +0.000 C 
ATOM     15  C   UNL     1       0.993  12.624  18.720  0.00  0.00    +0.000 C 
ATOM     16  C   UNL     1      -1.255  11.522  18.970  0.00  0.00    +0.000 C 
ENDBRANCH  10  13
ENDBRANCH   3   7
ENDBRANCH   1   2
BRANCH   1  17
ATOM     17  C   UNL     1       5.980   5.306  19.098  0.00  0.00    +0.000 C 
ATOM     18  O   UNL     1       6.705   5.276  20.089  0.00  0.00    +0.000 OA
BRANCH  17  25
ATOM     19  C   UNL     1       7.845   7.650  17.791  0.00  0.00    +0.000 C 
ATOM     20  C   UNL     1       7.288   6.424  17.155  0.00  0.00    +0.000 A 
ATOM     21  N   UNL     1       7.531   6.172  15.865  0.00  0.00    +0.000 NA
ATOM     22  N   UNL     1       6.760   5.094  15.562  0.00  0.00    +0.000 N 
ATOM     23  C   UNL     1       6.214   4.532  16.708  0.00  0.00    +0.000 A 
ATOM     24  C   UNL     1       5.532   3.209  16.784  0.00  0.00    +0.000 C 
ATOM     25  C   UNL     1       6.483   5.416  17.742  0.00  0.00    +0.000 A 
BRANCH  22  26
ATOM     26  C   UNL     1       6.620   4.676  14.208  0.00  0.00    +0.000 A 
ATOM     27  C   UNL     1       7.579   5.069  13.267  0.00  0.00    +0.000 A 
ATOM     28  C   UNL     1       7.528   4.550  11.971  0.00  0.00    +0.000 A 
ATOM     29  C   UNL     1       6.505   3.676  11.603  0.00  0.00    +0.000 A 
ATOM     30  C   UNL     1       5.503   3.352  12.515  0.00  0.00    +0.000 A 
ATOM     31  C   UNL     1       5.551   3.864  13.811  0.00  0.00    +0.000 A 
ENDBRANCH  22  26
ENDBRANCH  17  25
ENDBRANCH   1  17
TORSDOF 6
ENDMDL
MODEL 8
REMARK VINA RESULT:      -8.3      5.060      7.590
REMARK  Name = 
REMARK  11 active torsions:
REMARK  status: ('A' for Active; 'I' for Inactive)
REMARK    1  A    between atoms: C_1  and  C_2
REMARK    2  A    between atoms: N_4  and  C_5
REMARK    3  A    between atoms: C_11  and  C_12
REMARK    4  A    between atoms: C_13  and  C_14
REMARK    5  A    between atoms: C_14  and  O_16
REMARK    6  A    between atoms: O_16  and  N_17
REMARK    7  A    between atoms: C_18  and  C_20
REMARK    8  A    between atoms: C_23  and  C_24
REMARK    9  A    between atoms: C_24  and  C_25
REMARK   10  A    between atoms: C_24  and  C_26
REMARK   11  A    between atoms: C_24  and  C_27
REMARK                            x       y       z     vdW  Elec       q    Type
REMARK                         _______ _______ _______ _____ _____    ______ ____
ROOT
ATOM      1  O   UNL     1       4.721   5.563  19.825  0.00  0.00    +0.000 OA
ENDROOT
BRANCH   1   2
ATOM      2  N   UNL     1       3.790   6.411  19.213  0.00  0.00    +0.000 N 
ATOM      3  C   UNL     1       2.633   6.592  19.939  0.00  0.00    +0.000 C 
ATOM      4  N   UNL     1       2.217   5.718  20.811  0.00  0.00    +0.000 NA
ATOM      5  H   UNL     1       4.230   7.277  18.898  0.00  0.00    +0.000 HD
ATOM      6  H   UNL     1       2.870   4.931  20.783  0.00  0.00    +0.000 HD
BRANCH   3   7
ATOM      7  C   UNL     1       1.842   7.827  19.696  0.00  0.00    +0.000 A 
ATOM      8  C   UNL     1       1.076   8.374  20.730  0.00  0.00    +0.000 A 
ATOM      9  C   UNL     1       0.319   9.528  20.519  0.00  0.00    +0.000 A 
ATOM     10  C   UNL     1       0.306  10.172  19.273  0.00  0.00    +0.000 A 
ATOM     11  C   UNL     1       1.080   9.603  18.242  0.00  0.00    +0.000 A 
ATOM     12  C   UNL     1       1.847   8.446  18.449  0.00  0.00    +0.000 A 
BRANCH  10  13
ATOM     13  C   UNL     1      -0.483  11.472  19.035  0.00  0.00    +0.000 C 
ATOM     14  C   UNL     1       0.403  12.654  18.574  0.00  0.00    +0.000 C 
ATOM     15  C   UNL     1      -1.542  11.240  17.935  0.00  0.00    +0.000 C 
ATOM     16  C   UNL     1      -1.191  11.913  20.333  0.00  0.00    +0.000 C 
ENDBRANCH  10  13
ENDBRANCH   3   7
ENDBRANCH   1   2
BRANCH   1  17
ATOM     17  C   UNL     1       4.827   4.369  19.154  0.00  0.00    +0.000 C 
ATOM     18  O   UNL     1       4.120   3.393  19.388  0.00  0.00    +0.000 OA
BRANCH  17  25
ATOM     19  C   UNL     1       7.897   5.487  19.081  0.00  0.00    +0.000 C 
ATOM     20  C   UNL     1       7.071   4.929  17.975  0.00  0.00    +0.000 A 
ATOM     21  N   UNL     1       7.578   4.842  16.741  0.00  0.00    +0.000 NA
ATOM     22  N   UNL     1       6.537   4.457  15.956  0.00  0.00    +0.000 N 
ATOM     23  C   UNL     1       5.444   4.081  16.724  0.00  0.00    +0.000 A 
ATOM     24  C   UNL     1       4.233   3.374  16.219  0.00  0.00    +0.000 C 
ATOM     25  C   UNL     1       5.740   4.445  18.029  0.00  0.00    +0.000 A 
BRANCH  22  26
ATOM     26  C   UNL     1       6.675   4.461  14.539  0.00  0.00    +0.000 A 
ATOM     27  C   UNL     1       7.586   5.341  13.941  0.00  0.00    +0.000 A 
ATOM     28  C   UNL     1       7.830   5.255  12.568  0.00  0.00    +0.000 A 
ATOM     29  C   UNL     1       7.141   4.325  11.789  0.00  0.00    +0.000 A 
ATOM     30  C   UNL     1       6.174   3.507  12.369  0.00  0.00    +0.000 A 
ATOM     31  C   UNL     1       5.929   3.586  13.739  0.00  0.00    +0.000 A 
ENDBRANCH  22  26
ENDBRANCH  17  25
ENDBRANCH   1  17
TORSDOF 6
ENDMDL
MODEL 9
REMARK VINA RESULT:      -8.2      4.908      7.440
REMARK  Name = 
REMARK  11 active torsions:
REMARK  status: ('A' for Active; 'I' for Inactive)
REMARK    1  A    between atoms: C_1  and  C_2
REMARK    2  A    between atoms: N_4  and  C_5
REMARK    3  A    between atoms: C_11  and  C_12
REMARK    4  A    between atoms: C_13  and  C_14
REMARK    5  A    between atoms: C_14  and  O_16
REMARK    6  A    between atoms: O_16  and  N_17
REMARK    7  A    between atoms: C_18  and  C_20
REMARK    8  A    between atoms: C_23  and  C_24
REMARK    9  A    between atoms: C_24  and  C_25
REMARK   10  A    between atoms: C_24  and  C_26
REMARK   11  A    between atoms: C_24  and  C_27
REMARK                            x       y       z     vdW  Elec       q    Type
REMARK                         _______ _______ _______ _____ _____    ______ ____
ROOT
ATOM      1  O   UNL     1       4.577   5.304  20.007  0.00  0.00    +0.000 OA
ENDROOT
BRANCH   1   2
ATOM      2  N   UNL     1       3.757   6.259  19.393  0.00  0.00    +0.000 N 
ATOM      3  C   UNL     1       2.557   6.466  20.037  0.00  0.00    +0.000 C 
ATOM      4  N   UNL     1       2.014   5.560  20.800  0.00  0.00    +0.000 NA
ATOM      5  H   UNL     1       4.277   7.113  19.185  0.00  0.00    +0.000 HD
ATOM      6  H   UNL     1       2.615   4.733  20.760  0.00  0.00    +0.000 HD
BRANCH   3   7
ATOM      7  C   UNL     1       1.870   7.768  19.832  0.00  0.00    +0.000 A 
ATOM      8  C   UNL     1       1.898   8.375  18.573  0.00  0.00    +0.000 A 
ATOM      9  C   UNL     1       1.266   9.602  18.363  0.00  0.00    +0.000 A 
ATOM     10  C   UNL     1       0.588  10.259  19.400  0.00  0.00    +0.000 A 
ATOM     11  C   UNL     1       0.576   9.635  20.663  0.00  0.00    +0.000 A 
ATOM     12  C   UNL     1       1.204   8.398  20.880  0.00  0.00    +0.000 A 
BRANCH  10  13
ATOM     13  C   UNL     1      -0.156  11.589  19.175  0.00  0.00    +0.000 C 
ATOM     14  C   UNL     1      -0.867  12.117  20.444  0.00  0.00    +0.000 C 
ATOM     15  C   UNL     1       0.850  12.673  18.731  0.00  0.00    +0.000 C 
ATOM     16  C   UNL     1      -1.233  11.421  18.084  0.00  0.00    +0.000 C 
ENDBRANCH  10  13
ENDBRANCH   3   7
ENDBRANCH   1   2
BRANCH   1  17
ATOM     17  C   UNL     1       5.738   5.110  19.298  0.00  0.00    +0.000 C 
ATOM     18  O   UNL     1       6.855   5.136  19.805  0.00  0.00    +0.000 OA
BRANCH  17  25
ATOM     19  C   UNL     1       3.702   2.806  18.190  0.00  0.00    +0.000 C 
ATOM     20  C   UNL     1       4.615   3.702  17.428  0.00  0.00    +0.000 A 
ATOM     21  N   UNL     1       4.679   3.614  16.096  0.00  0.00    +0.000 NA
ATOM     22  N   UNL     1       5.704   4.431  15.734  0.00  0.00    +0.000 N 
ATOM     23  C   UNL     1       6.129   5.203  16.806  0.00  0.00    +0.000 A 
ATOM     24  C   UNL     1       7.048   6.374  16.721  0.00  0.00    +0.000 C 
ATOM     25  C   UNL     1       5.489   4.699  17.929  0.00  0.00    +0.000 A 
BRANCH  22  26
ATOM     26  C   UNL     1       6.182   4.423  14.394  0.00  0.00    +0.000 A 
ATOM     27  C   UNL     1       7.295   5.205  14.058  0.00  0.00    +0.000 A 
ATOM     28  C   UNL     1       7.856   5.096  12.783  0.00  0.00    +0.000 A 
ATOM     29  C   UNL     1       7.289   4.243  11.836  0.00  0.00    +0.000 A 
ATOM     30  C   UNL     1       6.133   3.529  12.142  0.00  0.00    +0.000 A 
ATOM     31  C   UNL     1       5.570   3.631  13.414  0.00  0.00    +0.000 A 
ENDBRANCH  22  26
ENDBRANCH  17  25
ENDBRANCH   1  17
TORSDOF 6
ENDMDL
