MODEL 1
REMARK VINA RESULT:      -8.8      0.000      0.000
REMARK  Name = 
REMARK  7 active torsions:
REMARK  status: ('A' for Active; 'I' for Inactive)
REMARK    1  A    between atoms: C_2  and  C_3
REMARK    2  A    between atoms: C_3  and  C_4
REMARK    3  A    between atoms: N_14  and  C_15
REMARK    4  A    between atoms: C_18  and  O_19
REMARK    5  A    between atoms: O_19  and  C_20
REMARK    6  A    between atoms: C_27  and  C_28
REMARK    7  A    between atoms: C_28  and  O_29
REMARK                            x       y       z     vdW  Elec       q    Type
REMARK                         _______ _______ _______ _____ _____    ______ ____
ROOT
ATOM      1  C   UNL     1       1.125   9.665  19.533  0.00  0.00    +0.000 A 
ATOM      2  C   UNL     1       1.616   9.704  18.224  0.00  0.00    +0.000 A 
ATOM      3  C   UNL     1       2.216   8.578  17.651  0.00  0.00    +0.000 A 
ATOM      4  C   UNL     1       2.335   7.398  18.381  0.00  0.00    +0.000 A 
ATOM      5  C   UNL     1       1.953   7.401  19.726  0.00  0.00    +0.000 A 
ATOM      6  F   UNL     1       2.130   6.317  20.496  0.00  0.00    +0.000 F 
ATOM      7  C   UNL     1       1.336   8.516  20.297  0.00  0.00    +0.000 A 
ENDROOT
BRANCH   1  13
ATOM      8  O   UNL     1       0.437  12.736  21.894  0.00  0.00    +0.000 OA
ATOM      9  C   UNL     1      -0.694  12.981  21.473  0.00  0.00    +0.000 C 
ATOM     10  N   UNL     1      -1.341  12.202  20.533  0.00  0.00    +0.000 N 
ATOM     11  C   UNL     1      -0.856  11.137  19.809  0.00  0.00    +0.000 C 
ATOM     12  O   UNL     1      -1.601  10.642  18.966  0.00  0.00    +0.000 OA
ATOM     13  N   UNL     1       0.417  10.731  20.121  0.00  0.00    +0.000 N 
ATOM     14  H   UNL     1      -2.290  12.431  20.276  0.00  0.00    +0.000 HD
ATOM     15  H   UNL     1       0.819  11.166  20.950  0.00  0.00    +0.000 HD
BRANCH   9  16
ATOM     16  C   UNL     1      -1.524  14.143  21.982  0.00  0.00    +0.000 C 
BRANCH  16  17
ATOM     17  C   UNL     1      -2.829  13.706  22.604  0.00  0.00    +0.000 A 
ATOM     18  C   UNL     1      -2.832  12.861  23.724  0.00  0.00    +0.000 A 
ATOM     19  C   UNL     1      -4.035  12.474  24.316  0.00  0.00    +0.000 A 
ATOM     20  C   UNL     1      -5.236  12.934  23.790  0.00  0.00    +0.000 A 
ATOM     21  F   UNL     1      -6.390  12.570  24.362  0.00  0.00    +0.000 F 
ATOM     22  C   UNL     1      -5.255  13.771  22.681  0.00  0.00    +0.000 A 
ATOM     23  C   UNL     1      -4.053  14.159  22.085  0.00  0.00    +0.000 A 
ENDBRANCH  16  17
ENDBRANCH   9  16
ENDBRANCH   1  13
BRANCH   4  24
ATOM     24  O   UNL     1       2.881   6.329  17.708  0.00  0.00    +0.000 OA
BRANCH  24  25
ATOM     25  C   UNL     1       4.042   5.737  18.165  0.00  0.00    +0.000 A 
ATOM     26  C   UNL     1       5.284   6.387  18.215  0.00  0.00    +0.000 A 
ATOM     27  C   UNL     1       6.409   5.678  18.602  0.00  0.00    +0.000 A 
ATOM     28  N   UNL     1       6.423   4.394  19.013  0.00  0.00    +0.000 NA
ATOM     29  C   UNL     1       5.197   3.841  19.047  0.00  0.00    +0.000 A 
ATOM     30  N   UNL     1       4.958   2.569  19.473  0.00  0.00    +0.000 N 
ATOM     31  C   UNL     1       3.615   2.310  19.430  0.00  0.00    +0.000 A 
ATOM     32  C   UNL     1       2.968   3.435  18.940  0.00  0.00    +0.000 A 
ATOM     33  C   UNL     1       3.985   4.418  18.671  0.00  0.00    +0.000 A 
ATOM     34  H   UNL     1       5.680   1.944  19.797  0.00  0.00    +0.000 HD
BRANCH  32  35
ATOM     35  C   UNL     1       1.490   3.565  18.786  0.00  0.00    +0.000 C 
BRANCH  35  36
ATOM     36  O   UNL     1       1.137   3.950  17.462  0.00  0.00    +0.000 OA
ATOM     37  H   UNL     1       0.269   4.385  17.532  0.00  0.00    +0.000 HD
ENDBRANCH  35  36
ENDBRANCH  32  35
ENDBRANCH  24  25
ENDBRANCH   4  24
TORSDOF 7
ENDMDL
MODEL 2
REMARK VINA RESULT:      -8.7      0.738      1.108
REMARK  Name = 
REMARK  7 active torsions:
REMARK  status: ('A' for Active; 'I' for Inactive)
REMARK    1  A    between atoms: C_2  and  C_3
REMARK    2  A    between atoms: C_3  and  C_4
REMARK    3  A    between atoms: N_14  and  C_15
REMARK    4  A    between atoms: C_18  and  O_19
REMARK    5  A    between atoms: O_19  and  C_20
REMARK    6  A    between atoms: C_27  and  C_28
REMARK    7  A    between atoms: C_28  and  O_29
REMARK                            x       y       z     vdW  Elec       q    Type
REMARK                         _______ _______ _______ _____ _____    ______ ____
ROOT
ATOM      1  C   UNL     1       1.011   9.438  20.011  0.00  0.00    +0.000 A 
ATOM      2  C   UNL     1       1.425   9.597  18.685  0.00  0.00    +0.000 A 
ATOM      3  C   UNL     1       2.027   8.541  17.991  0.00  0.00    +0.000 A 
ATOM      4  C   UNL     1       2.226   7.313  18.618  0.00  0.00    +0.000 A 
ATOM      5  C   UNL     1       1.921   7.197  19.977  0.00  0.00    +0.000 A 
ATOM      6  F   UNL     1       2.176   6.064  20.647  0.00  0.00    +0.000 F 
ATOM      7  C   UNL     1       1.302   8.241  20.668  0.00  0.00    +0.000 A 
ENDROOT
BRANCH   1  13
ATOM      8  O   UNL     1      -0.507  11.341  23.102  0.00  0.00    +0.000 OA
ATOM      9  C   UNL     1      -0.991  12.275  22.463  0.00  0.00    +0.000 C 
ATOM     10  N   UNL     1      -0.966  12.347  21.083  0.00  0.00    +0.000 N 
ATOM     11  C   UNL     1      -0.327  11.524  20.185  0.00  0.00    +0.000 C 
ATOM     12  O   UNL     1      -0.385  11.831  18.996  0.00  0.00    +0.000 OA
ATOM     13  N   UNL     1       0.303  10.428  20.719  0.00  0.00    +0.000 N 
ATOM     14  H   UNL     1      -1.432  13.115  20.623  0.00  0.00    +0.000 HD
ATOM     15  H   UNL     1       0.115  10.259  21.707  0.00  0.00    +0.000 HD
BRANCH   9  16
ATOM     16  C   UNL     1      -1.715  13.431  23.123  0.00  0.00    +0.000 C 
BRANCH  16  17
ATOM     17  C   UNL     1      -3.190  13.169  23.314  0.00  0.00    +0.000 A 
ATOM     18  C   UNL     1      -4.091  13.383  22.259  0.00  0.00    +0.000 A 
ATOM     19  C   UNL     1      -5.451  13.119  22.425  0.00  0.00    +0.000 A 
ATOM     20  C   UNL     1      -5.911  12.638  23.644  0.00  0.00    +0.000 A 
ATOM     21  F   UNL     1      -7.215  12.376  23.801  0.00  0.00    +0.000 F 
ATOM     22  C   UNL     1      -5.037  12.419  24.701  0.00  0.00    +0.000 A 
ATOM     23  C   UNL     1      -3.675  12.684  24.539  0.00  0.00    +0.000 A 
ENDBRANCH  16  17
ENDBRANCH   9  16
ENDBRANCH   1  13
BRANCH   4  24
ATOM     24  O   UNL     1       2.767   6.321  17.832  0.00  0.00    +0.000 OA
BRANCH  24  25
ATOM     25  C   UNL     1       3.941   5.698  18.208  0.00  0.00    +0.000 A 
ATOM     26  C   UNL     1       5.182   6.346  18.273  0.00  0.00    +0.000 A 
ATOM     27  C   UNL     1       6.319   5.611  18.569  0.00  0.00    +0.000 A 
ATOM     28  N   UNL     1       6.346   4.299  18.876  0.00  0.00    +0.000 NA
ATOM     29  C   UNL     1       5.122   3.741  18.902  0.00  0.00    +0.000 A 
ATOM     30  N   UNL     1       4.896   2.439  19.232  0.00  0.00    +0.000 N 
ATOM     31  C   UNL     1       3.553   2.180  19.208  0.00  0.00    +0.000 A 
ATOM     32  C   UNL     1       2.890   3.339  18.828  0.00  0.00    +0.000 A 
ATOM     33  C   UNL     1       3.899   4.343  18.608  0.00  0.00    +0.000 A 
ATOM     34  H   UNL     1       5.628   1.792  19.484  0.00  0.00    +0.000 HD
BRANCH  32  35
ATOM     35  C   UNL     1       1.409   3.475  18.727  0.00  0.00    +0.000 C 
BRANCH  35  36
ATOM     36  O   UNL     1       1.022   4.039  17.478  0.00  0.00    +0.000 OA
ATOM     37  H   UNL     1       0.208   4.543  17.652  0.00  0.00    +0.000 HD
ENDBRANCH  35  36
ENDBRANCH  32  35
ENDBRANCH  24  25
ENDBRANCH   4  24
TORSDOF 7
ENDMDL
MODEL 3
REMARK VINA RESULT:      -8.4      0.958      1.474
REMARK  Name = 
REMARK  7 active torsions:
REMARK  status: ('A' for Active; 'I' for Inactive)
REMARK    1  A    between atoms: C_2  and  C_3
REMARK    2  A    between atoms: C_3  and  C_4
REMARK    3  A    between atoms: N_14  and  C_15
REMARK    4  A    between atoms: C_18  and  O_19
REMARK    5  A    between atoms: O_19  and  C_20
REMARK    6  A    between atoms: C_27  and  C_28
REMARK    7  A    between atoms: C_28  and  O_29
REMARK                            x       y       z     vdW  Elec       q    Type
REMARK                         _______ _______ _______ _____ _____    ______ ____
ROOT
ATOM      1  C   UNL     1       0.999   9.731  19.705  0.00  0.00    +0.000 A 
ATOM      2  C   UNL     1       1.423   9.752  18.372  0.00  0.00    +0.000 A 
ATOM      3  C   UNL     1       1.997   8.619  17.786  0.00  0.00    +0.000 A 
ATOM      4  C   UNL     1       2.157   7.450  18.527  0.00  0.00    +0.000 A 
ATOM      5  C   UNL     1       1.844   7.473  19.889  0.00  0.00    +0.000 A 
ATOM      6  F   UNL     1       2.063   6.402  20.665  0.00  0.00    +0.000 F 
ATOM      7  C   UNL     1       1.252   8.595  20.474  0.00  0.00    +0.000 A 
ENDROOT
BRANCH   1  13
ATOM      8  O   UNL     1      -2.040  11.850  21.028  0.00  0.00    +0.000 OA
ATOM      9  C   UNL     1      -1.371  12.762  21.511  0.00  0.00    +0.000 C 
ATOM     10  N   UNL     1       0.005  12.840  21.399  0.00  0.00    +0.000 N 
ATOM     11  C   UNL     1       0.883  11.918  20.877  0.00  0.00    +0.000 C 
ATOM     12  O   UNL     1       2.082  12.176  20.953  0.00  0.00    +0.000 OA
ATOM     13  N   UNL     1       0.317  10.804  20.311  0.00  0.00    +0.000 N 
ATOM     14  H   UNL     1       0.483  13.647  21.772  0.00  0.00    +0.000 HD
ATOM     15  H   UNL     1      -0.697  10.839  20.208  0.00  0.00    +0.000 HD
BRANCH   9  16
ATOM     16  C   UNL     1      -1.991  13.934  22.247  0.00  0.00    +0.000 C 
BRANCH  16  17
ATOM     17  C   UNL     1      -3.337  13.605  22.847  0.00  0.00    +0.000 A 
ATOM     18  C   UNL     1      -4.515  14.081  22.250  0.00  0.00    +0.000 A 
ATOM     19  C   UNL     1      -5.761  13.759  22.788  0.00  0.00    +0.000 A 
ATOM     20  C   UNL     1      -5.832  12.959  23.922  0.00  0.00    +0.000 A 
ATOM     21  F   UNL     1      -7.028  12.643  24.434  0.00  0.00    +0.000 F 
ATOM     22  C   UNL     1      -4.678  12.477  24.528  0.00  0.00    +0.000 A 
ATOM     23  C   UNL     1      -3.429  12.799  23.993  0.00  0.00    +0.000 A 
ENDBRANCH  16  17
ENDBRANCH   9  16
ENDBRANCH   1  13
BRANCH   4  24
ATOM     24  O   UNL     1       2.673   6.374  17.842  0.00  0.00    +0.000 OA
BRANCH  24  25
ATOM     25  C   UNL     1       3.854   5.787  18.254  0.00  0.00    +0.000 A 
ATOM     26  C   UNL     1       5.099   6.431  18.218  0.00  0.00    +0.000 A 
ATOM     27  C   UNL     1       6.240   5.726  18.564  0.00  0.00    +0.000 A 
ATOM     28  N   UNL     1       6.271   4.454  19.010  0.00  0.00    +0.000 NA
ATOM     29  C   UNL     1       5.045   3.910  19.126  0.00  0.00    +0.000 A 
ATOM     30  N   UNL     1       4.824   2.653  19.601  0.00  0.00    +0.000 N 
ATOM     31  C   UNL     1       3.479   2.401  19.638  0.00  0.00    +0.000 A 
ATOM     32  C   UNL     1       2.811   3.516  19.152  0.00  0.00    +0.000 A 
ATOM     33  C   UNL     1       3.818   4.484  18.800  0.00  0.00    +0.000 A 
ATOM     34  H   UNL     1       5.559   2.032  19.904  0.00  0.00    +0.000 HD
BRANCH  32  35
ATOM     35  C   UNL     1       1.329   3.650  19.074  0.00  0.00    +0.000 C 
BRANCH  35  36
ATOM     36  O   UNL     1       0.726   3.528  20.358  0.00  0.00    +0.000 OA
ATOM     37  H   UNL     1       1.393   3.832  20.997  0.00  0.00    +0.000 HD
ENDBRANCH  35  36
ENDBRANCH  32  35
ENDBRANCH  24  25
ENDBRANCH   4  24
TORSDOF 7
ENDMDL
MODEL 4
REMARK VINA RESULT:      -8.3      2.421      3.138
REMARK  Name = 
REMARK  7 active torsions:
REMARK  status: ('A' for Active; 'I' for Inactive)
REMARK    1  A    between atoms: C_2  and  C_3
REMARK    2  A    between atoms: C_3  and  C_4
REMARK    3  A    between atoms: N_14  and  C_15
REMARK    4  A    between atoms: C_18  and  O_19
REMARK    5  A    between atoms: O_19  and  C_20
REMARK    6  A    between atoms: C_27  and  C_28
REMARK    7  A    between atoms: C_28  and  O_29
REMARK                            x       y       z     vdW  Elec       q    Type
REMARK                         _______ _______ _______ _____ _____    ______ ____
ROOT
ATOM      1  C   UNL     1       1.227   9.757  19.464  0.00  0.00    +0.000 A 
ATOM      2  C   UNL     1       1.690   9.686  18.146  0.00  0.00    +0.000 A 
ATOM      3  C   UNL     1       2.207   8.491  17.633  0.00  0.00    +0.000 A 
ATOM      4  C   UNL     1       2.270   7.353  18.433  0.00  0.00    +0.000 A 
ATOM      5  C   UNL     1       1.919   7.462  19.782  0.00  0.00    +0.000 A 
ATOM      6  F   UNL     1       2.046   6.419  20.614  0.00  0.00    +0.000 F 
ATOM      7  C   UNL     1       1.384   8.646  20.294  0.00  0.00    +0.000 A 
ENDROOT
BRANCH   1  13
ATOM      8  O   UNL     1       0.823  13.072  21.543  0.00  0.00    +0.000 OA
ATOM      9  C   UNL     1      -0.335  13.308  21.199  0.00  0.00    +0.000 C 
ATOM     10  N   UNL     1      -1.082  12.460  20.404  0.00  0.00    +0.000 N 
ATOM     11  C   UNL     1      -0.688  11.312  19.756  0.00  0.00    +0.000 C 
ATOM     12  O   UNL     1      -1.516  10.758  19.037  0.00  0.00    +0.000 OA
ATOM     13  N   UNL     1       0.598  10.899  19.996  0.00  0.00    +0.000 N 
ATOM     14  H   UNL     1      -2.045  12.692  20.208  0.00  0.00    +0.000 HD
ATOM     15  H   UNL     1       1.083  11.403  20.738  0.00  0.00    +0.000 HD
BRANCH   9  16
ATOM     16  C   UNL     1      -1.090  14.542  21.655  0.00  0.00    +0.000 C 
BRANCH  16  17
ATOM     17  C   UNL     1      -1.215  15.587  20.572  0.00  0.00    +0.000 A 
ATOM     18  C   UNL     1      -2.258  16.525  20.609  0.00  0.00    +0.000 A 
ATOM     19  C   UNL     1      -2.362  17.507  19.623  0.00  0.00    +0.000 A 
ATOM     20  C   UNL     1      -1.422  17.555  18.601  0.00  0.00    +0.000 A 
ATOM     21  F   UNL     1      -1.517  18.502  17.660  0.00  0.00    +0.000 F 
ATOM     22  C   UNL     1      -0.381  16.636  18.546  0.00  0.00    +0.000 A 
ATOM     23  C   UNL     1      -0.275  15.650  19.530  0.00  0.00    +0.000 A 
ENDBRANCH  16  17
ENDBRANCH   9  16
ENDBRANCH   1  13
BRANCH   4  24
ATOM     24  O   UNL     1       2.735   6.213  17.817  0.00  0.00    +0.000 OA
BRANCH  24  25
ATOM     25  C   UNL     1       3.950   5.669  18.185  0.00  0.00    +0.000 A 
ATOM     26  C   UNL     1       5.174   6.342  18.070  0.00  0.00    +0.000 A 
ATOM     27  C   UNL     1       6.350   5.676  18.378  0.00  0.00    +0.000 A 
ATOM     28  N   UNL     1       6.435   4.419  18.857  0.00  0.00    +0.000 NA
ATOM     29  C   UNL     1       5.232   3.847  19.048  0.00  0.00    +0.000 A 
ATOM     30  N   UNL     1       5.067   2.599  19.566  0.00  0.00    +0.000 N 
ATOM     31  C   UNL     1       3.733   2.314  19.677  0.00  0.00    +0.000 A 
ATOM     32  C   UNL     1       3.013   3.398  19.195  0.00  0.00    +0.000 A 
ATOM     33  C   UNL     1       3.975   4.381  18.767  0.00  0.00    +0.000 A 
ATOM     34  H   UNL     1       5.833   2.005  19.849  0.00  0.00    +0.000 HD
BRANCH  32  35
ATOM     35  C   UNL     1       1.525   3.492  19.186  0.00  0.00    +0.000 C 
BRANCH  35  36
ATOM     36  O   UNL     1       1.027   3.743  17.876  0.00  0.00    +0.000 OA
ATOM     37  H   UNL     1       0.185   4.217  17.996  0.00  0.00    +0.000 HD
ENDBRANCH  35  36
ENDBRANCH  32  35
ENDBRANCH  24  25
ENDBRANCH   4  24
TORSDOF 7
ENDMDL
MODEL 5
REMARK VINA RESULT:      -8.3      1.261      1.365
REMARK  Name = 
REMARK  7 active torsions:
REMARK  status: ('A' for Active; 'I' for Inactive)
REMARK    1  A    between atoms: C_2  and  C_3
REMARK    2  A    between atoms: C_3  and  C_4
REMARK    3  A    between atoms: N_14  and  C_15
REMARK    4  A    between atoms: C_18  and  O_19
REMARK    5  A    between atoms: O_19  and  C_20
REMARK    6  A    between atoms: C_27  and  C_28
REMARK    7  A    between atoms: C_28  and  O_29
REMARK                            x       y       z     vdW  Elec       q    Type
REMARK                         _______ _______ _______ _____ _____    ______ ____
ROOT
ATOM      1  C   UNL     1       0.955   9.441  20.404  0.00  0.00    +0.000 A 
ATOM      2  C   UNL     1       1.312   9.641  19.067  0.00  0.00    +0.000 A 
ATOM      3  C   UNL     1       1.862   8.601  18.309  0.00  0.00    +0.000 A 
ATOM      4  C   UNL     1       2.063   7.347  18.881  0.00  0.00    +0.000 A 
ATOM      5  C   UNL     1       1.817   7.187  20.247  0.00  0.00    +0.000 A 
ATOM      6  F   UNL     1       2.079   6.025  20.864  0.00  0.00    +0.000 F 
ATOM      7  C   UNL     1       1.251   8.215  21.004  0.00  0.00    +0.000 A 
ENDROOT
BRANCH   1  13
ATOM      8  O   UNL     1      -0.447  12.977  21.405  0.00  0.00    +0.000 OA
ATOM      9  C   UNL     1      -0.987  12.619  22.452  0.00  0.00    +0.000 C 
ATOM     10  N   UNL     1      -0.894  11.336  22.956  0.00  0.00    +0.000 N 
ATOM     11  C   UNL     1      -0.333  10.219  22.381  0.00  0.00    +0.000 C 
ATOM     12  O   UNL     1      -0.435   9.157  22.992  0.00  0.00    +0.000 OA
ATOM     13  N   UNL     1       0.299  10.417  21.179  0.00  0.00    +0.000 N 
ATOM     14  H   UNL     1      -1.315  11.127  23.850  0.00  0.00    +0.000 HD
ATOM     15  H   UNL     1       0.412  11.392  20.905  0.00  0.00    +0.000 HD
BRANCH   9  16
ATOM     16  C   UNL     1      -1.777  13.566  23.333  0.00  0.00    +0.000 C 
BRANCH  16  17
ATOM     17  C   UNL     1      -3.261  13.285  23.316  0.00  0.00    +0.000 A 
ATOM     18  C   UNL     1      -3.906  12.812  24.468  0.00  0.00    +0.000 A 
ATOM     19  C   UNL     1      -5.281  12.574  24.462  0.00  0.00    +0.000 A 
ATOM     20  C   UNL     1      -6.012  12.811  23.305  0.00  0.00    +0.000 A 
ATOM     21  F   UNL     1      -7.333  12.591  23.302  0.00  0.00    +0.000 F 
ATOM     22  C   UNL     1      -5.393  13.280  22.153  0.00  0.00    +0.000 A 
ATOM     23  C   UNL     1      -4.017  13.518  22.155  0.00  0.00    +0.000 A 
ENDBRANCH  16  17
ENDBRANCH   9  16
ENDBRANCH   1  13
BRANCH   4  24
ATOM     24  O   UNL     1       2.549   6.375  18.036  0.00  0.00    +0.000 OA
BRANCH  24  25
ATOM     25  C   UNL     1       3.745   5.744  18.315  0.00  0.00    +0.000 A 
ATOM     26  C   UNL     1       4.991   6.387  18.290  0.00  0.00    +0.000 A 
ATOM     27  C   UNL     1       6.144   5.646  18.493  0.00  0.00    +0.000 A 
ATOM     28  N   UNL     1       6.189   4.331  18.785  0.00  0.00    +0.000 NA
ATOM     29  C   UNL     1       4.968   3.777  18.900  0.00  0.00    +0.000 A 
ATOM     30  N   UNL     1       4.763   2.473  19.234  0.00  0.00    +0.000 N 
ATOM     31  C   UNL     1       3.420   2.219  19.311  0.00  0.00    +0.000 A 
ATOM     32  C   UNL     1       2.735   3.384  18.993  0.00  0.00    +0.000 A 
ATOM     33  C   UNL     1       3.729   4.386  18.706  0.00  0.00    +0.000 A 
ATOM     34  H   UNL     1       5.508   1.821  19.425  0.00  0.00    +0.000 HD
BRANCH  32  35
ATOM     35  C   UNL     1       1.252   3.527  19.008  0.00  0.00    +0.000 C 
BRANCH  35  36
ATOM     36  O   UNL     1       0.715   3.259  20.299  0.00  0.00    +0.000 OA
ATOM     37  H   UNL     1       0.922   4.038  20.842  0.00  0.00    +0.000 HD
ENDBRANCH  35  36
ENDBRANCH  32  35
ENDBRANCH  24  25
ENDBRANCH   4  24
TORSDOF 7
ENDMDL
MODEL 6
REMARK VINA RESULT:      -8.0      1.207      1.615
REMARK  Name = 
REMARK  7 active torsions:
REMARK  status: ('A' for Active; 'I' for Inactive)
REMARK    1  A    between atoms: C_2  and  C_3
REMARK    2  A    between atoms: C_3  and  C_4
REMARK    3  A    between atoms: N_14  and  C_15
REMARK    4  A    between atoms: C_18  and  O_19
REMARK    5  A    between atoms: O_19  and  C_20
REMARK    6  A    between atoms: C_27  and  C_28
REMARK    7  A    between atoms: C_28  and  O_29
REMARK                            x       y       z     vdW  Elec       q    Type
REMARK                         _______ _______ _______ _____ _____    ______ ____
ROOT
ATOM      1  C   UNL     1       1.254   9.816  19.183  0.00  0.00    +0.000 A 
ATOM      2  C   UNL     1       1.798   9.655  17.905  0.00  0.00    +0.000 A 
ATOM      3  C   UNL     1       2.305   8.418  17.493  0.00  0.00    +0.000 A 
ATOM      4  C   UNL     1       2.277   7.326  18.356  0.00  0.00    +0.000 A 
ATOM      5  C   UNL     1       1.844   7.522  19.671  0.00  0.00    +0.000 A 
ATOM      6  F   UNL     1       1.880   6.524  20.565  0.00  0.00    +0.000 F 
ATOM      7  C   UNL     1       1.318   8.749  20.081  0.00  0.00    +0.000 A 
ENDROOT
BRANCH   1  13
ATOM      8  O   UNL     1       0.919  13.398  20.775  0.00  0.00    +0.000 OA
ATOM      9  C   UNL     1      -0.281  13.540  20.541  0.00  0.00    +0.000 C 
ATOM     10  N   UNL     1      -1.069  12.554  19.978  0.00  0.00    +0.000 N 
ATOM     11  C   UNL     1      -0.693  11.333  19.467  0.00  0.00    +0.000 C 
ATOM     12  O   UNL     1      -1.568  10.647  18.943  0.00  0.00    +0.000 OA
ATOM     13  N   UNL     1       0.632  11.005  19.610  0.00  0.00    +0.000 N 
ATOM     14  H   UNL     1      -2.058  12.720  19.866  0.00  0.00    +0.000 HD
ATOM     15  H   UNL     1       1.171  11.634  20.204  0.00  0.00    +0.000 HD
BRANCH   9  16
ATOM     16  C   UNL     1      -1.041  14.803  20.893  0.00  0.00    +0.000 C 
BRANCH  16  17
ATOM     17  C   UNL     1      -1.563  14.800  22.310  0.00  0.00    +0.000 A 
ATOM     18  C   UNL     1      -2.870  14.367  22.583  0.00  0.00    +0.000 A 
ATOM     19  C   UNL     1      -3.347  14.340  23.894  0.00  0.00    +0.000 A 
ATOM     20  C   UNL     1      -2.518  14.742  24.933  0.00  0.00    +0.000 A 
ATOM     21  F   UNL     1      -2.973  14.709  26.192  0.00  0.00    +0.000 F 
ATOM     22  C   UNL     1      -1.221  15.174  24.685  0.00  0.00    +0.000 A 
ATOM     23  C   UNL     1      -0.741  15.204  23.374  0.00  0.00    +0.000 A 
ENDBRANCH  16  17
ENDBRANCH   9  16
ENDBRANCH   1  13
BRANCH   4  24
ATOM     24  O   UNL     1       2.740   6.139  17.836  0.00  0.00    +0.000 OA
BRANCH  24  25
ATOM     25  C   UNL     1       3.956   5.627  18.244  0.00  0.00    +0.000 A 
ATOM     26  C   UNL     1       5.170   6.321  18.141  0.00  0.00    +0.000 A 
ATOM     27  C   UNL     1       6.350   5.686  18.491  0.00  0.00    +0.000 A 
ATOM     28  N   UNL     1       6.449   4.442  19.001  0.00  0.00    +0.000 NA
ATOM     29  C   UNL     1       5.253   3.852  19.178  0.00  0.00    +0.000 A 
ATOM     30  N   UNL     1       5.100   2.613  19.723  0.00  0.00    +0.000 N 
ATOM     31  C   UNL     1       3.770   2.305  19.810  0.00  0.00    +0.000 A 
ATOM     32  C   UNL     1       3.040   3.363  19.286  0.00  0.00    +0.000 A 
ATOM     33  C   UNL     1       3.993   4.354  18.857  0.00  0.00    +0.000 A 
ATOM     34  H   UNL     1       5.870   2.042  20.037  0.00  0.00    +0.000 HD
BRANCH  32  35
ATOM     35  C   UNL     1       1.551   3.428  19.241  0.00  0.00    +0.000 C 
BRANCH  35  36
ATOM     36  O   UNL     1       1.076   3.579  17.908  0.00  0.00    +0.000 OA
ATOM     37  H   UNL     1       0.712   2.713  17.654  0.00  0.00    +0.000 HD
ENDBRANCH  35  36
ENDBRANCH  32  35
ENDBRANCH  24  25
ENDBRANCH   4  24
TORSDOF 7
ENDMDL
MODEL 7
REMARK VINA RESULT:      -8.0      1.816      3.125
REMARK  Name = 
REMARK  7 active torsions:
REMARK  status: ('A' for Active; 'I' for Inactive)
REMARK    1  A    between atoms: C_2  and  C_3
REMARK    2  A    between atoms: C_3  and  C_4
REMARK    3  A    between atoms: N_14  and  C_15
REMARK    4  A    between atoms: C_18  and  O_19
REMARK    5  A    between atoms: O_19  and  C_20
REMARK    6  A    between atoms: C_27  and  C_28
REMARK    7  A    between atoms: C_28  and  O_29
REMARK                            x       y       z     vdW  Elec       q    Type
REMARK                         _______ _______ _______ _____ _____    ______ ____
ROOT
ATOM      1  C   UNL     1       0.412   9.698  20.026  0.00  0.00    +0.000 A 
ATOM      2  C   UNL     1       0.639   8.718  20.997  0.00  0.00    +0.000 A 
ATOM      3  C   UNL     1       1.555   7.685  20.771  0.00  0.00    +0.000 A 
ATOM      4  C   UNL     1       2.255   7.618  19.568  0.00  0.00    +0.000 A 
ATOM      5  C   UNL     1       1.936   8.528  18.557  0.00  0.00    +0.000 A 
ATOM      6  F   UNL     1       2.517   8.451  17.351  0.00  0.00    +0.000 F 
ATOM      7  C   UNL     1       1.037   9.573  18.784  0.00  0.00    +0.000 A 
ENDROOT
BRANCH   1  13
ATOM      8  O   UNL     1      -2.788  11.975  19.808  0.00  0.00    +0.000 OA
ATOM      9  C   UNL     1      -2.360  12.881  20.524  0.00  0.00    +0.000 C 
ATOM     10  N   UNL     1      -1.077  12.904  21.037  0.00  0.00    +0.000 N 
ATOM     11  C   UNL     1      -0.106  11.932  20.981  0.00  0.00    +0.000 C 
ATOM     12  O   UNL     1       0.945  12.149  21.581  0.00  0.00    +0.000 OA
ATOM     13  N   UNL     1      -0.414  10.817  20.242  0.00  0.00    +0.000 N 
ATOM     14  H   UNL     1      -0.777  13.707  21.570  0.00  0.00    +0.000 HD
ATOM     15  H   UNL     1      -1.272  10.884  19.696  0.00  0.00    +0.000 HD
BRANCH   9  16
ATOM     16  C   UNL     1      -3.184  14.102  20.881  0.00  0.00    +0.000 C 
BRANCH  16  17
ATOM     17  C   UNL     1      -4.323  13.788  21.822  0.00  0.00    +0.000 A 
ATOM     18  C   UNL     1      -5.653  13.954  21.405  0.00  0.00    +0.000 A 
ATOM     19  C   UNL     1      -6.708  13.642  22.264  0.00  0.00    +0.000 A 
ATOM     20  C   UNL     1      -6.434  13.161  23.539  0.00  0.00    +0.000 A 
ATOM     21  F   UNL     1      -7.446  12.853  24.360  0.00  0.00    +0.000 F 
ATOM     22  C   UNL     1      -5.124  12.989  23.971  0.00  0.00    +0.000 A 
ATOM     23  C   UNL     1      -4.067  13.302  23.114  0.00  0.00    +0.000 A 
ENDBRANCH  16  17
ENDBRANCH   9  16
ENDBRANCH   1  13
BRANCH   4  24
ATOM     24  O   UNL     1       3.178   6.602  19.469  0.00  0.00    +0.000 OA
BRANCH  24  25
ATOM     25  C   UNL     1       2.902   5.482  18.710  0.00  0.00    +0.000 A 
ATOM     26  C   UNL     1       1.758   4.688  18.878  0.00  0.00    +0.000 A 
ATOM     27  C   UNL     1       1.617   3.530  18.131  0.00  0.00    +0.000 A 
ATOM     28  N   UNL     1       2.469   3.104  17.176  0.00  0.00    +0.000 NA
ATOM     29  C   UNL     1       3.499   3.948  16.978  0.00  0.00    +0.000 A 
ATOM     30  N   UNL     1       4.460   3.751  16.035  0.00  0.00    +0.000 N 
ATOM     31  C   UNL     1       5.344   4.796  16.047  0.00  0.00    +0.000 A 
ATOM     32  C   UNL     1       4.959   5.683  17.043  0.00  0.00    +0.000 A 
ATOM     33  C   UNL     1       3.782   5.130  17.661  0.00  0.00    +0.000 A 
ATOM     34  H   UNL     1       4.476   2.959  15.409  0.00  0.00    +0.000 HD
BRANCH  32  35
ATOM     35  C   UNL     1       5.645   6.973  17.342  0.00  0.00    +0.000 C 
BRANCH  35  36
ATOM     36  O   UNL     1       6.931   7.032  16.735  0.00  0.00    +0.000 OA
ATOM     37  H   UNL     1       7.484   6.392  17.216  0.00  0.00    +0.000 HD
ENDBRANCH  35  36
ENDBRANCH  32  35
ENDBRANCH  24  25
ENDBRANCH   4  24
TORSDOF 7
ENDMDL
MODEL 8
REMARK VINA RESULT:      -7.9      1.381      2.410
REMARK  Name = 
REMARK  7 active torsions:
REMARK  status: ('A' for Active; 'I' for Inactive)
REMARK    1  A    between atoms: C_2  and  C_3
REMARK    2  A    between atoms: C_3  and  C_4
REMARK    3  A    between atoms: N_14  and  C_15
REMARK    4  A    between atoms: C_18  and  O_19
REMARK    5  A    between atoms: O_19  and  C_20
REMARK    6  A    between atoms: C_27  and  C_28
REMARK    7  A    between atoms: C_28  and  O_29
REMARK                            x       y       z     vdW  Elec       q    Type
REMARK                         _______ _______ _______ _____ _____    ______ ____
ROOT
ATOM      1  C   UNL     1       0.940   9.597  20.157  0.00  0.00    +0.000 A 
ATOM      2  C   UNL     1       1.036   9.817  18.780  0.00  0.00    +0.000 A 
ATOM      3  C   UNL     1       1.597   8.850  17.938  0.00  0.00    +0.000 A 
ATOM      4  C   UNL     1       2.072   7.651  18.465  0.00  0.00    +0.000 A 
ATOM      5  C   UNL     1       2.084   7.489  19.853  0.00  0.00    +0.000 A 
ATOM      6  F   UNL     1       2.612   6.391  20.415  0.00  0.00    +0.000 F 
ATOM      7  C   UNL     1       1.508   8.442  20.696  0.00  0.00    +0.000 A 
ENDROOT
BRANCH   1  13
ATOM      8  O   UNL     1      -0.295  13.029  21.631  0.00  0.00    +0.000 OA
ATOM      9  C   UNL     1      -0.950  12.552  22.558  0.00  0.00    +0.000 C 
ATOM     10  N   UNL     1      -0.992  11.201  22.844  0.00  0.00    +0.000 N 
ATOM     11  C   UNL     1      -0.462  10.150  22.133  0.00  0.00    +0.000 C 
ATOM     12  O   UNL     1      -0.692   9.015  22.546  0.00  0.00    +0.000 OA
ATOM     13  N   UNL     1       0.288  10.486  21.034  0.00  0.00    +0.000 N 
ATOM     14  H   UNL     1      -1.506  10.887  23.654  0.00  0.00    +0.000 HD
ATOM     15  H   UNL     1       0.492  11.480  20.937  0.00  0.00    +0.000 HD
BRANCH   9  16
ATOM     16  C   UNL     1      -1.748  13.407  23.523  0.00  0.00    +0.000 C 
BRANCH  16  17
ATOM     17  C   UNL     1      -3.237  13.176  23.420  0.00  0.00    +0.000 A 
ATOM     18  C   UNL     1      -3.961  12.717  24.530  0.00  0.00    +0.000 A 
ATOM     19  C   UNL     1      -5.341  12.525  24.445  0.00  0.00    +0.000 A 
ATOM     20  C   UNL     1      -5.997  12.795  23.251  0.00  0.00    +0.000 A 
ATOM     21  F   UNL     1      -7.322  12.619  23.171  0.00  0.00    +0.000 F 
ATOM     22  C   UNL     1      -5.299  13.251  22.140  0.00  0.00    +0.000 A 
ATOM     23  C   UNL     1      -3.918  13.442  22.221  0.00  0.00    +0.000 A 
ENDBRANCH  16  17
ENDBRANCH   9  16
ENDBRANCH   1  13
BRANCH   4  24
ATOM     24  O   UNL     1       2.547   6.741  17.549  0.00  0.00    +0.000 OA
BRANCH  24  25
ATOM     25  C   UNL     1       2.797   5.436  17.929  0.00  0.00    +0.000 A 
ATOM     26  C   UNL     1       1.796   4.470  18.107  0.00  0.00    +0.000 A 
ATOM     27  C   UNL     1       2.140   3.214  18.580  0.00  0.00    +0.000 A 
ATOM     28  N   UNL     1       3.393   2.789  18.837  0.00  0.00    +0.000 NA
ATOM     29  C   UNL     1       4.328   3.714  18.555  0.00  0.00    +0.000 A 
ATOM     30  N   UNL     1       5.666   3.495  18.690  0.00  0.00    +0.000 N 
ATOM     31  C   UNL     1       6.361   4.604  18.289  0.00  0.00    +0.000 A 
ATOM     32  C   UNL     1       5.448   5.577  17.906  0.00  0.00    +0.000 A 
ATOM     33  C   UNL     1       4.136   5.016  18.096  0.00  0.00    +0.000 A 
ATOM     34  H   UNL     1       6.060   2.623  19.010  0.00  0.00    +0.000 HD
BRANCH  32  35
ATOM     35  C   UNL     1       5.814   6.917  17.364  0.00  0.00    +0.000 C 
BRANCH  35  36
ATOM     36  O   UNL     1       5.342   7.087  16.032  0.00  0.00    +0.000 OA
ATOM     37  H   UNL     1       5.791   7.878  15.687  0.00  0.00    +0.000 HD
ENDBRANCH  35  36
ENDBRANCH  32  35
ENDBRANCH  24  25
ENDBRANCH   4  24
TORSDOF 7
ENDMDL
MODEL 9
REMARK VINA RESULT:      -7.9      1.404      2.531
REMARK  Name = 
REMARK  7 active torsions:
REMARK  status: ('A' for Active; 'I' for Inactive)
REMARK    1  A    between atoms: C_2  and  C_3
REMARK    2  A    between atoms: C_3  and  C_4
REMARK    3  A    between atoms: N_14  and  C_15
REMARK    4  A    between atoms: C_18  and  O_19
REMARK    5  A    between atoms: O_19  and  C_20
REMARK    6  A    between atoms: C_27  and  C_28
REMARK    7  A    between atoms: C_28  and  O_29
REMARK                            x       y       z     vdW  Elec       q    Type
REMARK                         _______ _______ _______ _____ _____    ______ ____
ROOT
ATOM      1  C   UNL     1       0.888   9.676  19.971  0.00  0.00    +0.000 A 
ATOM      2  C   UNL     1       1.068   9.910  18.604  0.00  0.00    +0.000 A 
ATOM      3  C   UNL     1       1.721   8.973  17.797  0.00  0.00    +0.000 A 
ATOM      4  C   UNL     1       2.205   7.788  18.348  0.00  0.00    +0.000 A 
ATOM      5  C   UNL     1       2.130   7.615  19.733  0.00  0.00    +0.000 A 
ATOM      6  F   UNL     1       2.660   6.534  20.323  0.00  0.00    +0.000 F 
ATOM      7  C   UNL     1       1.462   8.539  20.540  0.00  0.00    +0.000 A 
ENDROOT
BRANCH   1  13
ATOM      8  O   UNL     1      -1.410  10.765  22.972  0.00  0.00    +0.000 OA
ATOM      9  C   UNL     1      -1.398  11.971  22.724  0.00  0.00    +0.000 C 
ATOM     10  N   UNL     1      -0.780  12.512  21.612  0.00  0.00    +0.000 N 
ATOM     11  C   UNL     1       0.013  11.892  20.675  0.00  0.00    +0.000 C 
ATOM     12  O   UNL     1       0.519  12.600  19.807  0.00  0.00    +0.000 OA
ATOM     13  N   UNL     1       0.144  10.533  20.806  0.00  0.00    +0.000 N 
ATOM     14  H   UNL     1      -0.858  13.504  21.442  0.00  0.00    +0.000 HD
ATOM     15  H   UNL     1      -0.471  10.103  21.496  0.00  0.00    +0.000 HD
BRANCH   9  16
ATOM     16  C   UNL     1      -2.105  12.994  23.590  0.00  0.00    +0.000 C 
BRANCH  16  17
ATOM     17  C   UNL     1      -3.610  12.889  23.514  0.00  0.00    +0.000 A 
ATOM     18  C   UNL     1      -4.352  12.510  24.643  0.00  0.00    +0.000 A 
ATOM     19  C   UNL     1      -5.744  12.435  24.582  0.00  0.00    +0.000 A 
ATOM     20  C   UNL     1      -6.395  12.743  23.394  0.00  0.00    +0.000 A 
ATOM     21  F   UNL     1      -7.731  12.680  23.337  0.00  0.00    +0.000 F 
ATOM     22  C   UNL     1      -5.679  13.121  22.264  0.00  0.00    +0.000 A 
ATOM     23  C   UNL     1      -4.286  13.195  22.321  0.00  0.00    +0.000 A 
ENDBRANCH  16  17
ENDBRANCH   9  16
ENDBRANCH   1  13
BRANCH   4  24
ATOM     24  O   UNL     1       2.775   6.904  17.461  0.00  0.00    +0.000 OA
BRANCH  24  25
ATOM     25  C   UNL     1       3.002   5.593  17.833  0.00  0.00    +0.000 A 
ATOM     26  C   UNL     1       1.987   4.638  17.987  0.00  0.00    +0.000 A 
ATOM     27  C   UNL     1       2.306   3.374  18.455  0.00  0.00    +0.000 A 
ATOM     28  N   UNL     1       3.550   2.930  18.727  0.00  0.00    +0.000 NA
ATOM     29  C   UNL     1       4.501   3.846  18.469  0.00  0.00    +0.000 A 
ATOM     30  N   UNL     1       5.833   3.609  18.624  0.00  0.00    +0.000 N 
ATOM     31  C   UNL     1       6.549   4.712  18.244  0.00  0.00    +0.000 A 
ATOM     32  C   UNL     1       5.655   5.700  17.855  0.00  0.00    +0.000 A 
ATOM     33  C   UNL     1       4.333   5.154  18.019  0.00  0.00    +0.000 A 
ATOM     34  H   UNL     1       6.212   2.729  18.942  0.00  0.00    +0.000 HD
BRANCH  32  35
ATOM     35  C   UNL     1       6.046   7.040  17.331  0.00  0.00    +0.000 C 
BRANCH  35  36
ATOM     36  O   UNL     1       7.381   7.036  16.834  0.00  0.00    +0.000 OA
ATOM     37  H   UNL     1       7.332   7.401  15.933  0.00  0.00    +0.000 HD
ENDBRANCH  35  36
ENDBRANCH  32  35
ENDBRANCH  24  25
ENDBRANCH   4  24
TORSDOF 7
ENDMDL
