MODEL 1
REMARK VINA RESULT:      -7.6      0.000      0.000
REMARK  Name = 
REMARK  5 active torsions:
REMARK  status: ('A' for Active; 'I' for Inactive)
REMARK    1  A    between atoms: C_1  and  C_2
REMARK    2  A    between atoms: C_4  and  O_5
REMARK    3  A    between atoms: C_8  and  N_9
REMARK    4  A    between atoms: N_9  and  S_10
REMARK    5  A    between atoms: S_10  and  C_13
REMARK                            x       y       z     vdW  Elec       q    Type
REMARK                         _______ _______ _______ _____ _____    ______ ____
ROOT
ATOM      1  N   UNL     1       4.388   3.107  18.575  0.00  0.00    +0.000 N 
ATOM      2  H   UNL     1       4.272   2.653  17.669  0.00  0.00    +0.000 HD
ENDROOT
BRANCH   1   9
ATOM      3  C   UNL     1       1.510   3.633  17.991  0.00  0.00    +0.000 C 
ATOM      4  C   UNL     1       2.025   3.140  19.313  0.00  0.00    +0.000 A 
ATOM      5  C   UNL     1       1.120   2.981  20.377  0.00  0.00    +0.000 A 
ATOM      6  C   UNL     1       1.600   2.580  21.615  0.00  0.00    +0.000 A 
ATOM      7  N   UNL     1       2.891   2.326  21.871  0.00  0.00    +0.000 NA
ATOM      8  C   UNL     1       3.750   2.501  20.844  0.00  0.00    +0.000 A 
ATOM      9  C   UNL     1       3.381   2.890  19.558  0.00  0.00    +0.000 A 
BRANCH   6  10
ATOM     10  O   UNL     1       0.771   2.441  22.685  0.00  0.00    +0.000 OA
ATOM     11  H   UNL     1       0.057   3.089  22.604  0.00  0.00    +0.000 HD
ENDBRANCH   6  10
ENDBRANCH   1   9
BRANCH   1  12
ATOM     12  S   UNL     1       5.223   4.560  18.468  0.00  0.00    +0.000 S 
ATOM     13  O   UNL     1       4.274   5.638  18.644  0.00  0.00    +0.000 OA
ATOM     14  O   UNL     1       6.368   4.439  19.346  0.00  0.00    +0.000 OA
BRANCH  12  15
ATOM     15  C   UNL     1       5.852   4.687  16.823  0.00  0.00    +0.000 A 
ATOM     16  C   UNL     1       7.178   5.093  16.608  0.00  0.00    +0.000 A 
ATOM     17  C   UNL     1       7.696   5.118  15.312  0.00  0.00    +0.000 A 
ATOM     18  C   UNL     1       6.894   4.742  14.234  0.00  0.00    +0.000 A 
ATOM     19  C   UNL     1       5.583   4.337  14.462  0.00  0.00    +0.000 A 
ATOM     20  F   UNL     1       4.816   3.985  13.422  0.00  0.00    +0.000 F 
ATOM     21  C   UNL     1       5.061   4.297  15.754  0.00  0.00    +0.000 A 
ATOM     22  F   UNL     1       3.787   3.923  15.940  0.00  0.00    +0.000 F 
ENDBRANCH  12  15
ENDBRANCH   1  12
TORSDOF 4
ENDMDL
MODEL 2
REMARK VINA RESULT:      -7.3      3.465      6.431
REMARK  Name = 
REMARK  5 active torsions:
REMARK  status: ('A' for Active; 'I' for Inactive)
REMARK    1  A    between atoms: C_1  and  C_2
REMARK    2  A    between atoms: C_4  and  O_5
REMARK    3  A    between atoms: C_8  and  N_9
REMARK    4  A    between atoms: N_9  and  S_10
REMARK    5  A    between atoms: S_10  and  C_13
REMARK                            x       y       z     vdW  Elec       q    Type
REMARK                         _______ _______ _______ _____ _____    ______ ____
ROOT
ATOM      1  N   UNL     1       4.266   6.208  19.311  0.00  0.00    +0.000 N 
ATOM      2  H   UNL     1       4.668   6.827  20.015  0.00  0.00    +0.000 HD
ENDROOT
BRANCH   1   9
ATOM      3  C   UNL     1       4.989   3.379  18.700  0.00  0.00    +0.000 C 
ATOM      4  C   UNL     1       5.434   4.557  17.881  0.00  0.00    +0.000 A 
ATOM      5  C   UNL     1       6.306   4.343  16.800  0.00  0.00    +0.000 A 
ATOM      6  C   UNL     1       6.764   5.435  16.078  0.00  0.00    +0.000 A 
ATOM      7  N   UNL     1       6.423   6.704  16.342  0.00  0.00    +0.000 NA
ATOM      8  C   UNL     1       5.599   6.895  17.395  0.00  0.00    +0.000 A 
ATOM      9  C   UNL     1       5.070   5.876  18.185  0.00  0.00    +0.000 A 
BRANCH   6  10
ATOM     10  O   UNL     1       7.633   5.285  15.042  0.00  0.00    +0.000 OA
ATOM     11  H   UNL     1       7.669   6.118  14.551  0.00  0.00    +0.000 HD
ENDBRANCH   6  10
ENDBRANCH   1   9
BRANCH   1  12
ATOM     12  S   UNL     1       2.597   6.358  19.195  0.00  0.00    +0.000 S 
ATOM     13  O   UNL     1       2.142   7.178  20.297  0.00  0.00    +0.000 OA
ATOM     14  O   UNL     1       2.317   6.746  17.828  0.00  0.00    +0.000 OA
BRANCH  12  15
ATOM     15  C   UNL     1       1.904   4.751  19.424  0.00  0.00    +0.000 A 
ATOM     16  C   UNL     1       1.417   4.033  18.321  0.00  0.00    +0.000 A 
ATOM     17  C   UNL     1       0.941   2.732  18.493  0.00  0.00    +0.000 A 
ATOM     18  C   UNL     1       0.949   2.151  19.762  0.00  0.00    +0.000 A 
ATOM     19  C   UNL     1       1.440   2.872  20.845  0.00  0.00    +0.000 A 
ATOM     20  F   UNL     1       1.436   2.309  22.061  0.00  0.00    +0.000 F 
ATOM     21  C   UNL     1       1.928   4.166  20.681  0.00  0.00    +0.000 A 
ATOM     22  F   UNL     1       2.373   4.845  21.748  0.00  0.00    +0.000 F 
ENDBRANCH  12  15
ENDBRANCH   1  12
TORSDOF 4
ENDMDL
MODEL 3
REMARK VINA RESULT:      -7.3      2.914      5.954
REMARK  Name = 
REMARK  5 active torsions:
REMARK  status: ('A' for Active; 'I' for Inactive)
REMARK    1  A    between atoms: C_1  and  C_2
REMARK    2  A    between atoms: C_4  and  O_5
REMARK    3  A    between atoms: C_8  and  N_9
REMARK    4  A    between atoms: N_9  and  S_10
REMARK    5  A    between atoms: S_10  and  C_13
REMARK                            x       y       z     vdW  Elec       q    Type
REMARK                         _______ _______ _______ _____ _____    ______ ____
ROOT
ATOM      1  N   UNL     1       4.208   4.554  16.998  0.00  0.00    +0.000 N 
ATOM      2  H   UNL     1       4.151   4.812  16.013  0.00  0.00    +0.000 HD
ENDROOT
BRANCH   1   9
ATOM      3  C   UNL     1       6.845   4.202  15.649  0.00  0.00    +0.000 C 
ATOM      4  C   UNL     1       6.681   4.645  17.075  0.00  0.00    +0.000 A 
ATOM      5  C   UNL     1       7.830   4.839  17.861  0.00  0.00    +0.000 A 
ATOM      6  C   UNL     1       7.681   5.193  19.194  0.00  0.00    +0.000 A 
ATOM      7  N   UNL     1       6.496   5.369  19.795  0.00  0.00    +0.000 NA
ATOM      8  C   UNL     1       5.402   5.161  19.030  0.00  0.00    +0.000 A 
ATOM      9  C   UNL     1       5.430   4.813  17.681  0.00  0.00    +0.000 A 
BRANCH   6  10
ATOM     10  O   UNL     1       8.760   5.363  20.006  0.00  0.00    +0.000 OA
ATOM     11  H   UNL     1       9.561   5.280  19.470  0.00  0.00    +0.000 HD
ENDBRANCH   6  10
ENDBRANCH   1   9
BRANCH   1  12
ATOM     12  S   UNL     1       3.245   3.230  17.376  0.00  0.00    +0.000 S 
ATOM     13  O   UNL     1       2.085   3.258  16.513  0.00  0.00    +0.000 OA
ATOM     14  O   UNL     1       4.122   2.078  17.389  0.00  0.00    +0.000 OA
BRANCH  12  15
ATOM     15  C   UNL     1       2.668   3.452  19.030  0.00  0.00    +0.000 A 
ATOM     16  C   UNL     1       2.939   2.479  20.004  0.00  0.00    +0.000 A 
ATOM     17  C   UNL     1       2.548   2.693  21.327  0.00  0.00    +0.000 A 
ATOM     18  C   UNL     1       1.888   3.871  21.676  0.00  0.00    +0.000 A 
ATOM     19  C   UNL     1       1.630   4.829  20.701  0.00  0.00    +0.000 A 
ATOM     20  F   UNL     1       0.989   5.955  21.043  0.00  0.00    +0.000 F 
ATOM     21  C   UNL     1       2.027   4.630  19.380  0.00  0.00    +0.000 A 
ATOM     22  F   UNL     1       1.745   5.562  18.458  0.00  0.00    +0.000 F 
ENDBRANCH  12  15
ENDBRANCH   1  12
TORSDOF 4
ENDMDL
MODEL 4
REMARK VINA RESULT:      -7.3      3.018      6.215
REMARK  Name = 
REMARK  5 active torsions:
REMARK  status: ('A' for Active; 'I' for Inactive)
REMARK    1  A    between atoms: C_1  and  C_2
REMARK    2  A    between atoms: C_4  and  O_5
REMARK    3  A    between atoms: C_8  and  N_9
REMARK    4  A    between atoms: N_9  and  S_10
REMARK    5  A    between atoms: S_10  and  C_13
REMARK                            x       y       z     vdW  Elec       q    Type
REMARK                         _______ _______ _______ _____ _____    ______ ____
ROOT
ATOM      1  N   UNL     1       4.247   6.435  18.625  0.00  0.00    +0.000 N 
ATOM      2  H   UNL     1       4.764   7.222  19.018  0.00  0.00    +0.000 HD
ENDROOT
BRANCH   1   9
ATOM      3  C   UNL     1       4.965   3.541  18.537  0.00  0.00    +0.000 C 
ATOM      4  C   UNL     1       5.112   4.481  17.374  0.00  0.00    +0.000 A 
ATOM      5  C   UNL     1       5.691   4.005  16.185  0.00  0.00    +0.000 A 
ATOM      6  C   UNL     1       5.880   4.884  15.130  0.00  0.00    +0.000 A 
ATOM      7  N   UNL     1       5.540   6.180  15.164  0.00  0.00    +0.000 NA
ATOM      8  C   UNL     1       5.002   6.626  16.320  0.00  0.00    +0.000 A 
ATOM      9  C   UNL     1       4.757   5.834  17.440  0.00  0.00    +0.000 A 
BRANCH   6  10
ATOM     10  O   UNL     1       6.464   4.482  13.968  0.00  0.00    +0.000 OA
ATOM     11  H   UNL     1       7.385   4.779  13.971  0.00  0.00    +0.000 HD
ENDBRANCH   6  10
ENDBRANCH   1   9
BRANCH   1  12
ATOM     12  S   UNL     1       2.599   6.525  18.936  0.00  0.00    +0.000 S 
ATOM     13  O   UNL     1       2.390   7.514  19.970  0.00  0.00    +0.000 OA
ATOM     14  O   UNL     1       1.948   6.660  17.649  0.00  0.00    +0.000 OA
BRANCH  12  15
ATOM     15  C   UNL     1       2.101   4.967  19.600  0.00  0.00    +0.000 A 
ATOM     16  C   UNL     1       2.306   4.686  20.960  0.00  0.00    +0.000 A 
ATOM     17  C   UNL     1       1.842   3.485  21.500  0.00  0.00    +0.000 A 
ATOM     18  C   UNL     1       1.177   2.568  20.685  0.00  0.00    +0.000 A 
ATOM     19  C   UNL     1       0.976   2.861  19.341  0.00  0.00    +0.000 A 
ATOM     20  F   UNL     1       0.344   1.972  18.564  0.00  0.00    +0.000 F 
ATOM     21  C   UNL     1       1.425   4.063  18.796  0.00  0.00    +0.000 A 
ATOM     22  F   UNL     1       1.236   4.308  17.492  0.00  0.00    +0.000 F 
ENDBRANCH  12  15
ENDBRANCH   1  12
TORSDOF 4
ENDMDL
MODEL 5
REMARK VINA RESULT:      -7.2      3.552      5.978
REMARK  Name = 
REMARK  5 active torsions:
REMARK  status: ('A' for Active; 'I' for Inactive)
REMARK    1  A    between atoms: C_1  and  C_2
REMARK    2  A    between atoms: C_4  and  O_5
REMARK    3  A    between atoms: C_8  and  N_9
REMARK    4  A    between atoms: N_9  and  S_10
REMARK    5  A    between atoms: S_10  and  C_13
REMARK                            x       y       z     vdW  Elec       q    Type
REMARK                         _______ _______ _______ _____ _____    ______ ____
ROOT
ATOM      1  N   UNL     1       4.065   4.060  17.530  0.00  0.00    +0.000 N 
ATOM      2  H   UNL     1       4.249   3.112  17.202  0.00  0.00    +0.000 HD
ENDROOT
BRANCH   1   9
ATOM      3  C   UNL     1       5.353   5.911  15.578  0.00  0.00    +0.000 C 
ATOM      4  C   UNL     1       5.813   5.731  16.997  0.00  0.00    +0.000 A 
ATOM      5  C   UNL     1       6.965   6.411  17.429  0.00  0.00    +0.000 A 
ATOM      6  C   UNL     1       7.424   6.202  18.721  0.00  0.00    +0.000 A 
ATOM      7  N   UNL     1       6.834   5.384  19.603  0.00  0.00    +0.000 NA
ATOM      8  C   UNL     1       5.739   4.725  19.167  0.00  0.00    +0.000 A 
ATOM      9  C   UNL     1       5.182   4.862  17.897  0.00  0.00    +0.000 A 
BRANCH   6  10
ATOM     10  O   UNL     1       8.551   6.812  19.179  0.00  0.00    +0.000 OA
ATOM     11  H   UNL     1       8.886   6.306  19.933  0.00  0.00    +0.000 HD
ENDBRANCH   6  10
ENDBRANCH   1   9
BRANCH   1  12
ATOM     12  S   UNL     1       2.582   4.199  18.307  0.00  0.00    +0.000 S 
ATOM     13  O   UNL     1       1.545   3.856  17.359  0.00  0.00    +0.000 OA
ATOM     14  O   UNL     1       2.705   3.473  19.554  0.00  0.00    +0.000 OA
BRANCH  12  15
ATOM     15  C   UNL     1       2.362   5.900  18.724  0.00  0.00    +0.000 A 
ATOM     16  C   UNL     1       2.433   6.883  17.726  0.00  0.00    +0.000 A 
ATOM     17  C   UNL     1       2.181   8.219  18.045  0.00  0.00    +0.000 A 
ATOM     18  C   UNL     1       1.862   8.572  19.356  0.00  0.00    +0.000 A 
ATOM     19  C   UNL     1       1.790   7.587  20.335  0.00  0.00    +0.000 A 
ATOM     20  F   UNL     1       1.490   7.935  21.594  0.00  0.00    +0.000 F 
ATOM     21  C   UNL     1       2.027   6.250  20.024  0.00  0.00    +0.000 A 
ATOM     22  F   UNL     1       1.972   5.325  20.993  0.00  0.00    +0.000 F 
ENDBRANCH  12  15
ENDBRANCH   1  12
TORSDOF 4
ENDMDL
MODEL 6
REMARK VINA RESULT:      -7.2      2.210      2.623
REMARK  Name = 
REMARK  5 active torsions:
REMARK  status: ('A' for Active; 'I' for Inactive)
REMARK    1  A    between atoms: C_1  and  C_2
REMARK    2  A    between atoms: C_4  and  O_5
REMARK    3  A    between atoms: C_8  and  N_9
REMARK    4  A    between atoms: N_9  and  S_10
REMARK    5  A    between atoms: S_10  and  C_13
REMARK                            x       y       z     vdW  Elec       q    Type
REMARK                         _______ _______ _______ _____ _____    ______ ____
ROOT
ATOM      1  N   UNL     1       3.933   5.243  19.524  0.00  0.00    +0.000 N 
ATOM      2  H   UNL     1       3.879   5.853  20.340  0.00  0.00    +0.000 HD
ENDROOT
BRANCH   1   9
ATOM      3  C   UNL     1       2.439   3.975  21.774  0.00  0.00    +0.000 C 
ATOM      4  C   UNL     1       2.131   3.743  20.322  0.00  0.00    +0.000 A 
ATOM      5  C   UNL     1       1.131   2.817  19.979  0.00  0.00    +0.000 A 
ATOM      6  C   UNL     1       0.883   2.558  18.640  0.00  0.00    +0.000 A 
ATOM      7  N   UNL     1       1.542   3.143  17.629  0.00  0.00    +0.000 NA
ATOM      8  C   UNL     1       2.513   4.016  17.975  0.00  0.00    +0.000 A 
ATOM      9  C   UNL     1       2.842   4.360  19.285  0.00  0.00    +0.000 A 
BRANCH   6  10
ATOM     10  O   UNL     1      -0.054   1.649  18.255  0.00  0.00    +0.000 OA
ATOM     11  H   UNL     1      -0.506   1.325  19.047  0.00  0.00    +0.000 HD
ENDBRANCH   6  10
ENDBRANCH   1   9
BRANCH   1  12
ATOM     12  S   UNL     1       5.512   4.829  19.131  0.00  0.00    +0.000 S 
ATOM     13  O   UNL     1       6.396   5.796  19.743  0.00  0.00    +0.000 OA
ATOM     14  O   UNL     1       5.650   3.418  19.427  0.00  0.00    +0.000 OA
BRANCH  12  15
ATOM     15  C   UNL     1       5.684   5.003  17.382  0.00  0.00    +0.000 A 
ATOM     16  C   UNL     1       6.265   3.973  16.628  0.00  0.00    +0.000 A 
ATOM     17  C   UNL     1       6.330   4.080  15.237  0.00  0.00    +0.000 A 
ATOM     18  C   UNL     1       5.818   5.212  14.603  0.00  0.00    +0.000 A 
ATOM     19  C   UNL     1       5.239   6.223  15.362  0.00  0.00    +0.000 A 
ATOM     20  F   UNL     1       4.756   7.310  14.746  0.00  0.00    +0.000 F 
ATOM     21  C   UNL     1       5.159   6.120  16.749  0.00  0.00    +0.000 A 
ATOM     22  F   UNL     1       4.616   7.121  17.456  0.00  0.00    +0.000 F 
ENDBRANCH  12  15
ENDBRANCH   1  12
TORSDOF 4
ENDMDL
MODEL 7
REMARK VINA RESULT:      -7.2      1.698      2.067
REMARK  Name = 
REMARK  5 active torsions:
REMARK  status: ('A' for Active; 'I' for Inactive)
REMARK    1  A    between atoms: C_1  and  C_2
REMARK    2  A    between atoms: C_4  and  O_5
REMARK    3  A    between atoms: C_8  and  N_9
REMARK    4  A    between atoms: N_9  and  S_10
REMARK    5  A    between atoms: S_10  and  C_13
REMARK                            x       y       z     vdW  Elec       q    Type
REMARK                         _______ _______ _______ _____ _____    ______ ____
ROOT
ATOM      1  N   UNL     1       4.408   3.172  17.480  0.00  0.00    +0.000 N 
ATOM      2  H   UNL     1       3.989   2.802  16.627  0.00  0.00    +0.000 HD
ENDROOT
BRANCH   1   9
ATOM      3  C   UNL     1       1.611   4.190  17.680  0.00  0.00    +0.000 C 
ATOM      4  C   UNL     1       2.352   3.536  18.812  0.00  0.00    +0.000 A 
ATOM      5  C   UNL     1       1.735   3.456  20.072  0.00  0.00    +0.000 A 
ATOM      6  C   UNL     1       2.438   2.905  21.132  0.00  0.00    +0.000 A 
ATOM      7  N   UNL     1       3.688   2.431  21.037  0.00  0.00    +0.000 NA
ATOM      8  C   UNL     1       4.274   2.531  19.824  0.00  0.00    +0.000 A 
ATOM      9  C   UNL     1       3.663   3.057  18.687  0.00  0.00    +0.000 A 
BRANCH   6  10
ATOM     10  O   UNL     1       1.897   2.832  22.379  0.00  0.00    +0.000 OA
ATOM     11  H   UNL     1       2.610   2.931  23.026  0.00  0.00    +0.000 HD
ENDBRANCH   6  10
ENDBRANCH   1   9
BRANCH   1  12
ATOM     12  S   UNL     1       5.425   4.475  17.188  0.00  0.00    +0.000 S 
ATOM     13  O   UNL     1       4.642   5.688  17.286  0.00  0.00    +0.000 OA
ATOM     14  O   UNL     1       6.588   4.283  18.029  0.00  0.00    +0.000 OA
BRANCH  12  15
ATOM     15  C   UNL     1       5.978   4.349  15.515  0.00  0.00    +0.000 A 
ATOM     16  C   UNL     1       5.260   3.570  14.596  0.00  0.00    +0.000 A 
ATOM     17  C   UNL     1       5.654   3.535  13.257  0.00  0.00    +0.000 A 
ATOM     18  C   UNL     1       6.762   4.272  12.838  0.00  0.00    +0.000 A 
ATOM     19  C   UNL     1       7.462   5.044  13.760  0.00  0.00    +0.000 A 
ATOM     20  F   UNL     1       8.529   5.743  13.351  0.00  0.00    +0.000 F 
ATOM     21  C   UNL     1       7.068   5.095  15.095  0.00  0.00    +0.000 A 
ATOM     22  F   UNL     1       7.776   5.831  15.965  0.00  0.00    +0.000 F 
ENDBRANCH  12  15
ENDBRANCH   1  12
TORSDOF 4
ENDMDL
MODEL 8
REMARK VINA RESULT:      -7.1      2.786      5.551
REMARK  Name = 
REMARK  5 active torsions:
REMARK  status: ('A' for Active; 'I' for Inactive)
REMARK    1  A    between atoms: C_1  and  C_2
REMARK    2  A    between atoms: C_4  and  O_5
REMARK    3  A    between atoms: C_8  and  N_9
REMARK    4  A    between atoms: N_9  and  S_10
REMARK    5  A    between atoms: S_10  and  C_13
REMARK                            x       y       z     vdW  Elec       q    Type
REMARK                         _______ _______ _______ _____ _____    ______ ____
ROOT
ATOM      1  N   UNL     1       4.457   2.863  18.076  0.00  0.00    +0.000 N 
ATOM      2  H   UNL     1       4.675   1.992  18.560  0.00  0.00    +0.000 HD
ENDROOT
BRANCH   1   9
ATOM      3  C   UNL     1       5.845   3.965  15.676  0.00  0.00    +0.000 C 
ATOM      4  C   UNL     1       6.064   4.461  17.078  0.00  0.00    +0.000 A 
ATOM      5  C   UNL     1       7.034   5.453  17.303  0.00  0.00    +0.000 A 
ATOM      6  C   UNL     1       7.279   5.872  18.602  0.00  0.00    +0.000 A 
ATOM      7  N   UNL     1       6.641   5.389  19.678  0.00  0.00    +0.000 NA
ATOM      8  C   UNL     1       5.726   4.423  19.446  0.00  0.00    +0.000 A 
ATOM      9  C   UNL     1       5.391   3.932  18.186  0.00  0.00    +0.000 A 
BRANCH   6  10
ATOM     10  O   UNL     1       8.228   6.808  18.878  0.00  0.00    +0.000 OA
ATOM     11  H   UNL     1       7.812   7.682  18.843  0.00  0.00    +0.000 HD
ENDBRANCH   6  10
ENDBRANCH   1   9
BRANCH   1  12
ATOM     12  S   UNL     1       2.806   3.138  17.951  0.00  0.00    +0.000 S 
ATOM     13  O   UNL     1       2.490   3.355  16.556  0.00  0.00    +0.000 OA
ATOM     14  O   UNL     1       2.157   2.077  18.693  0.00  0.00    +0.000 OA
BRANCH  12  15
ATOM     15  C   UNL     1       2.455   4.645  18.802  0.00  0.00    +0.000 A 
ATOM     16  C   UNL     1       1.925   4.611  20.101  0.00  0.00    +0.000 A 
ATOM     17  C   UNL     1       1.721   5.802  20.801  0.00  0.00    +0.000 A 
ATOM     18  C   UNL     1       2.043   7.022  20.206  0.00  0.00    +0.000 A 
ATOM     19  C   UNL     1       2.573   7.041  18.920  0.00  0.00    +0.000 A 
ATOM     20  F   UNL     1       2.872   8.217  18.353  0.00  0.00    +0.000 F 
ATOM     21  C   UNL     1       2.791   5.857  18.218  0.00  0.00    +0.000 A 
ATOM     22  F   UNL     1       3.282   5.908  16.972  0.00  0.00    +0.000 F 
ENDBRANCH  12  15
ENDBRANCH   1  12
TORSDOF 4
ENDMDL
MODEL 9
REMARK VINA RESULT:      -7.0      2.330      6.505
REMARK  Name = 
REMARK  5 active torsions:
REMARK  status: ('A' for Active; 'I' for Inactive)
REMARK    1  A    between atoms: C_1  and  C_2
REMARK    2  A    between atoms: C_4  and  O_5
REMARK    3  A    between atoms: C_8  and  N_9
REMARK    4  A    between atoms: N_9  and  S_10
REMARK    5  A    between atoms: S_10  and  C_13
REMARK                            x       y       z     vdW  Elec       q    Type
REMARK                         _______ _______ _______ _____ _____    ______ ____
ROOT
ATOM      1  N   UNL     1       5.323   3.917  17.925  0.00  0.00    +0.000 N 
ATOM      2  H   UNL     1       5.829   3.349  18.605  0.00  0.00    +0.000 HD
ENDROOT
BRANCH   1   9
ATOM      3  C   UNL     1       7.573   5.867  17.737  0.00  0.00    +0.000 C 
ATOM      4  C   UNL     1       7.015   5.108  16.566  0.00  0.00    +0.000 A 
ATOM      5  C   UNL     1       7.521   5.375  15.281  0.00  0.00    +0.000 A 
ATOM      6  C   UNL     1       6.969   4.718  14.192  0.00  0.00    +0.000 A 
ATOM      7  N   UNL     1       5.971   3.828  14.280  0.00  0.00    +0.000 NA
ATOM      8  C   UNL     1       5.484   3.597  15.518  0.00  0.00    +0.000 A 
ATOM      9  C   UNL     1       5.965   4.190  16.684  0.00  0.00    +0.000 A 
BRANCH   6  10
ATOM     10  O   UNL     1       7.402   4.962  12.924  0.00  0.00    +0.000 OA
ATOM     11  H   UNL     1       6.730   5.490  12.470  0.00  0.00    +0.000 HD
ENDBRANCH   6  10
ENDBRANCH   1   9
BRANCH   1  12
ATOM     12  S   UNL     1       4.287   5.022  18.649  0.00  0.00    +0.000 S 
ATOM     13  O   UNL     1       5.002   5.671  19.726  0.00  0.00    +0.000 OA
ATOM     14  O   UNL     1       3.710   5.804  17.575  0.00  0.00    +0.000 OA
BRANCH  12  15
ATOM     15  C   UNL     1       2.966   4.106  19.381  0.00  0.00    +0.000 A 
ATOM     16  C   UNL     1       2.716   4.215  20.757  0.00  0.00    +0.000 A 
ATOM     17  C   UNL     1       1.623   3.551  21.320  0.00  0.00    +0.000 A 
ATOM     18  C   UNL     1       0.787   2.780  20.512  0.00  0.00    +0.000 A 
ATOM     19  C   UNL     1       1.044   2.686  19.149  0.00  0.00    +0.000 A 
ATOM     20  F   UNL     1       0.240   1.938  18.382  0.00  0.00    +0.000 F 
ATOM     21  C   UNL     1       2.124   3.355  18.576  0.00  0.00    +0.000 A 
ATOM     22  F   UNL     1       2.359   3.226  17.263  0.00  0.00    +0.000 F 
ENDBRANCH  12  15
ENDBRANCH   1  12
TORSDOF 4
ENDMDL
