MODEL 1
REMARK VINA RESULT:      -7.3      0.000      0.000
REMARK  Name = 
REMARK  8 active torsions:
REMARK  status: ('A' for Active; 'I' for Inactive)
REMARK    1  A    between atoms: C_1  and  N_2
REMARK    2  A    between atoms: C_8  and  C_9
REMARK    3  A    between atoms: C_12  and  N_13
REMARK    4  A    between atoms: C_17  and  C_18
REMARK    5  A    between atoms: N_26  and  C_27
REMARK    6  A    between atoms: C_27  and  C_28
REMARK    7  A    between atoms: C_28  and  C_29
REMARK    8  A    between atoms: C_29  and  N_30
REMARK                            x       y       z     vdW  Elec       q    Type
REMARK                         _______ _______ _______ _____ _____    ______ ____
ROOT
ATOM      1  C   UNL     1       1.283  17.646  18.067  0.00  0.00    +0.000 C 
ATOM      2  N   UNL     1       0.444  16.693  18.757  0.00  0.00    +0.000 N 
ATOM      3  C   UNL     1       0.883  15.380  18.718  0.00  0.00    +0.000 A 
ATOM      4  N   UNL     1       2.194  15.120  18.631  0.00  0.00    +0.000 NA
ATOM      5  C   UNL     1       2.566  13.831  18.670  0.00  0.00    +0.000 A 
ATOM      6  C   UNL     1       1.675  12.789  18.797  0.00  0.00    +0.000 A 
ATOM      7  C   UNL     1       2.106  11.407  18.861  0.00  0.00    +0.000 A 
ATOM      8  C   UNL     1       1.187  10.444  19.034  0.00  0.00    +0.000 A 
ATOM      9  C   UNL     1      -0.271  10.782  19.149  0.00  0.00    +0.000 A 
ATOM     10  O   UNL     1      -1.090   9.881  19.326  0.00  0.00    +0.000 OA
ATOM     11  N   UNL     1      -0.629  12.117  19.008  0.00  0.00    +0.000 N 
ATOM     12  C   UNL     1       0.341  13.148  18.857  0.00  0.00    +0.000 A 
ATOM     13  N   UNL     1      -0.062  14.434  18.803  0.00  0.00    +0.000 NA
ATOM     14  H   UNL     1      -0.537  16.694  18.506  0.00  0.00    +0.000 HD
ENDROOT
BRANCH   8  15
ATOM     15  C   UNL     1       1.611   9.039  19.095  0.00  0.00    +0.000 A 
ATOM     16  C   UNL     1       2.003   8.412  17.902  0.00  0.00    +0.000 A 
ATOM     17  C   UNL     1       2.322   7.053  17.889  0.00  0.00    +0.000 A 
ATOM     18  C   UNL     1       2.214   6.297  19.062  0.00  0.00    +0.000 A 
ATOM     19  C   UNL     1       1.864   6.929  20.261  0.00  0.00    +0.000 A 
ATOM     20  C   UNL     1       1.582   8.294  20.283  0.00  0.00    +0.000 A 
ATOM     21 CL   UNL     1       1.195   9.017  21.807  0.00  0.00    +0.000 Cl
BRANCH  18  22
ATOM     22  N   UNL     1       2.371   4.880  19.031  0.00  0.00    +0.000 N 
ATOM     23  C   UNL     1       1.358   4.097  18.490  0.00  0.00    +0.000 A 
ATOM     24  C   UNL     1       1.466   2.769  18.395  0.00  0.00    +0.000 A 
ATOM     25  C   UNL     1       2.616   2.104  18.941  0.00  0.00    +0.000 A 
ATOM     26  C   UNL     1       3.619   2.804  19.495  0.00  0.00    +0.000 A 
ATOM     27  C   UNL     1       4.792   2.169  20.172  0.00  0.00    +0.000 C 
ATOM     28  C   UNL     1       3.572   4.309  19.493  0.00  0.00    +0.000 A 
ATOM     29  O   UNL     1       4.533   4.939  19.936  0.00  0.00    +0.000 OA
ENDBRANCH  18  22
ENDBRANCH   8  15
BRANCH  11  30
ATOM     30  C   UNL     1      -2.048  12.470  19.019  0.00  0.00    +0.000 C 
BRANCH  30  31
ATOM     31  C   UNL     1      -2.682  12.457  20.419  0.00  0.00    +0.000 C 
BRANCH  31  32
ATOM     32  C   UNL     1      -2.462  13.748  21.211  0.00  0.00    +0.000 C 
BRANCH  32  33
ATOM     33  N   UNL     1      -2.675  14.912  20.351  0.00  0.00    +0.000 NA
ATOM     34  H   UNL     1      -2.532  14.649  19.377  0.00  0.00    +0.000 HD
ATOM     35  H   UNL     1      -1.964  15.614  20.560  0.00  0.00    +0.000 HD
ENDBRANCH  32  33
ENDBRANCH  31  32
ENDBRANCH  30  31
ENDBRANCH  11  30
TORSDOF 6
ENDMDL
MODEL 2
REMARK VINA RESULT:      -7.3      2.154      2.504
REMARK  Name = 
REMARK  8 active torsions:
REMARK  status: ('A' for Active; 'I' for Inactive)
REMARK    1  A    between atoms: C_1  and  N_2
REMARK    2  A    between atoms: C_8  and  C_9
REMARK    3  A    between atoms: C_12  and  N_13
REMARK    4  A    between atoms: C_17  and  C_18
REMARK    5  A    between atoms: N_26  and  C_27
REMARK    6  A    between atoms: C_27  and  C_28
REMARK    7  A    between atoms: C_28  and  C_29
REMARK    8  A    between atoms: C_29  and  N_30
REMARK                            x       y       z     vdW  Elec       q    Type
REMARK                         _______ _______ _______ _____ _____    ______ ____
ROOT
ATOM      1  C   UNL     1      -1.183  17.734  21.195  0.00  0.00    +0.000 C 
ATOM      2  N   UNL     1      -1.836  16.446  21.256  0.00  0.00    +0.000 N 
ATOM      3  C   UNL     1      -1.054  15.367  20.881  0.00  0.00    +0.000 A 
ATOM      4  N   UNL     1       0.272  15.411  21.064  0.00  0.00    +0.000 NA
ATOM      5  C   UNL     1       0.971  14.309  20.750  0.00  0.00    +0.000 A 
ATOM      6  C   UNL     1       0.392  13.159  20.260  0.00  0.00    +0.000 A 
ATOM      7  C   UNL     1       1.167  11.975  19.951  0.00  0.00    +0.000 A 
ATOM      8  C   UNL     1       0.533  10.872  19.524  0.00  0.00    +0.000 A 
ATOM      9  C   UNL     1      -0.959  10.860  19.353  0.00  0.00    +0.000 A 
ATOM     10  O   UNL     1      -1.517   9.829  18.978  0.00  0.00    +0.000 OA
ATOM     11  N   UNL     1      -1.639  12.046  19.596  0.00  0.00    +0.000 N 
ATOM     12  C   UNL     1      -0.978  13.211  20.081  0.00  0.00    +0.000 A 
ATOM     13  N   UNL     1      -1.703  14.311  20.373  0.00  0.00    +0.000 NA
ATOM     14  H   UNL     1      -2.719  16.367  20.767  0.00  0.00    +0.000 HD
ENDROOT
BRANCH   8  15
ATOM     15  C   UNL     1       1.308   9.667  19.202  0.00  0.00    +0.000 A 
ATOM     16  C   UNL     1       1.789   9.518  17.892  0.00  0.00    +0.000 A 
ATOM     17  C   UNL     1       2.448   8.349  17.509  0.00  0.00    +0.000 A 
ATOM     18  C   UNL     1       2.598   7.299  18.423  0.00  0.00    +0.000 A 
ATOM     19  C   UNL     1       2.156   7.461  19.742  0.00  0.00    +0.000 A 
ATOM     20  C   UNL     1       1.532   8.644  20.135  0.00  0.00    +0.000 A 
ATOM     21 CL   UNL     1       1.048   8.792  21.789  0.00  0.00    +0.000 Cl
BRANCH  18  22
ATOM     22  N   UNL     1       3.114   6.037  18.003  0.00  0.00    +0.000 N 
ATOM     23  C   UNL     1       2.272   4.932  17.984  0.00  0.00    +0.000 A 
ATOM     24  C   UNL     1       2.686   3.735  17.560  0.00  0.00    +0.000 A 
ATOM     25  C   UNL     1       4.061   3.544  17.191  0.00  0.00    +0.000 A 
ATOM     26  C   UNL     1       4.929   4.568  17.208  0.00  0.00    +0.000 A 
ATOM     27  C   UNL     1       6.392   4.414  16.937  0.00  0.00    +0.000 C 
ATOM     28  C   UNL     1       4.448   5.951  17.559  0.00  0.00    +0.000 A 
ATOM     29  O   UNL     1       5.237   6.894  17.497  0.00  0.00    +0.000 OA
ENDBRANCH  18  22
ENDBRANCH   8  15
BRANCH  11  30
ATOM     30  C   UNL     1      -3.079  12.096  19.348  0.00  0.00    +0.000 C 
BRANCH  30  31
ATOM     31  C   UNL     1      -3.472  11.785  17.894  0.00  0.00    +0.000 C 
BRANCH  31  32
ATOM     32  C   UNL     1      -4.821  11.078  17.754  0.00  0.00    +0.000 C 
BRANCH  32  33
ATOM     33  N   UNL     1      -5.731  11.881  16.937  0.00  0.00    +0.000 NA
ATOM     34  H   UNL     1      -5.236  12.233  16.119  0.00  0.00    +0.000 HD
ATOM     35  H   UNL     1      -6.016  12.705  17.469  0.00  0.00    +0.000 HD
ENDBRANCH  32  33
ENDBRANCH  31  32
ENDBRANCH  30  31
ENDBRANCH  11  30
TORSDOF 6
ENDMDL
MODEL 3
REMARK VINA RESULT:      -7.2      2.467      3.147
REMARK  Name = 
REMARK  8 active torsions:
REMARK  status: ('A' for Active; 'I' for Inactive)
REMARK    1  A    between atoms: C_1  and  N_2
REMARK    2  A    between atoms: C_8  and  C_9
REMARK    3  A    between atoms: C_12  and  N_13
REMARK    4  A    between atoms: C_17  and  C_18
REMARK    5  A    between atoms: N_26  and  C_27
REMARK    6  A    between atoms: C_27  and  C_28
REMARK    7  A    between atoms: C_28  and  C_29
REMARK    8  A    between atoms: C_29  and  N_30
REMARK                            x       y       z     vdW  Elec       q    Type
REMARK                         _______ _______ _______ _____ _____    ______ ____
ROOT
ATOM      1  C   UNL     1      -3.348  16.347  21.963  0.00  0.00    +0.000 C 
ATOM      2  N   UNL     1      -3.743  15.128  21.295  0.00  0.00    +0.000 N 
ATOM      3  C   UNL     1      -2.720  14.227  21.052  0.00  0.00    +0.000 A 
ATOM      4  N   UNL     1      -1.665  14.181  21.875  0.00  0.00    +0.000 NA
ATOM      5  C   UNL     1      -0.739  13.241  21.632  0.00  0.00    +0.000 A 
ATOM      6  C   UNL     1      -0.830  12.338  20.596  0.00  0.00    +0.000 A 
ATOM      7  C   UNL     1       0.171  11.316  20.370  0.00  0.00    +0.000 A 
ATOM      8  C   UNL     1      -0.005  10.437  19.372  0.00  0.00    +0.000 A 
ATOM      9  C   UNL     1      -1.216  10.511  18.487  0.00  0.00    +0.000 A 
ATOM     10  O   UNL     1      -1.362   9.681  17.590  0.00  0.00    +0.000 OA
ATOM     11  N   UNL     1      -2.104  11.556  18.706  0.00  0.00    +0.000 N 
ATOM     12  C   UNL     1      -1.942  12.472  19.784  0.00  0.00    +0.000 A 
ATOM     13  N   UNL     1      -2.878  13.420  19.994  0.00  0.00    +0.000 NA
ATOM     14  H   UNL     1      -4.265  15.237  20.435  0.00  0.00    +0.000 HD
ENDROOT
BRANCH   8  15
ATOM     15  C   UNL     1       1.006   9.400  19.130  0.00  0.00    +0.000 A 
ATOM     16  C   UNL     1       1.648   9.378  17.882  0.00  0.00    +0.000 A 
ATOM     17  C   UNL     1       2.546   8.357  17.566  0.00  0.00    +0.000 A 
ATOM     18  C   UNL     1       2.782   7.325  18.481  0.00  0.00    +0.000 A 
ATOM     19  C   UNL     1       2.175   7.367  19.742  0.00  0.00    +0.000 A 
ATOM     20  C   UNL     1       1.307   8.406  20.072  0.00  0.00    +0.000 A 
ATOM     21 CL   UNL     1       0.624   8.416  21.662  0.00  0.00    +0.000 Cl
BRANCH  18  22
ATOM     22  N   UNL     1       3.561   6.189  18.112  0.00  0.00    +0.000 N 
ATOM     23  C   UNL     1       4.885   6.369  17.728  0.00  0.00    +0.000 A 
ATOM     24  C   UNL     1       5.676   5.340  17.414  0.00  0.00    +0.000 A 
ATOM     25  C   UNL     1       5.137   4.008  17.381  0.00  0.00    +0.000 A 
ATOM     26  C   UNL     1       3.860   3.772  17.721  0.00  0.00    +0.000 A 
ATOM     27  C   UNL     1       3.212   2.428  17.607  0.00  0.00    +0.000 C 
ATOM     28  C   UNL     1       2.992   4.904  18.203  0.00  0.00    +0.000 A 
ATOM     29  O   UNL     1       1.847   4.661  18.583  0.00  0.00    +0.000 OA
ENDBRANCH  18  22
ENDBRANCH   8  15
BRANCH  11  30
ATOM     30  C   UNL     1      -3.243  11.714  17.802  0.00  0.00    +0.000 C 
BRANCH  30  31
ATOM     31  C   UNL     1      -4.444  10.821  18.152  0.00  0.00    +0.000 C 
BRANCH  31  32
ATOM     32  C   UNL     1      -5.758  11.588  18.320  0.00  0.00    +0.000 C 
BRANCH  32  33
ATOM     33  N   UNL     1      -5.500  13.027  18.378  0.00  0.00    +0.000 NA
ATOM     34  H   UNL     1      -5.625  13.434  17.452  0.00  0.00    +0.000 HD
ATOM     35  H   UNL     1      -4.521  13.179  18.622  0.00  0.00    +0.000 HD
ENDBRANCH  32  33
ENDBRANCH  31  32
ENDBRANCH  30  31
ENDBRANCH  11  30
TORSDOF 6
ENDMDL
MODEL 4
REMARK VINA RESULT:      -7.2      2.789      9.319
REMARK  Name = 
REMARK  8 active torsions:
REMARK  status: ('A' for Active; 'I' for Inactive)
REMARK    1  A    between atoms: C_1  and  N_2
REMARK    2  A    between atoms: C_8  and  C_9
REMARK    3  A    between atoms: C_12  and  N_13
REMARK    4  A    between atoms: C_17  and  C_18
REMARK    5  A    between atoms: N_26  and  C_27
REMARK    6  A    between atoms: C_27  and  C_28
REMARK    7  A    between atoms: C_28  and  C_29
REMARK    8  A    between atoms: C_29  and  N_30
REMARK                            x       y       z     vdW  Elec       q    Type
REMARK                         _______ _______ _______ _____ _____    ______ ____
ROOT
ATOM      1  C   UNL     1       6.159   4.169  16.423  0.00  0.00    +0.000 C 
ATOM      2  N   UNL     1       4.936   4.072  17.186  0.00  0.00    +0.000 N 
ATOM      3  C   UNL     1       4.332   5.279  17.494  0.00  0.00    +0.000 A 
ATOM      4  N   UNL     1       4.480   6.326  16.672  0.00  0.00    +0.000 NA
ATOM      5  C   UNL     1       3.813   7.448  16.983  0.00  0.00    +0.000 A 
ATOM      6  C   UNL     1       2.998   7.564  18.087  0.00  0.00    +0.000 A 
ATOM      7  C   UNL     1       2.270   8.780  18.387  0.00  0.00    +0.000 A 
ATOM      8  C   UNL     1       1.455   8.808  19.452  0.00  0.00    +0.000 A 
ATOM      9  C   UNL     1       1.302   7.603  20.335  0.00  0.00    +0.000 A 
ATOM     10  O   UNL     1       0.533   7.650  21.296  0.00  0.00    +0.000 OA
ATOM     11  N   UNL     1       2.080   6.491  20.040  0.00  0.00    +0.000 N 
ATOM     12  C   UNL     1       2.922   6.442  18.892  0.00  0.00    +0.000 A 
ATOM     13  N   UNL     1       3.595   5.307  18.613  0.00  0.00    +0.000 NA
ATOM     14  H   UNL     1       4.981   3.528  18.039  0.00  0.00    +0.000 HD
ENDROOT
BRANCH   8  15
ATOM     15  C   UNL     1       0.716  10.036  19.770  0.00  0.00    +0.000 A 
ATOM     16  C   UNL     1       1.134  10.796  20.873  0.00  0.00    +0.000 A 
ATOM     17  C   UNL     1       0.409  11.918  21.276  0.00  0.00    +0.000 A 
ATOM     18  C   UNL     1      -0.765  12.272  20.601  0.00  0.00    +0.000 A 
ATOM     19  C   UNL     1      -1.162  11.540  19.474  0.00  0.00    +0.000 A 
ATOM     20  C   UNL     1      -0.417  10.441  19.049  0.00  0.00    +0.000 A 
ATOM     21 CL   UNL     1      -0.943   9.609  17.627  0.00  0.00    +0.000 Cl
BRANCH  18  22
ATOM     22  N   UNL     1      -1.607  13.309  21.099  0.00  0.00    +0.000 N 
ATOM     23  C   UNL     1      -1.597  14.551  20.474  0.00  0.00    +0.000 A 
ATOM     24  C   UNL     1      -2.394  15.547  20.868  0.00  0.00    +0.000 A 
ATOM     25  C   UNL     1      -3.231  15.378  22.024  0.00  0.00    +0.000 A 
ATOM     26  C   UNL     1      -3.270  14.209  22.683  0.00  0.00    +0.000 A 
ATOM     27  C   UNL     1      -4.039  14.002  23.949  0.00  0.00    +0.000 C 
ATOM     28  C   UNL     1      -2.475  13.036  22.173  0.00  0.00    +0.000 A 
ATOM     29  O   UNL     1      -2.579  11.949  22.742  0.00  0.00    +0.000 OA
ENDBRANCH  18  22
ENDBRANCH   8  15
BRANCH  11  30
ATOM     30  C   UNL     1       2.027   5.336  20.935  0.00  0.00    +0.000 C 
BRANCH  30  31
ATOM     31  C   UNL     1       1.049   4.241  20.480  0.00  0.00    +0.000 C 
BRANCH  31  32
ATOM     32  C   UNL     1       1.290   2.881  21.140  0.00  0.00    +0.000 C 
BRANCH  32  33
ATOM     33  N   UNL     1       2.458   2.946  22.019  0.00  0.00    +0.000 NA
ATOM     34  H   UNL     1       2.434   2.169  22.679  0.00  0.00    +0.000 HD
ATOM     35  H   UNL     1       2.404   3.795  22.582  0.00  0.00    +0.000 HD
ENDBRANCH  32  33
ENDBRANCH  31  32
ENDBRANCH  30  31
ENDBRANCH  11  30
TORSDOF 6
ENDMDL
MODEL 5
REMARK VINA RESULT:      -7.2      2.848      9.380
REMARK  Name = 
REMARK  8 active torsions:
REMARK  status: ('A' for Active; 'I' for Inactive)
REMARK    1  A    between atoms: C_1  and  N_2
REMARK    2  A    between atoms: C_8  and  C_9
REMARK    3  A    between atoms: C_12  and  N_13
REMARK    4  A    between atoms: C_17  and  C_18
REMARK    5  A    between atoms: N_26  and  C_27
REMARK    6  A    between atoms: C_27  and  C_28
REMARK    7  A    between atoms: C_28  and  C_29
REMARK    8  A    between atoms: C_29  and  N_30
REMARK                            x       y       z     vdW  Elec       q    Type
REMARK                         _______ _______ _______ _____ _____    ______ ____
ROOT
ATOM      1  C   UNL     1       6.479   4.241  16.375  0.00  0.00    +0.000 C 
ATOM      2  N   UNL     1       5.262   4.078  17.137  0.00  0.00    +0.000 N 
ATOM      3  C   UNL     1       4.594   5.250  17.444  0.00  0.00    +0.000 A 
ATOM      4  N   UNL     1       4.686   6.304  16.624  0.00  0.00    +0.000 NA
ATOM      5  C   UNL     1       3.960   7.389  16.934  0.00  0.00    +0.000 A 
ATOM      6  C   UNL     1       3.139   7.460  18.037  0.00  0.00    +0.000 A 
ATOM      7  C   UNL     1       2.346   8.635  18.337  0.00  0.00    +0.000 A 
ATOM      8  C   UNL     1       1.529   8.618  19.401  0.00  0.00    +0.000 A 
ATOM      9  C   UNL     1       1.439   7.406  20.283  0.00  0.00    +0.000 A 
ATOM     10  O   UNL     1       0.668   7.410  21.243  0.00  0.00    +0.000 OA
ATOM     11  N   UNL     1       2.276   6.338  19.988  0.00  0.00    +0.000 N 
ATOM     12  C   UNL     1       3.121   6.334  18.842  0.00  0.00    +0.000 A 
ATOM     13  N   UNL     1       3.855   5.237  18.562  0.00  0.00    +0.000 NA
ATOM     14  H   UNL     1       5.335   3.535  17.989  0.00  0.00    +0.000 HD
ENDROOT
BRANCH   8  15
ATOM     15  C   UNL     1       0.725   9.804  19.719  0.00  0.00    +0.000 A 
ATOM     16  C   UNL     1       1.029  10.519  20.888  0.00  0.00    +0.000 A 
ATOM     17  C   UNL     1       0.235  11.596  21.286  0.00  0.00    +0.000 A 
ATOM     18  C   UNL     1      -0.894  11.947  20.538  0.00  0.00    +0.000 A 
ATOM     19  C   UNL     1      -1.176  11.263  19.349  0.00  0.00    +0.000 A 
ATOM     20  C   UNL     1      -0.362  10.211  18.931  0.00  0.00    +0.000 A 
ATOM     21 CL   UNL     1      -0.745   9.438  17.432  0.00  0.00    +0.000 Cl
BRANCH  18  22
ATOM     22  N   UNL     1      -1.808  12.931  21.018  0.00  0.00    +0.000 N 
ATOM     23  C   UNL     1      -2.807  12.553  21.908  0.00  0.00    +0.000 A 
ATOM     24  C   UNL     1      -3.664  13.437  22.425  0.00  0.00    +0.000 A 
ATOM     25  C   UNL     1      -3.625  14.807  21.995  0.00  0.00    +0.000 A 
ATOM     26  C   UNL     1      -2.696  15.230  21.122  0.00  0.00    +0.000 A 
ATOM     27  C   UNL     1      -2.666  16.614  20.557  0.00  0.00    +0.000 C 
ATOM     28  C   UNL     1      -1.642  14.274  20.629  0.00  0.00    +0.000 A 
ATOM     29  O   UNL     1      -0.752  14.693  19.889  0.00  0.00    +0.000 OA
ENDBRANCH  18  22
ENDBRANCH   8  15
BRANCH  11  30
ATOM     30  C   UNL     1       2.284   5.180  20.882  0.00  0.00    +0.000 C 
BRANCH  30  31
ATOM     31  C   UNL     1       1.363   4.037  20.427  0.00  0.00    +0.000 C 
BRANCH  31  32
ATOM     32  C   UNL     1       1.303   2.862  21.407  0.00  0.00    +0.000 C 
BRANCH  32  33
ATOM     33  N   UNL     1       2.631   2.595  21.958  0.00  0.00    +0.000 NA
ATOM     34  H   UNL     1       2.684   1.626  22.270  0.00  0.00    +0.000 HD
ATOM     35  H   UNL     1       2.765   3.167  22.793  0.00  0.00    +0.000 HD
ENDBRANCH  32  33
ENDBRANCH  31  32
ENDBRANCH  30  31
ENDBRANCH  11  30
TORSDOF 6
ENDMDL
MODEL 6
REMARK VINA RESULT:      -7.2      2.195      3.727
REMARK  Name = 
REMARK  8 active torsions:
REMARK  status: ('A' for Active; 'I' for Inactive)
REMARK    1  A    between atoms: C_1  and  N_2
REMARK    2  A    between atoms: C_8  and  C_9
REMARK    3  A    between atoms: C_12  and  N_13
REMARK    4  A    between atoms: C_17  and  C_18
REMARK    5  A    between atoms: N_26  and  C_27
REMARK    6  A    between atoms: C_27  and  C_28
REMARK    7  A    between atoms: C_28  and  C_29
REMARK    8  A    between atoms: C_29  and  N_30
REMARK                            x       y       z     vdW  Elec       q    Type
REMARK                         _______ _______ _______ _____ _____    ______ ____
ROOT
ATOM      1  C   UNL     1      -5.856  14.441  20.544  0.00  0.00    +0.000 C 
ATOM      2  N   UNL     1      -4.435  14.702  20.513  0.00  0.00    +0.000 N 
ATOM      3  C   UNL     1      -3.638  13.607  20.225  0.00  0.00    +0.000 A 
ATOM      4  N   UNL     1      -4.114  12.621  19.455  0.00  0.00    +0.000 NA
ATOM      5  C   UNL     1      -3.273  11.621  19.151  0.00  0.00    +0.000 A 
ATOM      6  C   UNL     1      -1.967  11.570  19.585  0.00  0.00    +0.000 A 
ATOM      7  C   UNL     1      -1.073  10.490  19.222  0.00  0.00    +0.000 A 
ATOM      8  C   UNL     1       0.202  10.529  19.640  0.00  0.00    +0.000 A 
ATOM      9  C   UNL     1       0.700  11.666  20.485  0.00  0.00    +0.000 A 
ATOM     10  O   UNL     1       1.879  11.686  20.839  0.00  0.00    +0.000 OA
ATOM     11  N   UNL     1      -0.221  12.634  20.861  0.00  0.00    +0.000 N 
ATOM     12  C   UNL     1      -1.567  12.618  20.394  0.00  0.00    +0.000 A 
ATOM     13  N   UNL     1      -2.397  13.628  20.730  0.00  0.00    +0.000 NA
ATOM     14  H   UNL     1      -4.045  15.159  21.328  0.00  0.00    +0.000 HD
ENDROOT
BRANCH   8  15
ATOM     15  C   UNL     1       1.117   9.438  19.283  0.00  0.00    +0.000 A 
ATOM     16  C   UNL     1       1.645   9.413  17.983  0.00  0.00    +0.000 A 
ATOM     17  C   UNL     1       2.442   8.347  17.563  0.00  0.00    +0.000 A 
ATOM     18  C   UNL     1       2.688   7.274  18.428  0.00  0.00    +0.000 A 
ATOM     19  C   UNL     1       2.197   7.316  19.739  0.00  0.00    +0.000 A 
ATOM     20  C   UNL     1       1.432   8.398  20.170  0.00  0.00    +0.000 A 
ATOM     21 CL   UNL     1       0.893   8.403  21.814  0.00  0.00    +0.000 Cl
BRANCH  18  22
ATOM     22  N   UNL     1       3.355   6.102  17.962  0.00  0.00    +0.000 N 
ATOM     23  C   UNL     1       2.635   4.921  17.825  0.00  0.00    +0.000 A 
ATOM     24  C   UNL     1       3.194   3.804  17.353  0.00  0.00    +0.000 A 
ATOM     25  C   UNL     1       4.600   3.778  17.056  0.00  0.00    +0.000 A 
ATOM     26  C   UNL     1       5.353   4.881  17.188  0.00  0.00    +0.000 A 
ATOM     27  C   UNL     1       6.836   4.894  16.995  0.00  0.00    +0.000 C 
ATOM     28  C   UNL     1       4.711   6.182  17.594  0.00  0.00    +0.000 A 
ATOM     29  O   UNL     1       5.400   7.202  17.637  0.00  0.00    +0.000 OA
ENDBRANCH  18  22
ENDBRANCH   8  15
BRANCH  11  30
ATOM     30  C   UNL     1       0.208  13.703  21.761  0.00  0.00    +0.000 C 
BRANCH  30  31
ATOM     31  C   UNL     1       0.611  14.999  21.041  0.00  0.00    +0.000 C 
BRANCH  31  32
ATOM     32  C   UNL     1       2.079  15.387  21.238  0.00  0.00    +0.000 C 
BRANCH  32  33
ATOM     33  N   UNL     1       2.953  14.369  20.655  0.00  0.00    +0.000 NA
ATOM     34  H   UNL     1       3.396  14.738  19.815  0.00  0.00    +0.000 HD
ATOM     35  H   UNL     1       2.385  13.578  20.350  0.00  0.00    +0.000 HD
ENDBRANCH  32  33
ENDBRANCH  31  32
ENDBRANCH  30  31
ENDBRANCH  11  30
TORSDOF 6
ENDMDL
MODEL 7
REMARK VINA RESULT:      -7.1      1.848      2.064
REMARK  Name = 
REMARK  8 active torsions:
REMARK  status: ('A' for Active; 'I' for Inactive)
REMARK    1  A    between atoms: C_1  and  N_2
REMARK    2  A    between atoms: C_8  and  C_9
REMARK    3  A    between atoms: C_12  and  N_13
REMARK    4  A    between atoms: C_17  and  C_18
REMARK    5  A    between atoms: N_26  and  C_27
REMARK    6  A    between atoms: C_27  and  C_28
REMARK    7  A    between atoms: C_28  and  C_29
REMARK    8  A    between atoms: C_29  and  N_30
REMARK                            x       y       z     vdW  Elec       q    Type
REMARK                         _______ _______ _______ _____ _____    ______ ____
ROOT
ATOM      1  C   UNL     1      -0.789  18.009  21.075  0.00  0.00    +0.000 C 
ATOM      2  N   UNL     1      -1.491  16.752  21.201  0.00  0.00    +0.000 N 
ATOM      3  C   UNL     1      -0.769  15.630  20.827  0.00  0.00    +0.000 A 
ATOM      4  N   UNL     1       0.563  15.624  20.956  0.00  0.00    +0.000 NA
ATOM      5  C   UNL     1       1.203  14.485  20.647  0.00  0.00    +0.000 A 
ATOM      6  C   UNL     1       0.558  13.347  20.215  0.00  0.00    +0.000 A 
ATOM      7  C   UNL     1       1.271  12.123  19.910  0.00  0.00    +0.000 A 
ATOM      8  C   UNL     1       0.575  11.036  19.543  0.00  0.00    +0.000 A 
ATOM      9  C   UNL     1      -0.922  11.082  19.432  0.00  0.00    +0.000 A 
ATOM     10  O   UNL     1      -1.537  10.065  19.111  0.00  0.00    +0.000 OA
ATOM     11  N   UNL     1      -1.543  12.302  19.666  0.00  0.00    +0.000 N 
ATOM     12  C   UNL     1      -0.816  13.451  20.090  0.00  0.00    +0.000 A 
ATOM     13  N   UNL     1      -1.482  14.588  20.377  0.00  0.00    +0.000 NA
ATOM     14  H   UNL     1      -2.396  16.696  20.751  0.00  0.00    +0.000 HD
ENDROOT
BRANCH   8  15
ATOM     15  C   UNL     1       1.286   9.791  19.226  0.00  0.00    +0.000 A 
ATOM     16  C   UNL     1       1.762   9.613  17.918  0.00  0.00    +0.000 A 
ATOM     17  C   UNL     1       2.359   8.410  17.540  0.00  0.00    +0.000 A 
ATOM     18  C   UNL     1       2.451   7.356  18.456  0.00  0.00    +0.000 A 
ATOM     19  C   UNL     1       2.015   7.545  19.773  0.00  0.00    +0.000 A 
ATOM     20  C   UNL     1       1.453   8.760  20.162  0.00  0.00    +0.000 A 
ATOM     21 CL   UNL     1       0.973   8.938  21.814  0.00  0.00    +0.000 Cl
BRANCH  18  22
ATOM     22  N   UNL     1       2.901   6.068  18.041  0.00  0.00    +0.000 N 
ATOM     23  C   UNL     1       2.024   4.991  18.102  0.00  0.00    +0.000 A 
ATOM     24  C   UNL     1       2.374   3.771  17.686  0.00  0.00    +0.000 A 
ATOM     25  C   UNL     1       3.718   3.525  17.243  0.00  0.00    +0.000 A 
ATOM     26  C   UNL     1       4.618   4.520  17.181  0.00  0.00    +0.000 A 
ATOM     27  C   UNL     1       6.056   4.310  16.828  0.00  0.00    +0.000 C 
ATOM     28  C   UNL     1       4.202   5.926  17.522  0.00  0.00    +0.000 A 
ATOM     29  O   UNL     1       5.015   6.841  17.388  0.00  0.00    +0.000 OA
ENDBRANCH  18  22
ENDBRANCH   8  15
BRANCH  11  30
ATOM     30  C   UNL     1      -2.989  12.405  19.475  0.00  0.00    +0.000 C 
BRANCH  30  31
ATOM     31  C   UNL     1      -3.789  12.450  20.786  0.00  0.00    +0.000 C 
BRANCH  31  32
ATOM     32  C   UNL     1      -4.857  13.546  20.824  0.00  0.00    +0.000 C 
BRANCH  32  33
ATOM     33  N   UNL     1      -4.269  14.811  21.262  0.00  0.00    +0.000 NA
ATOM     34  H   UNL     1      -5.004  15.506  21.385  0.00  0.00    +0.000 HD
ATOM     35  H   UNL     1      -3.664  15.170  20.522  0.00  0.00    +0.000 HD
ENDBRANCH  32  33
ENDBRANCH  31  32
ENDBRANCH  30  31
ENDBRANCH  11  30
TORSDOF 6
ENDMDL
MODEL 8
REMARK VINA RESULT:      -7.0      1.509      1.921
REMARK  Name = 
REMARK  8 active torsions:
REMARK  status: ('A' for Active; 'I' for Inactive)
REMARK    1  A    between atoms: C_1  and  N_2
REMARK    2  A    between atoms: C_8  and  C_9
REMARK    3  A    between atoms: C_12  and  N_13
REMARK    4  A    between atoms: C_17  and  C_18
REMARK    5  A    between atoms: N_26  and  C_27
REMARK    6  A    between atoms: C_27  and  C_28
REMARK    7  A    between atoms: C_28  and  C_29
REMARK    8  A    between atoms: C_29  and  N_30
REMARK                            x       y       z     vdW  Elec       q    Type
REMARK                         _______ _______ _______ _____ _____    ______ ____
ROOT
ATOM      1  C   UNL     1      -0.056  17.664  18.293  0.00  0.00    +0.000 C 
ATOM      2  N   UNL     1      -0.856  16.508  18.627  0.00  0.00    +0.000 N 
ATOM      3  C   UNL     1      -0.171  15.306  18.673  0.00  0.00    +0.000 A 
ATOM      4  N   UNL     1       1.126  15.292  19.005  0.00  0.00    +0.000 NA
ATOM      5  C   UNL     1       1.720  14.092  19.104  0.00  0.00    +0.000 A 
ATOM      6  C   UNL     1       1.064  12.902  18.885  0.00  0.00    +0.000 A 
ATOM      7  C   UNL     1       1.723  11.619  19.021  0.00  0.00    +0.000 A 
ATOM      8  C   UNL     1       1.010  10.496  18.842  0.00  0.00    +0.000 A 
ATOM      9  C   UNL     1      -0.448  10.558  18.491  0.00  0.00    +0.000 A 
ATOM     10  O   UNL     1      -1.082   9.512  18.350  0.00  0.00    +0.000 OA
ATOM     11  N   UNL     1      -1.007  11.815  18.303  0.00  0.00    +0.000 N 
ATOM     12  C   UNL     1      -0.267  13.012  18.524  0.00  0.00    +0.000 A 
ATOM     13  N   UNL     1      -0.885  14.205  18.401  0.00  0.00    +0.000 NA
ATOM     14  H   UNL     1      -1.690  16.364  18.071  0.00  0.00    +0.000 HD
ENDROOT
BRANCH   8  15
ATOM     15  C   UNL     1       1.668   9.190  18.972  0.00  0.00    +0.000 A 
ATOM     16  C   UNL     1       2.274   8.635  17.833  0.00  0.00    +0.000 A 
ATOM     17  C   UNL     1       2.828   7.355  17.879  0.00  0.00    +0.000 A 
ATOM     18  C   UNL     1       2.749   6.600  19.054  0.00  0.00    +0.000 A 
ATOM     19  C   UNL     1       2.183   7.166  20.204  0.00  0.00    +0.000 A 
ATOM     20  C   UNL     1       1.663   8.459  20.169  0.00  0.00    +0.000 A 
ATOM     21 CL   UNL     1       1.016   9.110  21.635  0.00  0.00    +0.000 Cl
BRANCH  18  22
ATOM     22  N   UNL     1       3.156   5.233  19.070  0.00  0.00    +0.000 N 
ATOM     23  C   UNL     1       4.503   4.928  19.224  0.00  0.00    +0.000 A 
ATOM     24  C   UNL     1       4.939   3.667  19.290  0.00  0.00    +0.000 A 
ATOM     25  C   UNL     1       4.015   2.581  19.112  0.00  0.00    +0.000 A 
ATOM     26  C   UNL     1       2.703   2.812  18.939  0.00  0.00    +0.000 A 
ATOM     27  C   UNL     1       1.709   1.734  18.646  0.00  0.00    +0.000 C 
ATOM     28  C   UNL     1       2.179   4.222  18.993  0.00  0.00    +0.000 A 
ATOM     29  O   UNL     1       0.965   4.414  18.909  0.00  0.00    +0.000 OA
ENDBRANCH  18  22
ENDBRANCH   8  15
BRANCH  11  30
ATOM     30  C   UNL     1      -2.400  11.909  17.868  0.00  0.00    +0.000 C 
BRANCH  30  31
ATOM     31  C   UNL     1      -3.419  11.769  19.009  0.00  0.00    +0.000 C 
BRANCH  31  32
ATOM     32  C   UNL     1      -4.848  12.152  18.615  0.00  0.00    +0.000 C 
BRANCH  32  33
ATOM     33  N   UNL     1      -5.623  10.954  18.296  0.00  0.00    +0.000 NA
ATOM     34  H   UNL     1      -5.073  10.123  18.509  0.00  0.00    +0.000 HD
ATOM     35  H   UNL     1      -5.794  10.927  17.290  0.00  0.00    +0.000 HD
ENDBRANCH  32  33
ENDBRANCH  31  32
ENDBRANCH  30  31
ENDBRANCH  11  30
TORSDOF 6
ENDMDL
MODEL 9
REMARK VINA RESULT:      -7.0      2.261      3.955
REMARK  Name = 
REMARK  8 active torsions:
REMARK  status: ('A' for Active; 'I' for Inactive)
REMARK    1  A    between atoms: C_1  and  N_2
REMARK    2  A    between atoms: C_8  and  C_9
REMARK    3  A    between atoms: C_12  and  N_13
REMARK    4  A    between atoms: C_17  and  C_18
REMARK    5  A    between atoms: N_26  and  C_27
REMARK    6  A    between atoms: C_27  and  C_28
REMARK    7  A    between atoms: C_28  and  C_29
REMARK    8  A    between atoms: C_29  and  N_30
REMARK                            x       y       z     vdW  Elec       q    Type
REMARK                         _______ _______ _______ _____ _____    ______ ____
ROOT
ATOM      1  C   UNL     1      -6.942  13.139  18.695  0.00  0.00    +0.000 C 
ATOM      2  N   UNL     1      -5.617  13.593  19.051  0.00  0.00    +0.000 N 
ATOM      3  C   UNL     1      -4.612  12.651  18.915  0.00  0.00    +0.000 A 
ATOM      4  N   UNL     1      -4.720  11.691  17.988  0.00  0.00    +0.000 NA
ATOM      5  C   UNL     1      -3.684  10.849  17.853  0.00  0.00    +0.000 A 
ATOM      6  C   UNL     1      -2.536  10.934  18.610  0.00  0.00    +0.000 A 
ATOM      7  C   UNL     1      -1.421  10.027  18.427  0.00  0.00    +0.000 A 
ATOM      8  C   UNL     1      -0.313  10.197  19.164  0.00  0.00    +0.000 A 
ATOM      9  C   UNL     1      -0.225  11.301  20.178  0.00  0.00    +0.000 A 
ATOM     10  O   UNL     1       0.810  11.446  20.828  0.00  0.00    +0.000 OA
ATOM     11  N   UNL     1      -1.352  12.093  20.359  0.00  0.00    +0.000 N 
ATOM     12  C   UNL     1      -2.519  11.941  19.558  0.00  0.00    +0.000 A 
ATOM     13  N   UNL     1      -3.554  12.789  19.727  0.00  0.00    +0.000 NA
ATOM     14  H   UNL     1      -5.518  14.014  19.966  0.00  0.00    +0.000 HD
ENDROOT
BRANCH   8  15
ATOM     15  C   UNL     1       0.822   9.281  18.992  0.00  0.00    +0.000 A 
ATOM     16  C   UNL     1       1.500   9.288  17.763  0.00  0.00    +0.000 A 
ATOM     17  C   UNL     1       2.523   8.372  17.514  0.00  0.00    +0.000 A 
ATOM     18  C   UNL     1       2.853   7.412  18.478  0.00  0.00    +0.000 A 
ATOM     19  C   UNL     1       2.206   7.430  19.720  0.00  0.00    +0.000 A 
ATOM     20  C   UNL     1       1.211   8.369  19.984  0.00  0.00    +0.000 A 
ATOM     21 CL   UNL     1       0.483   8.358  21.553  0.00  0.00    +0.000 Cl
BRANCH  18  22
ATOM     22  N   UNL     1       3.773   6.365  18.177  0.00  0.00    +0.000 N 
ATOM     23  C   UNL     1       5.093   6.686  17.881  0.00  0.00    +0.000 A 
ATOM     24  C   UNL     1       6.010   5.746  17.635  0.00  0.00    +0.000 A 
ATOM     25  C   UNL     1       5.621   4.364  17.584  0.00  0.00    +0.000 A 
ATOM     26  C   UNL     1       4.357   3.992  17.840  0.00  0.00    +0.000 A 
ATOM     27  C   UNL     1       3.867   2.586  17.702  0.00  0.00    +0.000 C 
ATOM     28  C   UNL     1       3.341   5.027  18.247  0.00  0.00    +0.000 A 
ATOM     29  O   UNL     1       2.205   4.663  18.553  0.00  0.00    +0.000 OA
ENDBRANCH  18  22
ENDBRANCH   8  15
BRANCH  11  30
ATOM     30  C   UNL     1      -1.334  13.116  21.404  0.00  0.00    +0.000 C 
BRANCH  30  31
ATOM     31  C   UNL     1      -0.953  14.516  20.898  0.00  0.00    +0.000 C 
BRANCH  31  32
ATOM     32  C   UNL     1       0.555  14.774  20.866  0.00  0.00    +0.000 C 
BRANCH  32  33
ATOM     33  N   UNL     1       1.182  14.269  22.087  0.00  0.00    +0.000 NA
ATOM     34  H   UNL     1       2.004  14.829  22.308  0.00  0.00    +0.000 HD
ATOM     35  H   UNL     1       1.523  13.322  21.918  0.00  0.00    +0.000 HD
ENDBRANCH  32  33
ENDBRANCH  31  32
ENDBRANCH  30  31
ENDBRANCH  11  30
TORSDOF 6
ENDMDL
