MODEL 1
REMARK VINA RESULT:      -7.3      0.000      0.000
REMARK  Name = 
REMARK  5 active torsions:
REMARK  status: ('A' for Active; 'I' for Inactive)
REMARK    1  A    between atoms: C_1  and  N_2
REMARK    2  A    between atoms: C_5  and  N_6
REMARK    3  A    between atoms: C_9  and  N_10
REMARK    4  A    between atoms: N_10  and  C_11
REMARK    5  A    between atoms: C_11  and  C_12
REMARK                            x       y       z     vdW  Elec       q    Type
REMARK                         _______ _______ _______ _____ _____    ______ ____
ROOT
ATOM      1  C   UNL     1       3.881   1.827  17.294  0.00  0.00    +0.000 C 
ATOM      2  N   UNL     1       3.688   3.097  17.985  0.00  0.00    +0.000 N 
ATOM      3  C   UNL     1       3.048   3.080  19.223  0.00  0.00    +0.000 A 
ATOM      4  O   UNL     1       2.727   2.037  19.788  0.00  0.00    +0.000 OA
ATOM      5  C   UNL     1       2.783   4.398  19.827  0.00  0.00    +0.000 A 
ATOM      6  C   UNL     1       3.217   5.586  19.366  0.00  0.00    +0.000 A 
ATOM      7  C   UNL     1       4.014   5.534  18.101  0.00  0.00    +0.000 A 
ATOM      8  C   UNL     1       4.586   6.694  17.543  0.00  0.00    +0.000 A 
ATOM      9  C   UNL     1       5.314   6.650  16.353  0.00  0.00    +0.000 A 
ATOM     10  C   UNL     1       5.478   5.445  15.687  0.00  0.00    +0.000 A 
ATOM     11  C   UNL     1       4.926   4.282  16.218  0.00  0.00    +0.000 A 
ATOM     12  C   UNL     1       4.205   4.305  17.426  0.00  0.00    +0.000 A 
ENDROOT
BRANCH   5  13
ATOM     13  N   UNL     1       1.885   4.386  20.947  0.00  0.00    +0.000 N 
ATOM     14  O   UNL     1       0.742   4.828  20.756  0.00  0.00    +0.000 OA
ATOM     15  O   UNL     1       2.311   3.942  22.026  0.00  0.00    +0.000 OA
ENDBRANCH   5  13
BRANCH   6  16
ATOM     16  N   UNL     1       2.916   6.847  19.913  0.00  0.00    +0.000 N 
ATOM     17  H   UNL     1       2.660   6.775  20.897  0.00  0.00    +0.000 HD
BRANCH  16  18
ATOM     18  C   UNL     1       1.973   7.772  19.244  0.00  0.00    +0.000 C 
BRANCH  18  19
ATOM     19  C   UNL     1       1.197   8.614  20.237  0.00  0.00    +0.000 A 
ATOM     20  C   UNL     1       1.384   8.436  21.620  0.00  0.00    +0.000 A 
ATOM     21  C   UNL     1       0.736   9.250  22.554  0.00  0.00    +0.000 A 
ATOM     22  C   UNL     1      -0.103  10.272  22.130  0.00  0.00    +0.000 A 
ATOM     23  C   UNL     1      -0.292  10.486  20.766  0.00  0.00    +0.000 A 
ATOM     24  C   UNL     1       0.358   9.673  19.828  0.00  0.00    +0.000 A 
ATOM     25 CL   UNL     1       0.097  10.038  18.157  0.00  0.00    +0.000 Cl
ENDBRANCH  18  19
ENDBRANCH  16  18
ENDBRANCH   6  16
TORSDOF 4
ENDMDL
MODEL 2
REMARK VINA RESULT:      -7.1      2.426      3.571
REMARK  Name = 
REMARK  5 active torsions:
REMARK  status: ('A' for Active; 'I' for Inactive)
REMARK    1  A    between atoms: C_1  and  N_2
REMARK    2  A    between atoms: C_5  and  N_6
REMARK    3  A    between atoms: C_9  and  N_10
REMARK    4  A    between atoms: N_10  and  C_11
REMARK    5  A    between atoms: C_11  and  C_12
REMARK                            x       y       z     vdW  Elec       q    Type
REMARK                         _______ _______ _______ _____ _____    ______ ____
ROOT
ATOM      1  C   UNL     1       4.083   1.753  17.447  0.00  0.00    +0.000 C 
ATOM      2  N   UNL     1       3.831   3.151  17.780  0.00  0.00    +0.000 N 
ATOM      3  C   UNL     1       4.480   4.131  17.031  0.00  0.00    +0.000 A 
ATOM      4  O   UNL     1       5.178   3.865  16.055  0.00  0.00    +0.000 OA
ATOM      5  C   UNL     1       4.275   5.520  17.477  0.00  0.00    +0.000 A 
ATOM      6  C   UNL     1       3.423   5.930  18.436  0.00  0.00    +0.000 A 
ATOM      7  C   UNL     1       2.652   4.847  19.119  0.00  0.00    +0.000 A 
ATOM      8  C   UNL     1       1.679   5.138  20.095  0.00  0.00    +0.000 A 
ATOM      9  C   UNL     1       0.970   4.127  20.746  0.00  0.00    +0.000 A 
ATOM     10  C   UNL     1       1.226   2.799  20.443  0.00  0.00    +0.000 A 
ATOM     11  C   UNL     1       2.181   2.482  19.480  0.00  0.00    +0.000 A 
ATOM     12  C   UNL     1       2.891   3.489  18.800  0.00  0.00    +0.000 A 
ENDROOT
BRANCH   5  13
ATOM     13  N   UNL     1       5.159   6.487  16.889  0.00  0.00    +0.000 N 
ATOM     14  O   UNL     1       4.916   6.835  15.724  0.00  0.00    +0.000 OA
ATOM     15  O   UNL     1       6.103   6.903  17.580  0.00  0.00    +0.000 OA
ENDBRANCH   5  13
BRANCH   6  16
ATOM     16  N   UNL     1       3.270   7.251  18.898  0.00  0.00    +0.000 N 
ATOM     17  H   UNL     1       3.314   7.299  19.915  0.00  0.00    +0.000 HD
BRANCH  16  18
ATOM     18  C   UNL     1       2.156   8.106  18.430  0.00  0.00    +0.000 C 
BRANCH  18  19
ATOM     19  C   UNL     1       1.352   8.678  19.582  0.00  0.00    +0.000 A 
ATOM     20  C   UNL     1       1.714   8.394  20.911  0.00  0.00    +0.000 A 
ATOM     21  C   UNL     1       1.034   8.969  21.990  0.00  0.00    +0.000 A 
ATOM     22  C   UNL     1      -0.014   9.852  21.767  0.00  0.00    +0.000 A 
ATOM     23  C   UNL     1      -0.382  10.168  20.460  0.00  0.00    +0.000 A 
ATOM     24  C   UNL     1       0.299   9.595  19.378  0.00  0.00    +0.000 A 
ATOM     25 CL   UNL     1      -0.199  10.077  17.793  0.00  0.00    +0.000 Cl
ENDBRANCH  18  19
ENDBRANCH  16  18
ENDBRANCH   6  16
TORSDOF 4
ENDMDL
MODEL 3
REMARK VINA RESULT:      -7.0      1.205      1.823
REMARK  Name = 
REMARK  5 active torsions:
REMARK  status: ('A' for Active; 'I' for Inactive)
REMARK    1  A    between atoms: C_1  and  N_2
REMARK    2  A    between atoms: C_5  and  N_6
REMARK    3  A    between atoms: C_9  and  N_10
REMARK    4  A    between atoms: N_10  and  C_11
REMARK    5  A    between atoms: C_11  and  C_12
REMARK                            x       y       z     vdW  Elec       q    Type
REMARK                         _______ _______ _______ _____ _____    ______ ____
ROOT
ATOM      1  C   UNL     1       3.732   1.794  16.868  0.00  0.00    +0.000 C 
ATOM      2  N   UNL     1       3.576   2.936  17.761  0.00  0.00    +0.000 N 
ATOM      3  C   UNL     1       2.941   2.731  18.985  0.00  0.00    +0.000 A 
ATOM      4  O   UNL     1       2.594   1.617  19.372  0.00  0.00    +0.000 OA
ATOM      5  C   UNL     1       2.713   3.937  19.800  0.00  0.00    +0.000 A 
ATOM      6  C   UNL     1       3.176   5.173  19.538  0.00  0.00    +0.000 A 
ATOM      7  C   UNL     1       3.966   5.311  18.276  0.00  0.00    +0.000 A 
ATOM      8  C   UNL     1       4.566   6.533  17.913  0.00  0.00    +0.000 A 
ATOM      9  C   UNL     1       5.289   6.668  16.726  0.00  0.00    +0.000 A 
ATOM     10  C   UNL     1       5.419   5.586  15.869  0.00  0.00    +0.000 A 
ATOM     11  C   UNL     1       4.838   4.366  16.204  0.00  0.00    +0.000 A 
ATOM     12  C   UNL     1       4.123   4.206  17.406  0.00  0.00    +0.000 A 
ENDROOT
BRANCH   5  13
ATOM     13  N   UNL     1       1.819   3.763  20.910  0.00  0.00    +0.000 N 
ATOM     14  O   UNL     1       2.324   3.751  22.042  0.00  0.00    +0.000 OA
ATOM     15  O   UNL     1       0.608   3.633  20.664  0.00  0.00    +0.000 OA
ENDBRANCH   5  13
BRANCH   6  16
ATOM     16  N   UNL     1       2.910   6.333  20.289  0.00  0.00    +0.000 N 
ATOM     17  H   UNL     1       3.313   6.274  21.224  0.00  0.00    +0.000 HD
BRANCH  16  18
ATOM     18  C   UNL     1       1.540   6.884  20.397  0.00  0.00    +0.000 C 
BRANCH  18  19
ATOM     19  C   UNL     1       1.446   8.294  19.847  0.00  0.00    +0.000 A 
ATOM     20  C   UNL     1       1.917   8.586  18.554  0.00  0.00    +0.000 A 
ATOM     21  C   UNL     1       1.773   9.861  17.997  0.00  0.00    +0.000 A 
ATOM     22  C   UNL     1       1.144  10.871  18.712  0.00  0.00    +0.000 A 
ATOM     23  C   UNL     1       0.650  10.606  19.988  0.00  0.00    +0.000 A 
ATOM     24  C   UNL     1       0.790   9.329  20.548  0.00  0.00    +0.000 A 
ATOM     25 CL   UNL     1       0.111   9.082  22.119  0.00  0.00    +0.000 Cl
ENDBRANCH  18  19
ENDBRANCH  16  18
ENDBRANCH   6  16
TORSDOF 4
ENDMDL
MODEL 4
REMARK VINA RESULT:      -6.9      2.722      3.991
REMARK  Name = 
REMARK  5 active torsions:
REMARK  status: ('A' for Active; 'I' for Inactive)
REMARK    1  A    between atoms: C_1  and  N_2
REMARK    2  A    between atoms: C_5  and  N_6
REMARK    3  A    between atoms: C_9  and  N_10
REMARK    4  A    between atoms: N_10  and  C_11
REMARK    5  A    between atoms: C_11  and  C_12
REMARK                            x       y       z     vdW  Elec       q    Type
REMARK                         _______ _______ _______ _____ _____    ______ ____
ROOT
ATOM      1  C   UNL     1       4.289   1.756  17.636  0.00  0.00    +0.000 C 
ATOM      2  N   UNL     1       3.920   3.148  17.864  0.00  0.00    +0.000 N 
ATOM      3  C   UNL     1       4.536   4.126  17.084  0.00  0.00    +0.000 A 
ATOM      4  O   UNL     1       5.302   3.853  16.162  0.00  0.00    +0.000 OA
ATOM      5  C   UNL     1       4.208   5.521  17.427  0.00  0.00    +0.000 A 
ATOM      6  C   UNL     1       3.281   5.925  18.316  0.00  0.00    +0.000 A 
ATOM      7  C   UNL     1       2.554   4.831  19.030  0.00  0.00    +0.000 A 
ATOM      8  C   UNL     1       1.512   5.109  19.937  0.00  0.00    +0.000 A 
ATOM      9  C   UNL     1       0.845   4.089  20.619  0.00  0.00    +0.000 A 
ATOM     10  C   UNL     1       1.211   2.768  20.416  0.00  0.00    +0.000 A 
ATOM     11  C   UNL     1       2.236   2.464  19.523  0.00  0.00    +0.000 A 
ATOM     12  C   UNL     1       2.906   3.477  18.813  0.00  0.00    +0.000 A 
ENDROOT
BRANCH   5  13
ATOM     13  N   UNL     1       5.051   6.513  16.820  0.00  0.00    +0.000 N 
ATOM     14  O   UNL     1       6.055   6.863  17.456  0.00  0.00    +0.000 OA
ATOM     15  O   UNL     1       4.716   6.953  15.708  0.00  0.00    +0.000 OA
ENDBRANCH   5  13
BRANCH   6  16
ATOM     16  N   UNL     1       3.009   7.256  18.681  0.00  0.00    +0.000 N 
ATOM     17  H   UNL     1       2.969   7.365  19.694  0.00  0.00    +0.000 HD
BRANCH  16  18
ATOM     18  C   UNL     1       1.884   8.007  18.079  0.00  0.00    +0.000 C 
BRANCH  18  19
ATOM     19  C   UNL     1       1.696   9.368  18.721  0.00  0.00    +0.000 A 
ATOM     20  C   UNL     1       1.972  10.541  17.995  0.00  0.00    +0.000 A 
ATOM     21  C   UNL     1       1.736  11.807  18.539  0.00  0.00    +0.000 A 
ATOM     22  C   UNL     1       1.204  11.932  19.816  0.00  0.00    +0.000 A 
ATOM     23  C   UNL     1       0.902  10.788  20.551  0.00  0.00    +0.000 A 
ATOM     24  C   UNL     1       1.135   9.518  20.008  0.00  0.00    +0.000 A 
ATOM     25 CL   UNL     1       0.691   8.155  20.976  0.00  0.00    +0.000 Cl
ENDBRANCH  18  19
ENDBRANCH  16  18
ENDBRANCH   6  16
TORSDOF 4
ENDMDL
MODEL 5
REMARK VINA RESULT:      -6.8      1.247      1.776
REMARK  Name = 
REMARK  5 active torsions:
REMARK  status: ('A' for Active; 'I' for Inactive)
REMARK    1  A    between atoms: C_1  and  N_2
REMARK    2  A    between atoms: C_5  and  N_6
REMARK    3  A    between atoms: C_9  and  N_10
REMARK    4  A    between atoms: N_10  and  C_11
REMARK    5  A    between atoms: C_11  and  C_12
REMARK                            x       y       z     vdW  Elec       q    Type
REMARK                         _______ _______ _______ _____ _____    ______ ____
ROOT
ATOM      1  C   UNL     1       4.068   1.673  17.442  0.00  0.00    +0.000 C 
ATOM      2  N   UNL     1       3.786   3.018  17.932  0.00  0.00    +0.000 N 
ATOM      3  C   UNL     1       3.092   3.146  19.134  0.00  0.00    +0.000 A 
ATOM      4  O   UNL     1       2.793   2.180  19.833  0.00  0.00    +0.000 OA
ATOM      5  C   UNL     1       2.740   4.522  19.528  0.00  0.00    +0.000 A 
ATOM      6  C   UNL     1       3.140   5.652  18.915  0.00  0.00    +0.000 A 
ATOM      7  C   UNL     1       3.995   5.460  17.703  0.00  0.00    +0.000 A 
ATOM      8  C   UNL     1       4.538   6.555  17.004  0.00  0.00    +0.000 A 
ATOM      9  C   UNL     1       5.321   6.378  15.862  0.00  0.00    +0.000 A 
ATOM     10  C   UNL     1       5.570   5.100  15.386  0.00  0.00    +0.000 A 
ATOM     11  C   UNL     1       5.048   3.998  16.059  0.00  0.00    +0.000 A 
ATOM     12  C   UNL     1       4.273   4.157  17.223  0.00  0.00    +0.000 A 
ENDROOT
BRANCH   5  13
ATOM     13  N   UNL     1       1.793   4.625  20.603  0.00  0.00    +0.000 N 
ATOM     14  O   UNL     1       2.254   4.748  21.747  0.00  0.00    +0.000 OA
ATOM     15  O   UNL     1       0.586   4.581  20.316  0.00  0.00    +0.000 OA
ENDBRANCH   5  13
BRANCH   6  16
ATOM     16  N   UNL     1       2.757   6.961  19.261  0.00  0.00    +0.000 N 
ATOM     17  H   UNL     1       2.514   7.031  20.249  0.00  0.00    +0.000 HD
BRANCH  16  18
ATOM     18  C   UNL     1       1.748   7.702  18.471  0.00  0.00    +0.000 C 
BRANCH  18  19
ATOM     19  C   UNL     1       1.538   9.112  18.990  0.00  0.00    +0.000 A 
ATOM     20  C   UNL     1       1.805  10.220  18.166  0.00  0.00    +0.000 A 
ATOM     21  C   UNL     1       1.549  11.526  18.594  0.00  0.00    +0.000 A 
ATOM     22  C   UNL     1       1.007  11.756  19.852  0.00  0.00    +0.000 A 
ATOM     23  C   UNL     1       0.714  10.677  20.683  0.00  0.00    +0.000 A 
ATOM     24  C   UNL     1       0.967   9.367  20.255  0.00  0.00    +0.000 A 
ATOM     25 CL   UNL     1       0.533   8.089  21.336  0.00  0.00    +0.000 Cl
ENDBRANCH  18  19
ENDBRANCH  16  18
ENDBRANCH   6  16
TORSDOF 4
ENDMDL
MODEL 6
REMARK VINA RESULT:      -6.7      2.793      5.531
REMARK  Name = 
REMARK  5 active torsions:
REMARK  status: ('A' for Active; 'I' for Inactive)
REMARK    1  A    between atoms: C_1  and  N_2
REMARK    2  A    between atoms: C_5  and  N_6
REMARK    3  A    between atoms: C_9  and  N_10
REMARK    4  A    between atoms: N_10  and  C_11
REMARK    5  A    between atoms: C_11  and  C_12
REMARK                            x       y       z     vdW  Elec       q    Type
REMARK                         _______ _______ _______ _____ _____    ______ ____
ROOT
ATOM      1  C   UNL     1       1.442   5.719  21.192  0.00  0.00    +0.000 C 
ATOM      2  N   UNL     1       2.307   5.203  20.137  0.00  0.00    +0.000 N 
ATOM      3  C   UNL     1       2.618   3.845  20.149  0.00  0.00    +0.000 A 
ATOM      4  O   UNL     1       2.123   3.059  20.954  0.00  0.00    +0.000 OA
ATOM      5  C   UNL     1       3.580   3.397  19.126  0.00  0.00    +0.000 A 
ATOM      6  C   UNL     1       4.068   4.140  18.115  0.00  0.00    +0.000 A 
ATOM      7  C   UNL     1       3.597   5.558  18.071  0.00  0.00    +0.000 A 
ATOM      8  C   UNL     1       3.975   6.428  17.030  0.00  0.00    +0.000 A 
ATOM      9  C   UNL     1       3.551   7.758  16.998  0.00  0.00    +0.000 A 
ATOM     10  C   UNL     1       2.747   8.252  18.013  0.00  0.00    +0.000 A 
ATOM     11  C   UNL     1       2.355   7.413  19.053  0.00  0.00    +0.000 A 
ATOM     12  C   UNL     1       2.757   6.065  19.092  0.00  0.00    +0.000 A 
ENDROOT
BRANCH   5  13
ATOM     13  N   UNL     1       4.106   2.076  19.320  0.00  0.00    +0.000 N 
ATOM     14  O   UNL     1       4.952   1.933  20.215  0.00  0.00    +0.000 OA
ATOM     15  O   UNL     1       3.686   1.171  18.580  0.00  0.00    +0.000 OA
ENDBRANCH   5  13
BRANCH   6  16
ATOM     16  N   UNL     1       5.028   3.726  17.173  0.00  0.00    +0.000 N 
ATOM     17  H   UNL     1       4.793   2.818  16.774  0.00  0.00    +0.000 HD
BRANCH  16  18
ATOM     18  C   UNL     1       6.474   3.747  17.487  0.00  0.00    +0.000 C 
BRANCH  18  19
ATOM     19  C   UNL     1       6.995   5.157  17.690  0.00  0.00    +0.000 A 
ATOM     20  C   UNL     1       7.491   5.558  18.943  0.00  0.00    +0.000 A 
ATOM     21  C   UNL     1       8.045   6.827  19.136  0.00  0.00    +0.000 A 
ATOM     22  C   UNL     1       8.130   7.721  18.078  0.00  0.00    +0.000 A 
ATOM     23  C   UNL     1       7.665   7.345  16.819  0.00  0.00    +0.000 A 
ATOM     24  C   UNL     1       7.111   6.073  16.623  0.00  0.00    +0.000 A 
ATOM     25 CL   UNL     1       6.599   5.679  15.019  0.00  0.00    +0.000 Cl
ENDBRANCH  18  19
ENDBRANCH  16  18
ENDBRANCH   6  16
TORSDOF 4
ENDMDL
MODEL 7
REMARK VINA RESULT:      -6.7      3.958      7.742
REMARK  Name = 
REMARK  5 active torsions:
REMARK  status: ('A' for Active; 'I' for Inactive)
REMARK    1  A    between atoms: C_1  and  N_2
REMARK    2  A    between atoms: C_5  and  N_6
REMARK    3  A    between atoms: C_9  and  N_10
REMARK    4  A    between atoms: N_10  and  C_11
REMARK    5  A    between atoms: C_11  and  C_12
REMARK                            x       y       z     vdW  Elec       q    Type
REMARK                         _______ _______ _______ _____ _____    ______ ____
ROOT
ATOM      1  C   UNL     1       1.785   6.331  19.403  0.00  0.00    +0.000 C 
ATOM      2  N   UNL     1       2.856   5.702  18.640  0.00  0.00    +0.000 N 
ATOM      3  C   UNL     1       3.790   6.529  18.017  0.00  0.00    +0.000 A 
ATOM      4  O   UNL     1       3.794   7.749  18.160  0.00  0.00    +0.000 OA
ATOM      5  C   UNL     1       4.787   5.847  17.172  0.00  0.00    +0.000 A 
ATOM      6  C   UNL     1       4.960   4.517  17.061  0.00  0.00    +0.000 A 
ATOM      7  C   UNL     1       4.014   3.676  17.857  0.00  0.00    +0.000 A 
ATOM      8  C   UNL     1       4.123   2.272  17.887  0.00  0.00    +0.000 A 
ATOM      9  C   UNL     1       3.229   1.484  18.615  0.00  0.00    +0.000 A 
ATOM     10  C   UNL     1       2.199   2.083  19.323  0.00  0.00    +0.000 A 
ATOM     11  C   UNL     1       2.069   3.469  19.313  0.00  0.00    +0.000 A 
ATOM     12  C   UNL     1       2.972   4.280  18.601  0.00  0.00    +0.000 A 
ENDROOT
BRANCH   5  13
ATOM     13  N   UNL     1       5.555   6.710  16.319  0.00  0.00    +0.000 N 
ATOM     14  O   UNL     1       6.658   7.084  16.744  0.00  0.00    +0.000 OA
ATOM     15  O   UNL     1       5.066   7.024  15.221  0.00  0.00    +0.000 OA
ENDBRANCH   5  13
BRANCH   6  16
ATOM     16  N   UNL     1       5.875   3.869  16.212  0.00  0.00    +0.000 N 
ATOM     17  H   UNL     1       6.754   4.382  16.148  0.00  0.00    +0.000 HD
BRANCH  16  18
ATOM     18  C   UNL     1       5.486   3.426  14.854  0.00  0.00    +0.000 C 
BRANCH  18  19
ATOM     19  C   UNL     1       6.322   4.087  13.775  0.00  0.00    +0.000 A 
ATOM     20  C   UNL     1       7.323   5.013  14.119  0.00  0.00    +0.000 A 
ATOM     21  C   UNL     1       8.156   5.580  13.149  0.00  0.00    +0.000 A 
ATOM     22  C   UNL     1       8.018   5.224  11.814  0.00  0.00    +0.000 A 
ATOM     23  C   UNL     1       7.049   4.294  11.445  0.00  0.00    +0.000 A 
ATOM     24  C   UNL     1       6.214   3.723  12.415  0.00  0.00    +0.000 A 
ATOM     25 CL   UNL     1       5.068   2.548  11.872  0.00  0.00    +0.000 Cl
ENDBRANCH  18  19
ENDBRANCH  16  18
ENDBRANCH   6  16
TORSDOF 4
ENDMDL
MODEL 8
REMARK VINA RESULT:      -6.6      3.041      6.669
REMARK  Name = 
REMARK  5 active torsions:
REMARK  status: ('A' for Active; 'I' for Inactive)
REMARK    1  A    between atoms: C_1  and  N_2
REMARK    2  A    between atoms: C_5  and  N_6
REMARK    3  A    between atoms: C_9  and  N_10
REMARK    4  A    between atoms: N_10  and  C_11
REMARK    5  A    between atoms: C_11  and  C_12
REMARK                            x       y       z     vdW  Elec       q    Type
REMARK                         _______ _______ _______ _____ _____    ______ ____
ROOT
ATOM      1  C   UNL     1       1.444   5.587  20.932  0.00  0.00    +0.000 C 
ATOM      2  N   UNL     1       2.376   5.104  19.919  0.00  0.00    +0.000 N 
ATOM      3  C   UNL     1       2.683   3.744  19.906  0.00  0.00    +0.000 A 
ATOM      4  O   UNL     1       2.133   2.934  20.649  0.00  0.00    +0.000 OA
ATOM      5  C   UNL     1       3.710   3.328  18.934  0.00  0.00    +0.000 A 
ATOM      6  C   UNL     1       4.266   4.102  17.983  0.00  0.00    +0.000 A 
ATOM      7  C   UNL     1       3.802   5.523  17.957  0.00  0.00    +0.000 A 
ATOM      8  C   UNL     1       4.251   6.426  16.974  0.00  0.00    +0.000 A 
ATOM      9  C   UNL     1       3.833   7.759  16.959  0.00  0.00    +0.000 A 
ATOM     10  C   UNL     1       2.963   8.221  17.934  0.00  0.00    +0.000 A 
ATOM     11  C   UNL     1       2.501   7.349  18.917  0.00  0.00    +0.000 A 
ATOM     12  C   UNL     1       2.897   5.998  18.936  0.00  0.00    +0.000 A 
ENDROOT
BRANCH   5  13
ATOM     13  N   UNL     1       4.219   1.998  19.117  0.00  0.00    +0.000 N 
ATOM     14  O   UNL     1       5.057   1.836  20.016  0.00  0.00    +0.000 OA
ATOM     15  O   UNL     1       3.793   1.106  18.365  0.00  0.00    +0.000 OA
ENDBRANCH   5  13
BRANCH   6  16
ATOM     16  N   UNL     1       5.285   3.716  17.094  0.00  0.00    +0.000 N 
ATOM     17  H   UNL     1       6.086   4.345  17.148  0.00  0.00    +0.000 HD
BRANCH  16  18
ATOM     18  C   UNL     1       4.999   3.435  15.669  0.00  0.00    +0.000 C 
BRANCH  18  19
ATOM     19  C   UNL     1       5.993   4.108  14.742  0.00  0.00    +0.000 A 
ATOM     20  C   UNL     1       7.064   4.853  15.268  0.00  0.00    +0.000 A 
ATOM     21  C   UNL     1       8.035   5.420  14.438  0.00  0.00    +0.000 A 
ATOM     22  C   UNL     1       7.969   5.245  13.062  0.00  0.00    +0.000 A 
ATOM     23  C   UNL     1       6.931   4.495  12.513  0.00  0.00    +0.000 A 
ATOM     24  C   UNL     1       5.957   3.923  13.343  0.00  0.00    +0.000 A 
ATOM     25 CL   UNL     1       4.730   2.975  12.578  0.00  0.00    +0.000 Cl
ENDBRANCH  18  19
ENDBRANCH  16  18
ENDBRANCH   6  16
TORSDOF 4
ENDMDL
MODEL 9
REMARK VINA RESULT:      -6.5      3.118      7.194
REMARK  Name = 
REMARK  5 active torsions:
REMARK  status: ('A' for Active; 'I' for Inactive)
REMARK    1  A    between atoms: C_1  and  N_2
REMARK    2  A    between atoms: C_5  and  N_6
REMARK    3  A    between atoms: C_9  and  N_10
REMARK    4  A    between atoms: N_10  and  C_11
REMARK    5  A    between atoms: C_11  and  C_12
REMARK                            x       y       z     vdW  Elec       q    Type
REMARK                         _______ _______ _______ _____ _____    ______ ____
ROOT
ATOM      1  C   UNL     1      -0.439  11.818  18.796  0.00  0.00    +0.000 C 
ATOM      2  N   UNL     1       0.265  10.656  19.326  0.00  0.00    +0.000 N 
ATOM      3  C   UNL     1       1.146   9.982  18.482  0.00  0.00    +0.000 A 
ATOM      4  O   UNL     1       1.416  10.381  17.351  0.00  0.00    +0.000 OA
ATOM      5  C   UNL     1       1.748   8.754  19.031  0.00  0.00    +0.000 A 
ATOM      6  C   UNL     1       1.635   8.310  20.297  0.00  0.00    +0.000 A 
ATOM      7  C   UNL     1       0.782   9.144  21.199  0.00  0.00    +0.000 A 
ATOM      8  C   UNL     1       0.630   8.833  22.564  0.00  0.00    +0.000 A 
ATOM      9  C   UNL     1      -0.180   9.601  23.403  0.00  0.00    +0.000 A 
ATOM     10  C   UNL     1      -0.864  10.693  22.893  0.00  0.00    +0.000 A 
ATOM     11  C   UNL     1      -0.730  11.025  21.547  0.00  0.00    +0.000 A 
ATOM     12  C   UNL     1       0.097  10.274  20.691  0.00  0.00    +0.000 A 
ENDROOT
BRANCH   5  13
ATOM     13  N   UNL     1       2.422   7.923  18.073  0.00  0.00    +0.000 N 
ATOM     14  O   UNL     1       3.644   8.085  17.949  0.00  0.00    +0.000 OA
ATOM     15  O   UNL     1       1.738   7.107  17.434  0.00  0.00    +0.000 OA
ENDBRANCH   5  13
BRANCH   6  16
ATOM     16  N   UNL     1       2.165   7.109  20.803  0.00  0.00    +0.000 N 
ATOM     17  H   UNL     1       3.164   7.032  20.614  0.00  0.00    +0.000 HD
BRANCH  16  18
ATOM     18  C   UNL     1       1.526   5.804  20.518  0.00  0.00    +0.000 C 
BRANCH  18  19
ATOM     19  C   UNL     1       2.507   4.800  19.944  0.00  0.00    +0.000 A 
ATOM     20  C   UNL     1       3.844   5.168  19.707  0.00  0.00    +0.000 A 
ATOM     21  C   UNL     1       4.785   4.241  19.249  0.00  0.00    +0.000 A 
ATOM     22  C   UNL     1       4.417   2.921  19.028  0.00  0.00    +0.000 A 
ATOM     23  C   UNL     1       3.105   2.522  19.273  0.00  0.00    +0.000 A 
ATOM     24  C   UNL     1       2.160   3.448  19.734  0.00  0.00    +0.000 A 
ATOM     25 CL   UNL     1       0.566   2.855  20.049  0.00  0.00    +0.000 Cl
ENDBRANCH  18  19
ENDBRANCH  16  18
ENDBRANCH   6  16
TORSDOF 4
ENDMDL
