MODEL 1
REMARK VINA RESULT:      -7.6      0.000      0.000
REMARK  Name = 
REMARK  9 active torsions:
REMARK  status: ('A' for Active; 'I' for Inactive)
REMARK    1  A    between atoms: C_1  and  S_2
REMARK    2  A    between atoms: S_2  and  C_3
REMARK    3  A    between atoms: C_3  and  C_4
REMARK    4  A    between atoms: C_4  and  C_5
REMARK    5  A    between atoms: C_5  and  N_6
REMARK    6  A    between atoms: C_5  and  C_19
REMARK    7  A    between atoms: C_7  and  C_9
REMARK    8  A    between atoms: N_21  and  C_22
REMARK    9  A    between atoms: C_26  and  C_27
REMARK                            x       y       z     vdW  Elec       q    Type
REMARK                         _______ _______ _______ _____ _____    ______ ____
ROOT
ATOM      1  C   UNL     1       1.499   9.224  19.673  0.00  0.00    +0.000 C 
ENDROOT
BRANCH   1   2
ATOM      2  N   UNL     1       0.312   9.865  19.106  0.00  0.00    +0.000 N 
ATOM      3  C   UNL     1       0.147  11.225  19.046  0.00  0.00    +0.000 C 
ATOM      4  O   UNL     1       1.017  12.010  19.428  0.00  0.00    +0.000 OA
ATOM      5  H   UNL     1      -0.494   9.288  18.858  0.00  0.00    +0.000 HD
BRANCH   3   6
ATOM      6  C   UNL     1      -1.174  11.706  18.416  0.00  0.00    +0.000 C 
ATOM      7  C   UNL     1      -2.300  11.585  19.462  0.00  0.00    +0.000 C 
ATOM      8  C   UNL     1      -3.629  11.882  18.823  0.00  0.00    +0.000 A 
ATOM      9  C   UNL     1      -4.632  12.599  19.477  0.00  0.00    +0.000 A 
ATOM     10  C   UNL     1      -5.849  12.823  18.836  0.00  0.00    +0.000 A 
ATOM     11  C   UNL     1      -6.068  12.325  17.549  0.00  0.00    +0.000 A 
ATOM     12  C   UNL     1      -5.072  11.593  16.901  0.00  0.00    +0.000 A 
ATOM     13  C   UNL     1      -3.845  11.370  17.533  0.00  0.00    +0.000 A 
ATOM     14  C   UNL     1      -2.763  10.511  16.927  0.00  0.00    +0.000 C 
ATOM     15  N   UNL     1      -1.409  11.058  17.088  0.00  0.00    +0.000 NA
ATOM     16  H   UNL     1      -1.285  11.783  16.379  0.00  0.00    +0.000 HD
ENDBRANCH   3   6
ENDBRANCH   1   2
BRANCH   1  17
ATOM     17  C   UNL     1       2.076   8.271  18.596  0.00  0.00    +0.000 C 
ATOM     18  O   UNL     1       2.034   8.548  17.399  0.00  0.00    +0.000 OA
ATOM     19  N   UNL     1       2.553   7.070  19.115  0.00  0.00    +0.000 N 
ATOM     20  H   UNL     1       2.334   6.856  20.083  0.00  0.00    +0.000 HD
BRANCH  19  21
ATOM     21  C   UNL     1       2.945   5.980  18.316  0.00  0.00    +0.000 A 
ATOM     22  C   UNL     1       2.076   4.890  18.222  0.00  0.00    +0.000 A 
ATOM     23  C   UNL     1       2.403   3.803  17.411  0.00  0.00    +0.000 A 
ATOM     24  C   UNL     1       3.633   3.766  16.758  0.00  0.00    +0.000 A 
ATOM     25  C   UNL     1       4.541   4.823  16.894  0.00  0.00    +0.000 A 
ATOM     26  C   UNL     1       5.911   4.737  16.290  0.00  0.00    +0.000 C 
ATOM     27  C   UNL     1       4.174   5.946  17.652  0.00  0.00    +0.000 A 
ENDBRANCH  19  21
ENDBRANCH   1  17
BRANCH   1  28
ATOM     28  C   UNL     1       1.128   8.492  20.980  0.00  0.00    +0.000 C 
BRANCH  28  29
ATOM     29  C   UNL     1      -0.230   8.808  21.611  0.00  0.00    +0.000 C 
BRANCH  29  31
ATOM     30  C   UNL     1      -1.193  11.065  22.901  0.00  0.00    +0.000 C 
ATOM     31  S   UNL     1      -0.149   9.617  23.242  0.00  0.00    +0.000 S 
ENDBRANCH  29  31
ENDBRANCH  28  29
ENDBRANCH   1  28
TORSDOF 7
ENDMDL
MODEL 2
REMARK VINA RESULT:      -7.4      1.685      8.047
REMARK  Name = 
REMARK  9 active torsions:
REMARK  status: ('A' for Active; 'I' for Inactive)
REMARK    1  A    between atoms: C_1  and  S_2
REMARK    2  A    between atoms: S_2  and  C_3
REMARK    3  A    between atoms: C_3  and  C_4
REMARK    4  A    between atoms: C_4  and  C_5
REMARK    5  A    between atoms: C_5  and  N_6
REMARK    6  A    between atoms: C_5  and  C_19
REMARK    7  A    between atoms: C_7  and  C_9
REMARK    8  A    between atoms: N_21  and  C_22
REMARK    9  A    between atoms: C_26  and  C_27
REMARK                            x       y       z     vdW  Elec       q    Type
REMARK                         _______ _______ _______ _____ _____    ______ ____
ROOT
ATOM      1  C   UNL     1       0.323   9.891  20.190  0.00  0.00    +0.000 C 
ENDROOT
BRANCH   1   2
ATOM      2  N   UNL     1       1.370   8.981  19.725  0.00  0.00    +0.000 N 
ATOM      3  C   UNL     1       1.644   7.779  20.325  0.00  0.00    +0.000 C 
ATOM      4  O   UNL     1       0.991   7.358  21.281  0.00  0.00    +0.000 OA
ATOM      5  H   UNL     1       2.019   9.298  19.002  0.00  0.00    +0.000 HD
BRANCH   3   6
ATOM      6  C   UNL     1       2.788   6.965  19.690  0.00  0.00    +0.000 C 
ATOM      7  C   UNL     1       2.816   7.240  18.174  0.00  0.00    +0.000 C 
ATOM      8  C   UNL     1       3.807   6.328  17.504  0.00  0.00    +0.000 A 
ATOM      9  C   UNL     1       4.627   6.751  16.457  0.00  0.00    +0.000 A 
ATOM     10  C   UNL     1       5.511   5.851  15.866  0.00  0.00    +0.000 A 
ATOM     11  C   UNL     1       5.570   4.527  16.313  0.00  0.00    +0.000 A 
ATOM     12  C   UNL     1       4.736   4.099  17.348  0.00  0.00    +0.000 A 
ATOM     13  C   UNL     1       3.853   4.998  17.952  0.00  0.00    +0.000 A 
ATOM     14  C   UNL     1       2.863   4.578  19.010  0.00  0.00    +0.000 C 
ATOM     15  N   UNL     1       2.736   5.532  20.119  0.00  0.00    +0.000 NA
ATOM     16  H   UNL     1       3.529   5.382  20.745  0.00  0.00    +0.000 HD
ENDBRANCH   3   6
ENDBRANCH   1   2
BRANCH   1  17
ATOM     17  C   UNL     1      -0.390  10.463  18.940  0.00  0.00    +0.000 C 
ATOM     18  O   UNL     1       0.062  11.426  18.322  0.00  0.00    +0.000 OA
ATOM     19  N   UNL     1      -1.603   9.840  18.657  0.00  0.00    +0.000 N 
ATOM     20  H   UNL     1      -1.985   9.215  19.359  0.00  0.00    +0.000 HD
BRANCH  19  21
ATOM     21  C   UNL     1      -2.512  10.311  17.692  0.00  0.00    +0.000 A 
ATOM     22  C   UNL     1      -3.583  11.096  18.128  0.00  0.00    +0.000 A 
ATOM     23  C   UNL     1      -4.488  11.620  17.203  0.00  0.00    +0.000 A 
ATOM     24  C   UNL     1      -4.374  11.292  15.853  0.00  0.00    +0.000 A 
ATOM     25  C   UNL     1      -3.343  10.455  15.412  0.00  0.00    +0.000 A 
ATOM     26  C   UNL     1      -3.282  10.005  13.982  0.00  0.00    +0.000 C 
ATOM     27  C   UNL     1      -2.392   9.993  16.337  0.00  0.00    +0.000 A 
ENDBRANCH  19  21
ENDBRANCH   1  17
BRANCH   1  28
ATOM     28  C   UNL     1       0.939  10.991  21.081  0.00  0.00    +0.000 C 
BRANCH  28  29
ATOM     29  C   UNL     1      -0.004  12.043  21.667  0.00  0.00    +0.000 C 
BRANCH  29  31
ATOM     30  C   UNL     1      -2.085  12.953  23.258  0.00  0.00    +0.000 C 
ATOM     31  S   UNL     1      -1.259  11.395  22.819  0.00  0.00    +0.000 S 
ENDBRANCH  29  31
ENDBRANCH  28  29
ENDBRANCH   1  28
TORSDOF 7
ENDMDL
MODEL 3
REMARK VINA RESULT:      -7.4      2.498      9.135
REMARK  Name = 
REMARK  9 active torsions:
REMARK  status: ('A' for Active; 'I' for Inactive)
REMARK    1  A    between atoms: C_1  and  S_2
REMARK    2  A    between atoms: S_2  and  C_3
REMARK    3  A    between atoms: C_3  and  C_4
REMARK    4  A    between atoms: C_4  and  C_5
REMARK    5  A    between atoms: C_5  and  N_6
REMARK    6  A    between atoms: C_5  and  C_19
REMARK    7  A    between atoms: C_7  and  C_9
REMARK    8  A    between atoms: N_21  and  C_22
REMARK    9  A    between atoms: C_26  and  C_27
REMARK                            x       y       z     vdW  Elec       q    Type
REMARK                         _______ _______ _______ _____ _____    ______ ____
ROOT
ATOM      1  C   UNL     1       0.166  10.591  19.370  0.00  0.00    +0.000 C 
ENDROOT
BRANCH   1   2
ATOM      2  N   UNL     1       0.928   9.359  19.571  0.00  0.00    +0.000 N 
ATOM      3  C   UNL     1       1.771   8.832  18.627  0.00  0.00    +0.000 C 
ATOM      4  O   UNL     1       1.981   9.390  17.549  0.00  0.00    +0.000 OA
ATOM      5  H   UNL     1       0.737   8.785  20.395  0.00  0.00    +0.000 HD
BRANCH   3   6
ATOM      6  C   UNL     1       2.481   7.524  19.027  0.00  0.00    +0.000 C 
ATOM      7  C   UNL     1       2.238   6.467  17.933  0.00  0.00    +0.000 C 
ATOM      8  C   UNL     1       2.771   5.133  18.378  0.00  0.00    +0.000 A 
ATOM      9  C   UNL     1       3.415   4.253  17.507  0.00  0.00    +0.000 A 
ATOM     10  C   UNL     1       3.869   3.023  17.979  0.00  0.00    +0.000 A 
ATOM     11  C   UNL     1       3.671   2.668  19.316  0.00  0.00    +0.000 A 
ATOM     12  C   UNL     1       3.010   3.539  20.184  0.00  0.00    +0.000 A 
ATOM     13  C   UNL     1       2.560   4.778  19.721  0.00  0.00    +0.000 A 
ATOM     14  C   UNL     1       1.760   5.724  20.580  0.00  0.00    +0.000 C 
ATOM     15  N   UNL     1       2.147   7.134  20.433  0.00  0.00    +0.000 NA
ATOM     16  H   UNL     1       2.991   7.280  20.989  0.00  0.00    +0.000 HD
ENDBRANCH   3   6
ENDBRANCH   1   2
BRANCH   1  17
ATOM     17  C   UNL     1      -0.017  11.261  20.754  0.00  0.00    +0.000 C 
ATOM     18  O   UNL     1       0.623  10.895  21.738  0.00  0.00    +0.000 OA
ATOM     19  N   UNL     1      -1.016  12.231  20.774  0.00  0.00    +0.000 N 
ATOM     20  H   UNL     1      -1.629  12.291  19.968  0.00  0.00    +0.000 HD
BRANCH  19  21
ATOM     21  C   UNL     1      -1.489  12.834  21.954  0.00  0.00    +0.000 A 
ATOM     22  C   UNL     1      -0.733  13.870  22.510  0.00  0.00    +0.000 A 
ATOM     23  C   UNL     1      -1.181  14.525  23.658  0.00  0.00    +0.000 A 
ATOM     24  C   UNL     1      -2.341  14.094  24.299  0.00  0.00    +0.000 A 
ATOM     25  C   UNL     1      -3.074  13.017  23.788  0.00  0.00    +0.000 A 
ATOM     26  C   UNL     1      -4.257  12.474  24.535  0.00  0.00    +0.000 C 
ATOM     27  C   UNL     1      -2.658  12.410  22.592  0.00  0.00    +0.000 A 
ENDBRANCH  19  21
ENDBRANCH   1  17
BRANCH   1  28
ATOM     28  C   UNL     1      -1.177  10.271  18.679  0.00  0.00    +0.000 C 
BRANCH  28  29
ATOM     29  C   UNL     1      -1.630  11.190  17.543  0.00  0.00    +0.000 C 
BRANCH  29  31
ATOM     30  C   UNL     1      -4.254  11.241  16.647  0.00  0.00    +0.000 C 
ATOM     31  S   UNL     1      -2.685  10.397  16.286  0.00  0.00    +0.000 S 
ENDBRANCH  29  31
ENDBRANCH  28  29
ENDBRANCH   1  28
TORSDOF 7
ENDMDL
MODEL 4
REMARK VINA RESULT:      -7.3      1.677      8.137
REMARK  Name = 
REMARK  9 active torsions:
REMARK  status: ('A' for Active; 'I' for Inactive)
REMARK    1  A    between atoms: C_1  and  S_2
REMARK    2  A    between atoms: S_2  and  C_3
REMARK    3  A    between atoms: C_3  and  C_4
REMARK    4  A    between atoms: C_4  and  C_5
REMARK    5  A    between atoms: C_5  and  N_6
REMARK    6  A    between atoms: C_5  and  C_19
REMARK    7  A    between atoms: C_7  and  C_9
REMARK    8  A    between atoms: N_21  and  C_22
REMARK    9  A    between atoms: C_26  and  C_27
REMARK                            x       y       z     vdW  Elec       q    Type
REMARK                         _______ _______ _______ _____ _____    ______ ____
ROOT
ATOM      1  C   UNL     1       0.275  10.225  20.238  0.00  0.00    +0.000 C 
ENDROOT
BRANCH   1   2
ATOM      2  N   UNL     1       1.276   9.242  19.822  0.00  0.00    +0.000 N 
ATOM      3  C   UNL     1       1.433   8.023  20.428  0.00  0.00    +0.000 C 
ATOM      4  O   UNL     1       0.703   7.647  21.346  0.00  0.00    +0.000 OA
ATOM      5  H   UNL     1       1.983   9.513  19.134  0.00  0.00    +0.000 HD
BRANCH   3   6
ATOM      6  C   UNL     1       2.546   7.130  19.846  0.00  0.00    +0.000 C 
ATOM      7  C   UNL     1       2.649   7.382  18.330  0.00  0.00    +0.000 C 
ATOM      8  C   UNL     1       3.606   6.401  17.709  0.00  0.00    +0.000 A 
ATOM      9  C   UNL     1       4.490   6.757  16.690  0.00  0.00    +0.000 A 
ATOM     10  C   UNL     1       5.338   5.795  16.144  0.00  0.00    +0.000 A 
ATOM     11  C   UNL     1       5.295   4.477  16.608  0.00  0.00    +0.000 A 
ATOM     12  C   UNL     1       4.397   4.115  17.614  0.00  0.00    +0.000 A 
ATOM     13  C   UNL     1       3.550   5.076  18.173  0.00  0.00    +0.000 A 
ATOM     14  C   UNL     1       2.496   4.733  19.196  0.00  0.00    +0.000 C 
ATOM     15  N   UNL     1       2.387   5.709  20.289  0.00  0.00    +0.000 NA
ATOM     16  H   UNL     1       3.144   5.517  20.947  0.00  0.00    +0.000 HD
ENDBRANCH   3   6
ENDBRANCH   1   2
BRANCH   1  17
ATOM     17  C   UNL     1      -0.457  10.717  18.965  0.00  0.00    +0.000 C 
ATOM     18  O   UNL     1      -0.094  11.724  18.360  0.00  0.00    +0.000 OA
ATOM     19  N   UNL     1      -1.584   9.964  18.645  0.00  0.00    +0.000 N 
ATOM     20  H   UNL     1      -1.916   9.300  19.336  0.00  0.00    +0.000 HD
BRANCH  19  21
ATOM     21  C   UNL     1      -2.508  10.334  17.651  0.00  0.00    +0.000 A 
ATOM     22  C   UNL     1      -2.241   9.954  16.333  0.00  0.00    +0.000 A 
ATOM     23  C   UNL     1      -3.148  10.264  15.319  0.00  0.00    +0.000 A 
ATOM     24  C   UNL     1      -4.281  11.024  15.604  0.00  0.00    +0.000 A 
ATOM     25  C   UNL     1      -4.528  11.466  16.909  0.00  0.00    +0.000 A 
ATOM     26  C   UNL     1      -5.681  12.380  17.202  0.00  0.00    +0.000 C 
ATOM     27  C   UNL     1      -3.650  11.087  17.938  0.00  0.00    +0.000 A 
ENDBRANCH  19  21
ENDBRANCH   1  17
BRANCH   1  28
ATOM     28  C   UNL     1       0.955  11.371  21.016  0.00  0.00    +0.000 C 
BRANCH  28  29
ATOM     29  C   UNL     1       0.082  12.547  21.458  0.00  0.00    +0.000 C 
BRANCH  29  31
ATOM     30  C   UNL     1      -1.362  13.789  23.474  0.00  0.00    +0.000 C 
ATOM     31  S   UNL     1      -1.166  12.145  22.724  0.00  0.00    +0.000 S 
ENDBRANCH  29  31
ENDBRANCH  28  29
ENDBRANCH   1  28
TORSDOF 7
ENDMDL
MODEL 5
REMARK VINA RESULT:      -7.2      3.327      8.647
REMARK  Name = 
REMARK  9 active torsions:
REMARK  status: ('A' for Active; 'I' for Inactive)
REMARK    1  A    between atoms: C_1  and  S_2
REMARK    2  A    between atoms: S_2  and  C_3
REMARK    3  A    between atoms: C_3  and  C_4
REMARK    4  A    between atoms: C_4  and  C_5
REMARK    5  A    between atoms: C_5  and  N_6
REMARK    6  A    between atoms: C_5  and  C_19
REMARK    7  A    between atoms: C_7  and  C_9
REMARK    8  A    between atoms: N_21  and  C_22
REMARK    9  A    between atoms: C_26  and  C_27
REMARK                            x       y       z     vdW  Elec       q    Type
REMARK                         _______ _______ _______ _____ _____    ______ ____
ROOT
ATOM      1  C   UNL     1       0.490  10.397  18.360  0.00  0.00    +0.000 C 
ENDROOT
BRANCH   1   2
ATOM      2  N   UNL     1       1.095   9.199  18.942  0.00  0.00    +0.000 N 
ATOM      3  C   UNL     1       2.059   8.458  18.308  0.00  0.00    +0.000 C 
ATOM      4  O   UNL     1       2.520   8.780  17.212  0.00  0.00    +0.000 OA
ATOM      5  H   UNL     1       0.702   8.810  19.802  0.00  0.00    +0.000 HD
BRANCH   3   6
ATOM      6  C   UNL     1       2.569   7.228  19.084  0.00  0.00    +0.000 C 
ATOM      7  C   UNL     1       2.379   5.972  18.212  0.00  0.00    +0.000 C 
ATOM      8  C   UNL     1       2.706   4.739  19.008  0.00  0.00    +0.000 A 
ATOM      9  C   UNL     1       3.376   3.646  18.457  0.00  0.00    +0.000 A 
ATOM     10  C   UNL     1       3.631   2.524  19.245  0.00  0.00    +0.000 A 
ATOM     11  C   UNL     1       3.209   2.491  20.577  0.00  0.00    +0.000 A 
ATOM     12  C   UNL     1       2.522   3.576  21.123  0.00  0.00    +0.000 A 
ATOM     13  C   UNL     1       2.270   4.708  20.343  0.00  0.00    +0.000 A 
ATOM     14  C   UNL     1       1.455   5.874  20.843  0.00  0.00    +0.000 C 
ATOM     15  N   UNL     1       1.999   7.186  20.467  0.00  0.00    +0.000 NA
ATOM     16  H   UNL     1       2.766   7.395  21.110  0.00  0.00    +0.000 HD
ENDBRANCH   3   6
ENDBRANCH   1   2
BRANCH   1  17
ATOM     17  C   UNL     1       1.183  11.628  18.994  0.00  0.00    +0.000 C 
ATOM     18  O   UNL     1       1.303  11.746  20.212  0.00  0.00    +0.000 OA
ATOM     19  N   UNL     1       1.564  12.592  18.063  0.00  0.00    +0.000 N 
ATOM     20  H   UNL     1       1.216  12.493  17.116  0.00  0.00    +0.000 HD
BRANCH  19  21
ATOM     21  C   UNL     1       2.035  13.869  18.417  0.00  0.00    +0.000 A 
ATOM     22  C   UNL     1       1.096  14.833  18.793  0.00  0.00    +0.000 A 
ATOM     23  C   UNL     1       1.518  16.103  19.191  0.00  0.00    +0.000 A 
ATOM     24  C   UNL     1       2.870  16.438  19.135  0.00  0.00    +0.000 A 
ATOM     25  C   UNL     1       3.815  15.501  18.699  0.00  0.00    +0.000 A 
ATOM     26  C   UNL     1       5.253  15.890  18.526  0.00  0.00    +0.000 C 
ATOM     27  C   UNL     1       3.391  14.203  18.372  0.00  0.00    +0.000 A 
ENDBRANCH  19  21
ENDBRANCH   1  17
BRANCH   1  28
ATOM     28  C   UNL     1      -1.035  10.383  18.598  0.00  0.00    +0.000 C 
BRANCH  28  29
ATOM     29  C   UNL     1      -1.927   9.863  17.469  0.00  0.00    +0.000 C 
BRANCH  29  31
ATOM     30  C   UNL     1      -2.985  10.253  14.935  0.00  0.00    +0.000 C 
ATOM     31  S   UNL     1      -2.771  11.155  16.499  0.00  0.00    +0.000 S 
ENDBRANCH  29  31
ENDBRANCH  28  29
ENDBRANCH   1  28
TORSDOF 7
ENDMDL
MODEL 6
REMARK VINA RESULT:      -7.2      1.894      7.813
REMARK  Name = 
REMARK  9 active torsions:
REMARK  status: ('A' for Active; 'I' for Inactive)
REMARK    1  A    between atoms: C_1  and  S_2
REMARK    2  A    between atoms: S_2  and  C_3
REMARK    3  A    between atoms: C_3  and  C_4
REMARK    4  A    between atoms: C_4  and  C_5
REMARK    5  A    between atoms: C_5  and  N_6
REMARK    6  A    between atoms: C_5  and  C_19
REMARK    7  A    between atoms: C_7  and  C_9
REMARK    8  A    between atoms: N_21  and  C_22
REMARK    9  A    between atoms: C_26  and  C_27
REMARK                            x       y       z     vdW  Elec       q    Type
REMARK                         _______ _______ _______ _____ _____    ______ ____
ROOT
ATOM      1  C   UNL     1       0.234  11.529  20.480  0.00  0.00    +0.000 C 
ENDROOT
BRANCH   1   2
ATOM      2  N   UNL     1       1.160  10.425  20.223  0.00  0.00    +0.000 N 
ATOM      3  C   UNL     1       0.897   9.125  20.568  0.00  0.00    +0.000 C 
ATOM      4  O   UNL     1      -0.169   8.785  21.083  0.00  0.00    +0.000 OA
ATOM      5  H   UNL     1       2.103  10.635  19.889  0.00  0.00    +0.000 HD
BRANCH   3   6
ATOM      6  C   UNL     1       2.000   8.108  20.217  0.00  0.00    +0.000 C 
ATOM      7  C   UNL     1       2.136   8.027  18.684  0.00  0.00    +0.000 C 
ATOM      8  C   UNL     1       3.082   6.919  18.310  0.00  0.00    +0.000 A 
ATOM      9  C   UNL     1       3.992   7.032  17.258  0.00  0.00    +0.000 A 
ATOM     10  C   UNL     1       4.827   5.959  16.950  0.00  0.00    +0.000 A 
ATOM     11  C   UNL     1       4.746   4.772  17.684  0.00  0.00    +0.000 A 
ATOM     12  C   UNL     1       3.823   4.652  18.724  0.00  0.00    +0.000 A 
ATOM     13  C   UNL     1       2.988   5.725  19.045  0.00  0.00    +0.000 A 
ATOM     14  C   UNL     1       1.908   5.629  20.094  0.00  0.00    +0.000 C 
ATOM     15  N   UNL     1       1.801   6.818  20.949  0.00  0.00    +0.000 NA
ATOM     16  H   UNL     1       2.542   6.759  21.650  0.00  0.00    +0.000 HD
ENDBRANCH   3   6
ENDBRANCH   1   2
BRANCH   1  17
ATOM     17  C   UNL     1      -0.569  11.779  19.180  0.00  0.00    +0.000 C 
ATOM     18  O   UNL     1      -0.375  12.773  18.482  0.00  0.00    +0.000 OA
ATOM     19  N   UNL     1      -1.561  10.829  18.947  0.00  0.00    +0.000 N 
ATOM     20  H   UNL     1      -1.780  10.185  19.699  0.00  0.00    +0.000 HD
BRANCH  19  21
ATOM     21  C   UNL     1      -2.534  10.954  17.938  0.00  0.00    +0.000 A 
ATOM     22  C   UNL     1      -3.770  11.505  18.285  0.00  0.00    +0.000 A 
ATOM     23  C   UNL     1      -4.753  11.685  17.311  0.00  0.00    +0.000 A 
ATOM     24  C   UNL     1      -4.534  11.241  16.008  0.00  0.00    +0.000 A 
ATOM     25  C   UNL     1      -3.324  10.629  15.663  0.00  0.00    +0.000 A 
ATOM     26  C   UNL     1      -3.125  10.044  14.295  0.00  0.00    +0.000 C 
ATOM     27  C   UNL     1      -2.311  10.519  16.630  0.00  0.00    +0.000 A 
ENDBRANCH  19  21
ENDBRANCH   1  17
BRANCH   1  28
ATOM     28  C   UNL     1       1.017  12.774  20.947  0.00  0.00    +0.000 C 
BRANCH  28  29
ATOM     29  C   UNL     1       0.288  13.780  21.841  0.00  0.00    +0.000 C 
BRANCH  29  31
ATOM     30  C   UNL     1      -1.414  14.472  23.917  0.00  0.00    +0.000 C 
ATOM     31  S   UNL     1      -1.139  13.105  22.751  0.00  0.00    +0.000 S 
ENDBRANCH  29  31
ENDBRANCH  28  29
ENDBRANCH   1  28
TORSDOF 7
ENDMDL
MODEL 7
REMARK VINA RESULT:      -7.2      3.200      5.374
REMARK  Name = 
REMARK  9 active torsions:
REMARK  status: ('A' for Active; 'I' for Inactive)
REMARK    1  A    between atoms: C_1  and  S_2
REMARK    2  A    between atoms: S_2  and  C_3
REMARK    3  A    between atoms: C_3  and  C_4
REMARK    4  A    between atoms: C_4  and  C_5
REMARK    5  A    between atoms: C_5  and  N_6
REMARK    6  A    between atoms: C_5  and  C_19
REMARK    7  A    between atoms: C_7  and  C_9
REMARK    8  A    between atoms: N_21  and  C_22
REMARK    9  A    between atoms: C_26  and  C_27
REMARK                            x       y       z     vdW  Elec       q    Type
REMARK                         _______ _______ _______ _____ _____    ______ ____
ROOT
ATOM      1  C   UNL     1       3.714   5.547  17.954  0.00  0.00    +0.000 C 
ENDROOT
BRANCH   1   2
ATOM      2  N   UNL     1       3.147   6.855  18.284  0.00  0.00    +0.000 N 
ATOM      3  C   UNL     1       2.407   7.092  19.413  0.00  0.00    +0.000 C 
ATOM      4  O   UNL     1       2.204   6.221  20.261  0.00  0.00    +0.000 OA
ATOM      5  H   UNL     1       3.185   7.603  17.588  0.00  0.00    +0.000 HD
BRANCH   3   6
ATOM      6  C   UNL     1       1.892   8.535  19.579  0.00  0.00    +0.000 C 
ATOM      7  C   UNL     1       0.867   8.572  20.728  0.00  0.00    +0.000 C 
ATOM      8  C   UNL     1       0.221   9.929  20.798  0.00  0.00    +0.000 A 
ATOM      9  C   UNL     1      -0.083  10.553  22.008  0.00  0.00    +0.000 A 
ATOM     10  C   UNL     1      -0.700  11.803  22.003  0.00  0.00    +0.000 A 
ATOM     11  C   UNL     1      -1.021  12.424  20.792  0.00  0.00    +0.000 A 
ATOM     12  C   UNL     1      -0.733  11.791  19.582  0.00  0.00    +0.000 A 
ATOM     13  C   UNL     1      -0.108  10.542  19.577  0.00  0.00    +0.000 A 
ATOM     14  C   UNL     1       0.147   9.765  18.310  0.00  0.00    +0.000 C 
ATOM     15  N   UNL     1       1.461   9.111  18.266  0.00  0.00    +0.000 NA
ATOM     16  H   UNL     1       2.150   9.823  18.015  0.00  0.00    +0.000 HD
ENDBRANCH   3   6
ENDBRANCH   1   2
BRANCH   1  17
ATOM     17  C   UNL     1       4.587   5.720  16.687  0.00  0.00    +0.000 C 
ATOM     18  O   UNL     1       4.741   6.818  16.153  0.00  0.00    +0.000 OA
ATOM     19  N   UNL     1       5.089   4.520  16.189  0.00  0.00    +0.000 N 
ATOM     20  H   UNL     1       4.716   3.659  16.575  0.00  0.00    +0.000 HD
BRANCH  19  21
ATOM     21  C   UNL     1       5.744   4.407  14.949  0.00  0.00    +0.000 A 
ATOM     22  C   UNL     1       6.921   5.136  14.760  0.00  0.00    +0.000 A 
ATOM     23  C   UNL     1       7.627   5.026  13.561  0.00  0.00    +0.000 A 
ATOM     24  C   UNL     1       7.116   4.253  12.520  0.00  0.00    +0.000 A 
ATOM     25  C   UNL     1       5.906   3.568  12.673  0.00  0.00    +0.000 A 
ATOM     26  C   UNL     1       5.293   2.830  11.519  0.00  0.00    +0.000 C 
ATOM     27  C   UNL     1       5.239   3.624  13.908  0.00  0.00    +0.000 A 
ENDBRANCH  19  21
ENDBRANCH   1  17
BRANCH   1  28
ATOM     28  C   UNL     1       2.582   4.515  17.763  0.00  0.00    +0.000 C 
BRANCH  28  29
ATOM     29  C   UNL     1       2.670   3.208  18.553  0.00  0.00    +0.000 C 
BRANCH  29  31
ATOM     30  C   UNL     1       1.229   2.827  20.892  0.00  0.00    +0.000 C 
ATOM     31  S   UNL     1       1.068   2.535  19.105  0.00  0.00    +0.000 S 
ENDBRANCH  29  31
ENDBRANCH  28  29
ENDBRANCH   1  28
TORSDOF 7
ENDMDL
MODEL 8
REMARK VINA RESULT:      -7.1      3.164      8.718
REMARK  Name = 
REMARK  9 active torsions:
REMARK  status: ('A' for Active; 'I' for Inactive)
REMARK    1  A    between atoms: C_1  and  S_2
REMARK    2  A    between atoms: S_2  and  C_3
REMARK    3  A    between atoms: C_3  and  C_4
REMARK    4  A    between atoms: C_4  and  C_5
REMARK    5  A    between atoms: C_5  and  N_6
REMARK    6  A    between atoms: C_5  and  C_19
REMARK    7  A    between atoms: C_7  and  C_9
REMARK    8  A    between atoms: N_21  and  C_22
REMARK    9  A    between atoms: C_26  and  C_27
REMARK                            x       y       z     vdW  Elec       q    Type
REMARK                         _______ _______ _______ _____ _____    ______ ____
ROOT
ATOM      1  C   UNL     1       0.324  10.472  18.619  0.00  0.00    +0.000 C 
ENDROOT
BRANCH   1   2
ATOM      2  N   UNL     1       1.008   9.258  19.063  0.00  0.00    +0.000 N 
ATOM      3  C   UNL     1       1.959   8.613  18.315  0.00  0.00    +0.000 C 
ATOM      4  O   UNL     1       2.338   9.041  17.224  0.00  0.00    +0.000 OA
ATOM      5  H   UNL     1       0.683   8.784  19.909  0.00  0.00    +0.000 HD
BRANCH   3   6
ATOM      6  C   UNL     1       2.561   7.346  18.955  0.00  0.00    +0.000 C 
ATOM      7  C   UNL     1       2.339   6.152  18.007  0.00  0.00    +0.000 C 
ATOM      8  C   UNL     1       2.760   4.876  18.681  0.00  0.00    +0.000 A 
ATOM      9  C   UNL     1       3.415   3.849  17.999  0.00  0.00    +0.000 A 
ATOM     10  C   UNL     1       3.761   2.682  18.678  0.00  0.00    +0.000 A 
ATOM     11  C   UNL     1       3.445   2.536  20.032  0.00  0.00    +0.000 A 
ATOM     12  C   UNL     1       2.773   3.555  20.709  0.00  0.00    +0.000 A 
ATOM     13  C   UNL     1       2.430   4.732  20.039  0.00  0.00    +0.000 A 
ATOM     14  C   UNL     1       1.624   5.831  20.686  0.00  0.00    +0.000 C 
ATOM     15  N   UNL     1       2.101   7.184  20.370  0.00  0.00    +0.000 NA
ATOM     16  H   UNL     1       2.909   7.371  20.967  0.00  0.00    +0.000 HD
ENDBRANCH   3   6
ENDBRANCH   1   2
BRANCH   1  17
ATOM     17  C   UNL     1       1.138  11.685  19.135  0.00  0.00    +0.000 C 
ATOM     18  O   UNL     1       1.386  11.835  20.330  0.00  0.00    +0.000 OA
ATOM     19  N   UNL     1       1.470  12.597  18.136  0.00  0.00    +0.000 N 
ATOM     20  H   UNL     1       1.023  12.486  17.232  0.00  0.00    +0.000 HD
BRANCH  19  21
ATOM     21  C   UNL     1       2.037  13.858  18.393  0.00  0.00    +0.000 A 
ATOM     22  C   UNL     1       3.424  13.988  18.285  0.00  0.00    +0.000 A 
ATOM     23  C   UNL     1       4.028  15.229  18.492  0.00  0.00    +0.000 A 
ATOM     24  C   UNL     1       3.259  16.322  18.889  0.00  0.00    +0.000 A 
ATOM     25  C   UNL     1       1.877  16.190  19.063  0.00  0.00    +0.000 A 
ATOM     26  C   UNL     1       1.061  17.328  19.601  0.00  0.00    +0.000 C 
ATOM     27  C   UNL     1       1.266  14.957  18.780  0.00  0.00    +0.000 A 
ENDBRANCH  19  21
ENDBRANCH   1  17
BRANCH   1  28
ATOM     28  C   UNL     1      -1.133  10.471  19.130  0.00  0.00    +0.000 C 
BRANCH  28  29
ATOM     29  C   UNL     1      -2.159  11.300  18.356  0.00  0.00    +0.000 C 
BRANCH  29  31
ATOM     30  C   UNL     1      -2.653  10.437  15.767  0.00  0.00    +0.000 C 
ATOM     31  S   UNL     1      -3.388  10.327  17.426  0.00  0.00    +0.000 S 
ENDBRANCH  29  31
ENDBRANCH  28  29
ENDBRANCH   1  28
TORSDOF 7
ENDMDL
MODEL 9
REMARK VINA RESULT:      -7.1      3.298      5.931
REMARK  Name = 
REMARK  9 active torsions:
REMARK  status: ('A' for Active; 'I' for Inactive)
REMARK    1  A    between atoms: C_1  and  S_2
REMARK    2  A    between atoms: S_2  and  C_3
REMARK    3  A    between atoms: C_3  and  C_4
REMARK    4  A    between atoms: C_4  and  C_5
REMARK    5  A    between atoms: C_5  and  N_6
REMARK    6  A    between atoms: C_5  and  C_19
REMARK    7  A    between atoms: C_7  and  C_9
REMARK    8  A    between atoms: N_21  and  C_22
REMARK    9  A    between atoms: C_26  and  C_27
REMARK                            x       y       z     vdW  Elec       q    Type
REMARK                         _______ _______ _______ _____ _____    ______ ____
ROOT
ATOM      1  C   UNL     1       4.851   4.516  18.448  0.00  0.00    +0.000 C 
ENDROOT
BRANCH   1   2
ATOM      2  N   UNL     1       3.679   5.331  18.768  0.00  0.00    +0.000 N 
ATOM      3  C   UNL     1       3.514   6.618  18.326  0.00  0.00    +0.000 C 
ATOM      4  O   UNL     1       4.329   7.168  17.584  0.00  0.00    +0.000 OA
ATOM      5  H   UNL     1       3.006   4.986  19.456  0.00  0.00    +0.000 HD
BRANCH   3   6
ATOM      6  C   UNL     1       2.213   7.312  18.775  0.00  0.00    +0.000 C 
ATOM      7  C   UNL     1       2.162   8.725  18.161  0.00  0.00    +0.000 C 
ATOM      8  C   UNL     1       0.992   9.486  18.721  0.00  0.00    +0.000 A 
ATOM      9  C   UNL     1       0.212  10.342  17.942  0.00  0.00    +0.000 A 
ATOM     10  C   UNL     1      -0.847  11.034  18.526  0.00  0.00    +0.000 A 
ATOM     11  C   UNL     1      -1.121  10.879  19.888  0.00  0.00    +0.000 A 
ATOM     12  C   UNL     1      -0.330  10.038  20.672  0.00  0.00    +0.000 A 
ATOM     13  C   UNL     1       0.728   9.334  20.093  0.00  0.00    +0.000 A 
ATOM     14  C   UNL     1       1.676   8.482  20.899  0.00  0.00    +0.000 C 
ATOM     15  N   UNL     1       2.026   7.208  20.256  0.00  0.00    +0.000 NA
ATOM     16  H   UNL     1       1.250   6.563  20.412  0.00  0.00    +0.000 HD
ENDBRANCH   3   6
ENDBRANCH   1   2
BRANCH   1  17
ATOM     17  C   UNL     1       4.851   4.274  16.918  0.00  0.00    +0.000 C 
ATOM     18  O   UNL     1       4.018   3.548  16.379  0.00  0.00    +0.000 OA
ATOM     19  N   UNL     1       5.916   4.883  16.259  0.00  0.00    +0.000 N 
ATOM     20  H   UNL     1       6.663   5.267  16.828  0.00  0.00    +0.000 HD
BRANCH  19  21
ATOM     21  C   UNL     1       6.229   4.648  14.907  0.00  0.00    +0.000 A 
ATOM     22  C   UNL     1       7.400   5.214  14.398  0.00  0.00    +0.000 A 
ATOM     23  C   UNL     1       7.773   4.977  13.074  0.00  0.00    +0.000 A 
ATOM     24  C   UNL     1       6.937   4.243  12.235  0.00  0.00    +0.000 A 
ATOM     25  C   UNL     1       5.729   3.723  12.716  0.00  0.00    +0.000 A 
ATOM     26  C   UNL     1       4.771   3.034  11.790  0.00  0.00    +0.000 C 
ATOM     27  C   UNL     1       5.397   3.903  14.068  0.00  0.00    +0.000 A 
ENDBRANCH  19  21
ENDBRANCH   1  17
BRANCH   1  28
ATOM     28  C   UNL     1       4.815   3.203  19.259  0.00  0.00    +0.000 C 
BRANCH  28  29
ATOM     29  C   UNL     1       3.454   2.540  19.481  0.00  0.00    +0.000 C 
BRANCH  29  31
ATOM     30  C   UNL     1       1.123   3.459  20.669  0.00  0.00    +0.000 C 
ATOM     31  S   UNL     1       2.742   2.783  21.141  0.00  0.00    +0.000 S 
ENDBRANCH  29  31
ENDBRANCH  28  29
ENDBRANCH   1  28
TORSDOF 7
ENDMDL
