MODEL 1
REMARK VINA RESULT:      -7.8      0.000      0.000
REMARK  Name = 
REMARK  5 active torsions:
REMARK  status: ('A' for Active; 'I' for Inactive)
REMARK    1  A    between atoms: C_1  and  S_2
REMARK    2  A    between atoms: S_2  and  N_5
REMARK    3  A    between atoms: N_5  and  C_6
REMARK    4  A    between atoms: C_9  and  N_10
REMARK    5  A    between atoms: C_11  and  C_13
REMARK                            x       y       z     vdW  Elec       q    Type
REMARK                         _______ _______ _______ _____ _____    ______ ____
ROOT
ATOM      1  N   UNL     1       7.869   9.027  17.644  0.00  0.00    +0.000 N 
ATOM      2  C   UNL     1       8.704   9.748  18.511  0.00  0.00    +0.000 C 
ATOM      3  O   UNL     1       9.172   9.325  19.563  0.00  0.00    +0.000 OA
ATOM      4  H   UNL     1       7.617   9.560  16.813  0.00  0.00    +0.000 HD
ENDROOT
BRANCH   2   5
ATOM      5  C   UNL     1       8.970  11.143  18.023  0.00  0.00    +0.000 A 
ATOM      6  N   UNL     1       7.973  11.812  17.393  0.00  0.00    +0.000 NA
ATOM      7  N   UNL     1       8.489  13.024  17.138  0.00  0.00    +0.000 N 
ATOM      8  C   UNL     1       9.762  13.216  17.590  0.00  0.00    +0.000 A 
ATOM      9  C   UNL     1      10.575  14.361  17.560  0.00  0.00    +0.000 A 
ATOM     10  C   UNL     1      11.876  14.244  18.047  0.00  0.00    +0.000 A 
ATOM     11  C   UNL     1      12.333  13.021  18.532  0.00  0.00    +0.000 A 
ATOM     12  C   UNL     1      11.487  11.889  18.582  0.00  0.00    +0.000 A 
ATOM     13  C   UNL     1      10.153  11.983  18.116  0.00  0.00    +0.000 A 
ATOM     14  H   UNL     1       7.920  13.700  16.641  0.00  0.00    +0.000 HD
ENDBRANCH   2   5
BRANCH   1  18
ATOM     15  C   UNL     1       6.361   5.051  18.119  0.00  0.00    +0.000 A 
ATOM     16  C   UNL     1       5.737   5.932  17.240  0.00  0.00    +0.000 A 
ATOM     17  C   UNL     1       6.222   7.249  17.056  0.00  0.00    +0.000 A 
ATOM     18  C   UNL     1       7.337   7.710  17.756  0.00  0.00    +0.000 A 
ATOM     19  C   UNL     1       7.974   6.802  18.622  0.00  0.00    +0.000 A 
ATOM     20  C   UNL     1       7.497   5.478  18.798  0.00  0.00    +0.000 A 
BRANCH  15  21
ATOM     21  N   UNL     1       5.809   3.754  18.344  0.00  0.00    +0.000 N 
ATOM     22  H   UNL     1       6.450   2.991  18.559  0.00  0.00    +0.000 HD
BRANCH  21  24
ATOM     23  C   UNL     1       4.524   2.178  20.137  0.00  0.00    +0.000 C 
ATOM     24  S   UNL     1       4.287   3.552  19.023  0.00  0.00    +0.000 S 
ATOM     25  O   UNL     1       3.435   3.076  17.947  0.00  0.00    +0.000 OA
ATOM     26  O   UNL     1       3.937   4.720  19.793  0.00  0.00    +0.000 OA
ENDBRANCH  21  24
ENDBRANCH  15  21
ENDBRANCH   1  18
TORSDOF 4
ENDMDL
MODEL 2
REMARK VINA RESULT:      -7.8      6.528      8.723
REMARK  Name = 
REMARK  5 active torsions:
REMARK  status: ('A' for Active; 'I' for Inactive)
REMARK    1  A    between atoms: C_1  and  S_2
REMARK    2  A    between atoms: S_2  and  N_5
REMARK    3  A    between atoms: N_5  and  C_6
REMARK    4  A    between atoms: C_9  and  N_10
REMARK    5  A    between atoms: C_11  and  C_13
REMARK                            x       y       z     vdW  Elec       q    Type
REMARK                         _______ _______ _______ _____ _____    ______ ____
ROOT
ATOM      1  N   UNL     1       1.435   8.501  18.774  0.00  0.00    +0.000 N 
ATOM      2  C   UNL     1       1.391   9.861  18.431  0.00  0.00    +0.000 C 
ATOM      3  O   UNL     1       2.291  10.485  17.878  0.00  0.00    +0.000 OA
ATOM      4  H   UNL     1       0.568   8.180  19.202  0.00  0.00    +0.000 HD
ENDROOT
BRANCH   2   5
ATOM      5  C   UNL     1       0.099  10.513  18.834  0.00  0.00    +0.000 A 
ATOM      6  N   UNL     1       0.083  11.288  19.948  0.00  0.00    +0.000 NA
ATOM      7  N   UNL     1      -1.170  11.765  20.006  0.00  0.00    +0.000 N 
ATOM      8  C   UNL     1      -1.982  11.383  18.980  0.00  0.00    +0.000 A 
ATOM      9  C   UNL     1      -3.309  11.740  18.688  0.00  0.00    +0.000 A 
ATOM     10  C   UNL     1      -3.916  11.133  17.589  0.00  0.00    +0.000 A 
ATOM     11  C   UNL     1      -3.214  10.201  16.830  0.00  0.00    +0.000 A 
ATOM     12  C   UNL     1      -1.868   9.879  17.123  0.00  0.00    +0.000 A 
ATOM     13  C   UNL     1      -1.218  10.496  18.219  0.00  0.00    +0.000 A 
ATOM     14  H   UNL     1      -1.426  12.362  20.785  0.00  0.00    +0.000 HD
ENDBRANCH   2   5
BRANCH   1  18
ATOM     15  C   UNL     1       4.633   5.718  18.195  0.00  0.00    +0.000 A 
ATOM     16  C   UNL     1       3.839   5.639  19.336  0.00  0.00    +0.000 A 
ATOM     17  C   UNL     1       2.768   6.540  19.547  0.00  0.00    +0.000 A 
ATOM     18  C   UNL     1       2.478   7.543  18.621  0.00  0.00    +0.000 A 
ATOM     19  C   UNL     1       3.271   7.595  17.460  0.00  0.00    +0.000 A 
ATOM     20  C   UNL     1       4.335   6.685  17.241  0.00  0.00    +0.000 A 
BRANCH  15  21
ATOM     21  N   UNL     1       5.752   4.846  18.040  0.00  0.00    +0.000 N 
ATOM     22  H   UNL     1       5.778   4.238  17.222  0.00  0.00    +0.000 HD
BRANCH  21  24
ATOM     23  C   UNL     1       7.552   6.865  17.850  0.00  0.00    +0.000 C 
ATOM     24  S   UNL     1       7.278   5.269  18.599  0.00  0.00    +0.000 S 
ATOM     25  O   UNL     1       8.200   4.344  17.962  0.00  0.00    +0.000 OA
ATOM     26  O   UNL     1       7.247   5.426  20.032  0.00  0.00    +0.000 OA
ENDBRANCH  21  24
ENDBRANCH  15  21
ENDBRANCH   1  18
TORSDOF 4
ENDMDL
MODEL 3
REMARK VINA RESULT:      -7.7      6.602      9.064
REMARK  Name = 
REMARK  5 active torsions:
REMARK  status: ('A' for Active; 'I' for Inactive)
REMARK    1  A    between atoms: C_1  and  S_2
REMARK    2  A    between atoms: S_2  and  N_5
REMARK    3  A    between atoms: N_5  and  C_6
REMARK    4  A    between atoms: C_9  and  N_10
REMARK    5  A    between atoms: C_11  and  C_13
REMARK                            x       y       z     vdW  Elec       q    Type
REMARK                         _______ _______ _______ _____ _____    ______ ____
ROOT
ATOM      1  N   UNL     1       2.803   7.088  19.223  0.00  0.00    +0.000 N 
ATOM      2  C   UNL     1       2.811   5.694  19.380  0.00  0.00    +0.000 C 
ATOM      3  O   UNL     1       1.948   5.038  19.954  0.00  0.00    +0.000 OA
ATOM      4  H   UNL     1       3.604   7.425  18.691  0.00  0.00    +0.000 HD
ENDROOT
BRANCH   2   5
ATOM      5  C   UNL     1       4.028   5.056  18.774  0.00  0.00    +0.000 A 
ATOM      6  N   UNL     1       4.616   4.026  19.431  0.00  0.00    +0.000 NA
ATOM      7  N   UNL     1       5.618   3.641  18.625  0.00  0.00    +0.000 N 
ATOM      8  C   UNL     1       5.713   4.331  17.453  0.00  0.00    +0.000 A 
ATOM      9  C   UNL     1       6.582   4.157  16.362  0.00  0.00    +0.000 A 
ATOM     10  C   UNL     1       6.490   5.066  15.310  0.00  0.00    +0.000 A 
ATOM     11  C   UNL     1       5.568   6.109  15.366  0.00  0.00    +0.000 A 
ATOM     12  C   UNL     1       4.682   6.247  16.459  0.00  0.00    +0.000 A 
ATOM     13  C   UNL     1       4.735   5.324  17.532  0.00  0.00    +0.000 A 
ATOM     14  H   UNL     1       6.222   2.885  18.929  0.00  0.00    +0.000 HD
ENDBRANCH   2   5
BRANCH   1  18
ATOM     15  C   UNL     1      -0.008  10.069  20.457  0.00  0.00    +0.000 A 
ATOM     16  C   UNL     1       0.393   9.078  21.349  0.00  0.00    +0.000 A 
ATOM     17  C   UNL     1       1.330   8.087  20.971  0.00  0.00    +0.000 A 
ATOM     18  C   UNL     1       1.876   8.066  19.687  0.00  0.00    +0.000 A 
ATOM     19  C   UNL     1       1.482   9.087  18.803  0.00  0.00    +0.000 A 
ATOM     20  C   UNL     1       0.554  10.089  19.185  0.00  0.00    +0.000 A 
BRANCH  15  21
ATOM     21  N   UNL     1      -1.009  11.012  20.838  0.00  0.00    +0.000 N 
ATOM     22  H   UNL     1      -1.986  10.735  20.754  0.00  0.00    +0.000 HD
BRANCH  21  24
ATOM     23  C   UNL     1      -2.000  13.361  21.760  0.00  0.00    +0.000 C 
ATOM     24  S   UNL     1      -0.741  12.133  22.060  0.00  0.00    +0.000 S 
ATOM     25  O   UNL     1       0.534  12.756  21.750  0.00  0.00    +0.000 OA
ATOM     26  O   UNL     1      -0.983  11.522  23.344  0.00  0.00    +0.000 OA
ENDBRANCH  21  24
ENDBRANCH  15  21
ENDBRANCH   1  18
TORSDOF 4
ENDMDL
MODEL 4
REMARK VINA RESULT:      -7.7      6.523      8.700
REMARK  Name = 
REMARK  5 active torsions:
REMARK  status: ('A' for Active; 'I' for Inactive)
REMARK    1  A    between atoms: C_1  and  S_2
REMARK    2  A    between atoms: S_2  and  N_5
REMARK    3  A    between atoms: N_5  and  C_6
REMARK    4  A    between atoms: C_9  and  N_10
REMARK    5  A    between atoms: C_11  and  C_13
REMARK                            x       y       z     vdW  Elec       q    Type
REMARK                         _______ _______ _______ _____ _____    ______ ____
ROOT
ATOM      1  N   UNL     1       1.536   8.497  18.464  0.00  0.00    +0.000 N 
ATOM      2  C   UNL     1       1.457   9.890  18.318  0.00  0.00    +0.000 C 
ATOM      3  O   UNL     1       2.366  10.618  17.931  0.00  0.00    +0.000 OA
ATOM      4  H   UNL     1       0.656   8.088  18.773  0.00  0.00    +0.000 HD
ENDROOT
BRANCH   2   5
ATOM      5  C   UNL     1       0.112  10.433  18.709  0.00  0.00    +0.000 A 
ATOM      6  N   UNL     1       0.004  11.123  19.871  0.00  0.00    +0.000 NA
ATOM      7  N   UNL     1      -1.278  11.519  19.909  0.00  0.00    +0.000 N 
ATOM      8  C   UNL     1      -2.024  11.162  18.825  0.00  0.00    +0.000 A 
ATOM      9  C   UNL     1      -3.359  11.458  18.501  0.00  0.00    +0.000 A 
ATOM     10  C   UNL     1      -3.883  10.896  17.338  0.00  0.00    +0.000 A 
ATOM     11  C   UNL     1      -3.095  10.064  16.547  0.00  0.00    +0.000 A 
ATOM     12  C   UNL     1      -1.744   9.804  16.875  0.00  0.00    +0.000 A 
ATOM     13  C   UNL     1      -1.176  10.380  18.037  0.00  0.00    +0.000 A 
ATOM     14  H   UNL     1      -1.601  12.042  20.715  0.00  0.00    +0.000 HD
ENDBRANCH   2   5
BRANCH   1  18
ATOM     15  C   UNL     1       4.752   5.720  17.959  0.00  0.00    +0.000 A 
ATOM     16  C   UNL     1       4.540   6.719  17.013  0.00  0.00    +0.000 A 
ATOM     17  C   UNL     1       3.491   7.658  17.161  0.00  0.00    +0.000 A 
ATOM     18  C   UNL     1       2.629   7.606  18.257  0.00  0.00    +0.000 A 
ATOM     19  C   UNL     1       2.869   6.607  19.219  0.00  0.00    +0.000 A 
ATOM     20  C   UNL     1       3.928   5.675  19.078  0.00  0.00    +0.000 A 
BRANCH  15  21
ATOM     21  N   UNL     1       5.768   4.741  17.750  0.00  0.00    +0.000 N 
ATOM     22  H   UNL     1       5.506   3.865  17.299  0.00  0.00    +0.000 HD
BRANCH  21  24
ATOM     23  C   UNL     1       7.702   6.338  18.779  0.00  0.00    +0.000 C 
ATOM     24  S   UNL     1       7.365   5.178  17.467  0.00  0.00    +0.000 S 
ATOM     25  O   UNL     1       7.352   5.938  16.229  0.00  0.00    +0.000 OA
ATOM     26  O   UNL     1       8.222   4.029  17.630  0.00  0.00    +0.000 OA
ENDBRANCH  21  24
ENDBRANCH  15  21
ENDBRANCH   1  18
TORSDOF 4
ENDMDL
MODEL 5
REMARK VINA RESULT:      -7.6      7.556     10.765
REMARK  Name = 
REMARK  5 active torsions:
REMARK  status: ('A' for Active; 'I' for Inactive)
REMARK    1  A    between atoms: C_1  and  S_2
REMARK    2  A    between atoms: S_2  and  N_5
REMARK    3  A    between atoms: N_5  and  C_6
REMARK    4  A    between atoms: C_9  and  N_10
REMARK    5  A    between atoms: C_11  and  C_13
REMARK                            x       y       z     vdW  Elec       q    Type
REMARK                         _______ _______ _______ _____ _____    ______ ____
ROOT
ATOM      1  N   UNL     1       1.528   8.072  20.769  0.00  0.00    +0.000 N 
ATOM      2  C   UNL     1       1.990   7.836  19.465  0.00  0.00    +0.000 C 
ATOM      3  O   UNL     1       1.864   8.604  18.517  0.00  0.00    +0.000 OA
ATOM      4  H   UNL     1       1.762   7.312  21.407  0.00  0.00    +0.000 HD
ENDROOT
BRANCH   2   5
ATOM      5  C   UNL     1       2.661   6.500  19.326  0.00  0.00    +0.000 A 
ATOM      6  N   UNL     1       3.775   6.410  18.558  0.00  0.00    +0.000 NA
ATOM      7  N   UNL     1       4.165   5.131  18.679  0.00  0.00    +0.000 N 
ATOM      8  C   UNL     1       3.396   4.370  19.509  0.00  0.00    +0.000 A 
ATOM      9  C   UNL     1       3.544   3.034  19.917  0.00  0.00    +0.000 A 
ATOM     10  C   UNL     1       2.554   2.492  20.734  0.00  0.00    +0.000 A 
ATOM     11  C   UNL     1       1.459   3.265  21.111  0.00  0.00    +0.000 A 
ATOM     12  C   UNL     1       1.345   4.618  20.715  0.00  0.00    +0.000 A 
ATOM     13  C   UNL     1       2.347   5.203  19.904  0.00  0.00    +0.000 A 
ATOM     14  H   UNL     1       4.980   4.822  18.163  0.00  0.00    +0.000 HD
ENDBRANCH   2   5
BRANCH   1  18
ATOM     15  C   UNL     1      -0.674  11.290  22.531  0.00  0.00    +0.000 A 
ATOM     16  C   UNL     1       0.081  11.509  21.382  0.00  0.00    +0.000 A 
ATOM     17  C   UNL     1       0.809  10.460  20.772  0.00  0.00    +0.000 A 
ATOM     18  C   UNL     1       0.802   9.173  21.308  0.00  0.00    +0.000 A 
ATOM     19  C   UNL     1       0.015   8.958  22.456  0.00  0.00    +0.000 A 
ATOM     20  C   UNL     1      -0.726  10.004  23.060  0.00  0.00    +0.000 A 
BRANCH  15  21
ATOM     21  N   UNL     1      -1.339  12.379  23.169  0.00  0.00    +0.000 N 
ATOM     22  H   UNL     1      -0.801  13.222  23.365  0.00  0.00    +0.000 HD
BRANCH  21  24
ATOM     23  C   UNL     1      -3.150  14.379  23.435  0.00  0.00    +0.000 C 
ATOM     24  S   UNL     1      -2.972  12.680  22.918  0.00  0.00    +0.000 S 
ATOM     25  O   UNL     1      -3.677  11.869  23.897  0.00  0.00    +0.000 OA
ATOM     26  O   UNL     1      -3.275  12.587  21.512  0.00  0.00    +0.000 OA
ENDBRANCH  21  24
ENDBRANCH  15  21
ENDBRANCH   1  18
TORSDOF 4
ENDMDL
MODEL 6
REMARK VINA RESULT:      -7.6      6.535      8.904
REMARK  Name = 
REMARK  5 active torsions:
REMARK  status: ('A' for Active; 'I' for Inactive)
REMARK    1  A    between atoms: C_1  and  S_2
REMARK    2  A    between atoms: S_2  and  N_5
REMARK    3  A    between atoms: N_5  and  C_6
REMARK    4  A    between atoms: C_9  and  N_10
REMARK    5  A    between atoms: C_11  and  C_13
REMARK                            x       y       z     vdW  Elec       q    Type
REMARK                         _______ _______ _______ _____ _____    ______ ____
ROOT
ATOM      1  N   UNL     1       2.872   7.216  18.965  0.00  0.00    +0.000 N 
ATOM      2  C   UNL     1       2.988   5.866  19.331  0.00  0.00    +0.000 C 
ATOM      3  O   UNL     1       2.208   5.256  20.054  0.00  0.00    +0.000 OA
ATOM      4  H   UNL     1       3.617   7.513  18.336  0.00  0.00    +0.000 HD
ENDROOT
BRANCH   2   5
ATOM      5  C   UNL     1       4.211   5.216  18.749  0.00  0.00    +0.000 A 
ATOM      6  N   UNL     1       4.832   4.246  19.464  0.00  0.00    +0.000 NA
ATOM      7  N   UNL     1       5.831   3.831  18.669  0.00  0.00    +0.000 N 
ATOM      8  C   UNL     1       5.894   4.444  17.453  0.00  0.00    +0.000 A 
ATOM      9  C   UNL     1       6.751   4.218  16.363  0.00  0.00    +0.000 A 
ATOM     10  C   UNL     1       6.623   5.054  15.255  0.00  0.00    +0.000 A 
ATOM     11  C   UNL     1       5.678   6.077  15.256  0.00  0.00    +0.000 A 
ATOM     12  C   UNL     1       4.804   6.267  16.352  0.00  0.00    +0.000 A 
ATOM     13  C   UNL     1       4.894   5.419  17.482  0.00  0.00    +0.000 A 
ATOM     14  H   UNL     1       6.457   3.110  19.012  0.00  0.00    +0.000 HD
ENDBRANCH   2   5
BRANCH   1  18
ATOM     15  C   UNL     1       0.008  10.128  20.242  0.00  0.00    +0.000 A 
ATOM     16  C   UNL     1       0.414  10.087  18.910  0.00  0.00    +0.000 A 
ATOM     17  C   UNL     1       1.352   9.127  18.459  0.00  0.00    +0.000 A 
ATOM     18  C   UNL     1       1.906   8.195  19.337  0.00  0.00    +0.000 A 
ATOM     19  C   UNL     1       1.469   8.230  20.674  0.00  0.00    +0.000 A 
ATOM     20  C   UNL     1       0.520   9.182  21.125  0.00  0.00    +0.000 A 
BRANCH  15  21
ATOM     21  N   UNL     1      -0.880  11.151  20.688  0.00  0.00    +0.000 N 
ATOM     22  H   UNL     1      -1.883  10.972  20.636  0.00  0.00    +0.000 HD
BRANCH  21  24
ATOM     23  C   UNL     1      -1.621  13.541  21.730  0.00  0.00    +0.000 C 
ATOM     24  S   UNL     1      -0.459  12.202  21.928  0.00  0.00    +0.000 S 
ATOM     25  O   UNL     1       0.849  12.726  21.574  0.00  0.00    +0.000 OA
ATOM     26  O   UNL     1      -0.691  11.569  23.203  0.00  0.00    +0.000 OA
ENDBRANCH  21  24
ENDBRANCH  15  21
ENDBRANCH   1  18
TORSDOF 4
ENDMDL
MODEL 7
REMARK VINA RESULT:      -7.6      6.615      8.741
REMARK  Name = 
REMARK  5 active torsions:
REMARK  status: ('A' for Active; 'I' for Inactive)
REMARK    1  A    between atoms: C_1  and  S_2
REMARK    2  A    between atoms: S_2  and  N_5
REMARK    3  A    between atoms: N_5  and  C_6
REMARK    4  A    between atoms: C_9  and  N_10
REMARK    5  A    between atoms: C_11  and  C_13
REMARK                            x       y       z     vdW  Elec       q    Type
REMARK                         _______ _______ _______ _____ _____    ______ ____
ROOT
ATOM      1  N   UNL     1       3.192   7.081  18.978  0.00  0.00    +0.000 N 
ATOM      2  C   UNL     1       3.430   5.745  19.331  0.00  0.00    +0.000 C 
ATOM      3  O   UNL     1       2.733   5.074  20.086  0.00  0.00    +0.000 OA
ATOM      4  H   UNL     1       3.881   7.437  18.317  0.00  0.00    +0.000 HD
ENDROOT
BRANCH   2   5
ATOM      5  C   UNL     1       4.672   5.193  18.692  0.00  0.00    +0.000 A 
ATOM      6  N   UNL     1       5.504   4.430  19.442  0.00  0.00    +0.000 NA
ATOM      7  N   UNL     1       6.469   4.047  18.590  0.00  0.00    +0.000 N 
ATOM      8  C   UNL     1       6.312   4.483  17.308  0.00  0.00    +0.000 A 
ATOM      9  C   UNL     1       7.078   4.225  16.159  0.00  0.00    +0.000 A 
ATOM     10  C   UNL     1       6.711   4.868  14.978  0.00  0.00    +0.000 A 
ATOM     11  C   UNL     1       5.626   5.741  14.965  0.00  0.00    +0.000 A 
ATOM     12  C   UNL     1       4.849   5.963  16.126  0.00  0.00    +0.000 A 
ATOM     13  C   UNL     1       5.183   5.305  17.335  0.00  0.00    +0.000 A 
ATOM     14  H   UNL     1       7.229   3.477  18.943  0.00  0.00    +0.000 HD
ENDBRANCH   2   5
BRANCH   1  18
ATOM     15  C   UNL     1       0.097   9.824  20.076  0.00  0.00    +0.000 A 
ATOM     16  C   UNL     1       0.562   8.893  21.000  0.00  0.00    +0.000 A 
ATOM     17  C   UNL     1       1.593   7.981  20.667  0.00  0.00    +0.000 A 
ATOM     18  C   UNL     1       2.170   7.981  19.397  0.00  0.00    +0.000 A 
ATOM     19  C   UNL     1       1.709   8.944  18.480  0.00  0.00    +0.000 A 
ATOM     20  C   UNL     1       0.686   9.866  18.817  0.00  0.00    +0.000 A 
BRANCH  15  21
ATOM     21  N   UNL     1      -0.993  10.681  20.411  0.00  0.00    +0.000 N 
ATOM     22  H   UNL     1      -1.930  10.279  20.439  0.00  0.00    +0.000 HD
BRANCH  21  24
ATOM     23  C   UNL     1      -1.423  11.347  23.004  0.00  0.00    +0.000 C 
ATOM     24  S   UNL     1      -0.800  11.981  21.457  0.00  0.00    +0.000 S 
ATOM     25  O   UNL     1      -1.744  12.991  21.008  0.00  0.00    +0.000 OA
ATOM     26  O   UNL     1       0.602  12.282  21.608  0.00  0.00    +0.000 OA
ENDBRANCH  21  24
ENDBRANCH  15  21
ENDBRANCH   1  18
TORSDOF 4
ENDMDL
MODEL 8
REMARK VINA RESULT:      -7.5      0.862      1.313
REMARK  Name = 
REMARK  5 active torsions:
REMARK  status: ('A' for Active; 'I' for Inactive)
REMARK    1  A    between atoms: C_1  and  S_2
REMARK    2  A    between atoms: S_2  and  N_5
REMARK    3  A    between atoms: N_5  and  C_6
REMARK    4  A    between atoms: C_9  and  N_10
REMARK    5  A    between atoms: C_11  and  C_13
REMARK                            x       y       z     vdW  Elec       q    Type
REMARK                         _______ _______ _______ _____ _____    ______ ____
ROOT
ATOM      1  N   UNL     1       7.524   8.719  17.436  0.00  0.00    +0.000 N 
ATOM      2  C   UNL     1       8.466   9.314  18.288  0.00  0.00    +0.000 C 
ATOM      3  O   UNL     1       9.003   8.769  19.247  0.00  0.00    +0.000 OA
ATOM      4  H   UNL     1       7.227   9.344  16.687  0.00  0.00    +0.000 HD
ENDROOT
BRANCH   2   5
ATOM      5  C   UNL     1       8.758  10.740  17.915  0.00  0.00    +0.000 A 
ATOM      6  N   UNL     1       7.774  11.474  17.339  0.00  0.00    +0.000 NA
ATOM      7  N   UNL     1       8.312  12.694  17.185  0.00  0.00    +0.000 N 
ATOM      8  C   UNL     1       9.585  12.827  17.654  0.00  0.00    +0.000 A 
ATOM      9  C   UNL     1      10.418  13.956  17.718  0.00  0.00    +0.000 A 
ATOM     10  C   UNL     1      11.715  13.778  18.197  0.00  0.00    +0.000 A 
ATOM     11  C   UNL     1      12.150  12.513  18.582  0.00  0.00    +0.000 A 
ATOM     12  C   UNL     1      11.285  11.395  18.538  0.00  0.00    +0.000 A 
ATOM     13  C   UNL     1       9.954  11.549  18.079  0.00  0.00    +0.000 A 
ATOM     14  H   UNL     1       7.755  13.417  16.743  0.00  0.00    +0.000 HD
ENDBRANCH   2   5
BRANCH   1  18
ATOM     15  C   UNL     1       5.652   4.871  17.419  0.00  0.00    +0.000 A 
ATOM     16  C   UNL     1       6.918   5.027  17.977  0.00  0.00    +0.000 A 
ATOM     17  C   UNL     1       7.556   6.291  18.005  0.00  0.00    +0.000 A 
ATOM     18  C   UNL     1       6.938   7.421  17.468  0.00  0.00    +0.000 A 
ATOM     19  C   UNL     1       5.648   7.255  16.931  0.00  0.00    +0.000 A 
ATOM     20  C   UNL     1       5.003   5.993  16.913  0.00  0.00    +0.000 A 
BRANCH  15  21
ATOM     21  N   UNL     1       5.062   3.575  17.335  0.00  0.00    +0.000 N 
ATOM     22  H   UNL     1       5.681   2.765  17.331  0.00  0.00    +0.000 HD
BRANCH  21  24
ATOM     23  C   UNL     1       3.663   1.520  18.416  0.00  0.00    +0.000 C 
ATOM     24  S   UNL     1       3.553   3.251  17.997  0.00  0.00    +0.000 S 
ATOM     25  O   UNL     1       2.609   3.357  16.898  0.00  0.00    +0.000 OA
ATOM     26  O   UNL     1       3.378   4.013  19.209  0.00  0.00    +0.000 OA
ENDBRANCH  21  24
ENDBRANCH  15  21
ENDBRANCH   1  18
TORSDOF 4
ENDMDL
MODEL 9
REMARK VINA RESULT:      -7.5      7.605     10.843
REMARK  Name = 
REMARK  5 active torsions:
REMARK  status: ('A' for Active; 'I' for Inactive)
REMARK    1  A    between atoms: C_1  and  S_2
REMARK    2  A    between atoms: S_2  and  N_5
REMARK    3  A    between atoms: N_5  and  C_6
REMARK    4  A    between atoms: C_9  and  N_10
REMARK    5  A    between atoms: C_11  and  C_13
REMARK                            x       y       z     vdW  Elec       q    Type
REMARK                         _______ _______ _______ _____ _____    ______ ____
ROOT
ATOM      1  N   UNL     1       1.500   8.105  20.993  0.00  0.00    +0.000 N 
ATOM      2  C   UNL     1       1.912   7.871  19.672  0.00  0.00    +0.000 C 
ATOM      3  O   UNL     1       1.732   8.631  18.726  0.00  0.00    +0.000 OA
ATOM      4  H   UNL     1       1.775   7.354  21.625  0.00  0.00    +0.000 HD
ENDROOT
BRANCH   2   5
ATOM      5  C   UNL     1       2.604   6.548  19.512  0.00  0.00    +0.000 A 
ATOM      6  N   UNL     1       3.789   6.511  18.853  0.00  0.00    +0.000 NA
ATOM      7  N   UNL     1       4.174   5.227  18.927  0.00  0.00    +0.000 N 
ATOM      8  C   UNL     1       3.334   4.411  19.625  0.00  0.00    +0.000 A 
ATOM      9  C   UNL     1       3.452   3.051  19.956  0.00  0.00    +0.000 A 
ATOM     10  C   UNL     1       2.390   2.455  20.635  0.00  0.00    +0.000 A 
ATOM     11  C   UNL     1       1.258   3.200  20.953  0.00  0.00    +0.000 A 
ATOM     12  C   UNL     1       1.173   4.576  20.638  0.00  0.00    +0.000 A 
ATOM     13  C   UNL     1       2.245   5.216  19.970  0.00  0.00    +0.000 A 
ATOM     14  H   UNL     1       5.039   4.953  18.474  0.00  0.00    +0.000 HD
ENDBRANCH   2   5
BRANCH   1  18
ATOM     15  C   UNL     1      -0.651  11.463  22.544  0.00  0.00    +0.000 A 
ATOM     16  C   UNL     1      -0.759  10.220  23.163  0.00  0.00    +0.000 A 
ATOM     17  C   UNL     1      -0.050   9.095  22.677  0.00  0.00    +0.000 A 
ATOM     18  C   UNL     1       0.775   9.194  21.556  0.00  0.00    +0.000 A 
ATOM     19  C   UNL     1       0.895  10.461  20.955  0.00  0.00    +0.000 A 
ATOM     20  C   UNL     1       0.196  11.591  21.449  0.00  0.00    +0.000 A 
BRANCH  15  21
ATOM     21  N   UNL     1      -1.433  12.563  23.007  0.00  0.00    +0.000 N 
ATOM     22  H   UNL     1      -0.966  13.457  23.150  0.00  0.00    +0.000 HD
BRANCH  21  24
ATOM     23  C   UNL     1      -3.376  14.450  22.901  0.00  0.00    +0.000 C 
ATOM     24  S   UNL     1      -3.055  12.721  22.601  0.00  0.00    +0.000 S 
ATOM     25  O   UNL     1      -3.788  11.977  23.611  0.00  0.00    +0.000 OA
ATOM     26  O   UNL     1      -3.235  12.452  21.196  0.00  0.00    +0.000 OA
ENDBRANCH  21  24
ENDBRANCH  15  21
ENDBRANCH   1  18
TORSDOF 4
ENDMDL
