MODEL 1
REMARK VINA RESULT:      -8.9      0.000      0.000
REMARK  Name = 
REMARK  6 active torsions:
REMARK  status: ('A' for Active; 'I' for Inactive)
REMARK    1  A    between atoms: C_1  and  C_2
REMARK    2  A    between atoms: C_5  and  N_6
REMARK    3  A    between atoms: N_6  and  S_7
REMARK    4  A    between atoms: S_7  and  C_10
REMARK    5  A    between atoms: C_14  and  C_15
REMARK    6  A    between atoms: C_21  and  C_22
REMARK                            x       y       z     vdW  Elec       q    Type
REMARK                         _______ _______ _______ _____ _____    ______ ____
ROOT
ATOM      1  C   UNL     1       2.617   4.312  18.868  0.00  0.00    +0.000 A 
ATOM      2  C   UNL     1       2.363   4.030  20.215  0.00  0.00    +0.000 A 
ATOM      3  C   UNL     1       2.020   5.062  21.076  0.00  0.00    +0.000 A 
ATOM      4  C   UNL     1       1.892   6.360  20.584  0.00  0.00    +0.000 A 
ATOM      5  C   UNL     1       2.214   6.677  19.258  0.00  0.00    +0.000 A 
ATOM      6  C   UNL     1       2.555   5.631  18.387  0.00  0.00    +0.000 A 
ENDROOT
BRANCH   5   7
ATOM      7  C   UNL     1       2.066   8.068  18.716  0.00  0.00    +0.000 C 
ATOM      8  O   UNL     1       2.480   8.271  17.576  0.00  0.00    +0.000 OA
ATOM      9  N   UNL     1       1.440   9.073  19.466  0.00  0.00    +0.000 N 
ATOM     10  C   UNL     1       1.028  10.301  18.789  0.00  0.00    +0.000 C 
ATOM     11  C   UNL     1      -0.453  10.572  19.059  0.00  0.00    +0.000 C 
ATOM     12  C   UNL     1      -0.751  10.603  20.562  0.00  0.00    +0.000 C 
ATOM     13  C   UNL     1      -0.230   9.333  21.257  0.00  0.00    +0.000 C 
ATOM     14  C   UNL     1      -0.445   9.395  22.765  0.00  0.00    +0.000 C 
ATOM     15  C   UNL     1       1.257   9.119  20.920  0.00  0.00    +0.000 C 
ENDBRANCH   5   7
BRANCH   1  16
ATOM     16  S   UNL     1       2.869   2.958  17.737  0.00  0.00    +0.000 S 
ATOM     17  O   UNL     1       2.334   3.364  16.451  0.00  0.00    +0.000 OA
ATOM     18  O   UNL     1       2.418   1.746  18.381  0.00  0.00    +0.000 OA
BRANCH  16  19
ATOM     19  N   UNL     1       4.530   2.913  17.552  0.00  0.00    +0.000 N 
ATOM     20  H   UNL     1       4.964   2.005  17.410  0.00  0.00    +0.000 HD
BRANCH  19  25
ATOM     21  C   UNL     1       7.632   7.707  17.511  0.00  0.00    +0.000 C 
ATOM     22  C   UNL     1       6.828   6.440  17.535  0.00  0.00    +0.000 A 
ATOM     23  C   UNL     1       6.733   5.664  18.698  0.00  0.00    +0.000 A 
ATOM     24  C   UNL     1       5.967   4.495  18.705  0.00  0.00    +0.000 A 
ATOM     25  C   UNL     1       5.295   4.098  17.551  0.00  0.00    +0.000 A 
ATOM     26  C   UNL     1       5.406   4.844  16.383  0.00  0.00    +0.000 A 
ATOM     27  C   UNL     1       6.162   6.017  16.377  0.00  0.00    +0.000 A 
ENDBRANCH  19  25
ENDBRANCH  16  19
ENDBRANCH   1  16
TORSDOF 4
ENDMDL
MODEL 2
REMARK VINA RESULT:      -8.6      2.916      8.526
REMARK  Name = 
REMARK  6 active torsions:
REMARK  status: ('A' for Active; 'I' for Inactive)
REMARK    1  A    between atoms: C_1  and  C_2
REMARK    2  A    between atoms: C_5  and  N_6
REMARK    3  A    between atoms: N_6  and  S_7
REMARK    4  A    between atoms: S_7  and  C_10
REMARK    5  A    between atoms: C_14  and  C_15
REMARK    6  A    between atoms: C_21  and  C_22
REMARK                            x       y       z     vdW  Elec       q    Type
REMARK                         _______ _______ _______ _____ _____    ______ ____
ROOT
ATOM      1  C   UNL     1       1.467   8.815  20.140  0.00  0.00    +0.000 A 
ATOM      2  C   UNL     1       1.475   9.704  19.059  0.00  0.00    +0.000 A 
ATOM      3  C   UNL     1       1.912   9.264  17.817  0.00  0.00    +0.000 A 
ATOM      4  C   UNL     1       2.299   7.935  17.651  0.00  0.00    +0.000 A 
ATOM      5  C   UNL     1       2.371   7.051  18.734  0.00  0.00    +0.000 A 
ATOM      6  C   UNL     1       1.922   7.495  19.988  0.00  0.00    +0.000 A 
ENDROOT
BRANCH   5   7
ATOM      7  C   UNL     1       2.772   5.615  18.562  0.00  0.00    +0.000 C 
ATOM      8  O   UNL     1       1.883   4.771  18.659  0.00  0.00    +0.000 OA
ATOM      9  N   UNL     1       4.095   5.267  18.258  0.00  0.00    +0.000 N 
ATOM     10  C   UNL     1       4.372   3.913  17.781  0.00  0.00    +0.000 C 
ATOM     11  C   UNL     1       5.145   3.974  16.463  0.00  0.00    +0.000 C 
ATOM     12  C   UNL     1       6.416   4.820  16.597  0.00  0.00    +0.000 C 
ATOM     13  C   UNL     1       6.098   6.208  17.179  0.00  0.00    +0.000 C 
ATOM     14  C   UNL     1       7.367   7.025  17.397  0.00  0.00    +0.000 C 
ATOM     15  C   UNL     1       5.304   6.062  18.489  0.00  0.00    +0.000 C 
ENDBRANCH   5   7
BRANCH   1  16
ATOM     16  S   UNL     1       0.727   9.335  21.676  0.00  0.00    +0.000 S 
ATOM     17  O   UNL     1       1.758   9.273  22.694  0.00  0.00    +0.000 OA
ATOM     18  O   UNL     1      -0.520   8.624  21.837  0.00  0.00    +0.000 OA
BRANCH  16  19
ATOM     19  N   UNL     1       0.422  10.959  21.427  0.00  0.00    +0.000 N 
ATOM     20  H   UNL     1       1.178  11.530  21.060  0.00  0.00    +0.000 HD
BRANCH  19  25
ATOM     21  C   UNL     1      -4.739  13.198  22.406  0.00  0.00    +0.000 C 
ATOM     22  C   UNL     1      -3.377  12.615  22.166  0.00  0.00    +0.000 A 
ATOM     23  C   UNL     1      -2.604  12.122  23.224  0.00  0.00    +0.000 A 
ATOM     24  C   UNL     1      -1.344  11.568  22.979  0.00  0.00    +0.000 A 
ATOM     25  C   UNL     1      -0.854  11.508  21.677  0.00  0.00    +0.000 A 
ATOM     26  C   UNL     1      -1.600  12.022  20.621  0.00  0.00    +0.000 A 
ATOM     27  C   UNL     1      -2.863  12.564  20.864  0.00  0.00    +0.000 A 
ENDBRANCH  19  25
ENDBRANCH  16  19
ENDBRANCH   1  16
TORSDOF 4
ENDMDL
MODEL 3
REMARK VINA RESULT:      -8.6      2.070      6.237
REMARK  Name = 
REMARK  6 active torsions:
REMARK  status: ('A' for Active; 'I' for Inactive)
REMARK    1  A    between atoms: C_1  and  C_2
REMARK    2  A    between atoms: C_5  and  N_6
REMARK    3  A    between atoms: N_6  and  S_7
REMARK    4  A    between atoms: S_7  and  C_10
REMARK    5  A    between atoms: C_14  and  C_15
REMARK    6  A    between atoms: C_21  and  C_22
REMARK                            x       y       z     vdW  Elec       q    Type
REMARK                         _______ _______ _______ _____ _____    ______ ____
ROOT
ATOM      1  C   UNL     1       2.667   3.633  19.285  0.00  0.00    +0.000 A 
ATOM      2  C   UNL     1       2.556   2.237  19.272  0.00  0.00    +0.000 A 
ATOM      3  C   UNL     1       3.278   1.504  18.341  0.00  0.00    +0.000 A 
ATOM      4  C   UNL     1       4.134   2.159  17.457  0.00  0.00    +0.000 A 
ATOM      5  C   UNL     1       4.202   3.557  17.403  0.00  0.00    +0.000 A 
ATOM      6  C   UNL     1       3.477   4.297  18.349  0.00  0.00    +0.000 A 
ENDROOT
BRANCH   5   7
ATOM      7  C   UNL     1       5.131   4.270  16.464  0.00  0.00    +0.000 C 
ATOM      8  O   UNL     1       4.787   4.342  15.285  0.00  0.00    +0.000 OA
ATOM      9  N   UNL     1       6.312   4.864  16.929  0.00  0.00    +0.000 N 
ATOM     10  C   UNL     1       7.009   5.813  16.062  0.00  0.00    +0.000 C 
ATOM     11  C   UNL     1       7.240   7.127  16.810  0.00  0.00    +0.000 C 
ATOM     12  C   UNL     1       7.974   6.895  18.136  0.00  0.00    +0.000 C 
ATOM     13  C   UNL     1       7.259   5.830  18.986  0.00  0.00    +0.000 C 
ATOM     14  C   UNL     1       8.030   5.531  20.268  0.00  0.00    +0.000 C 
ATOM     15  C   UNL     1       7.045   4.551  18.159  0.00  0.00    +0.000 C 
ENDBRANCH   5   7
BRANCH   1  16
ATOM     16  S   UNL     1       1.887   4.546  20.602  0.00  0.00    +0.000 S 
ATOM     17  O   UNL     1       2.238   3.890  21.848  0.00  0.00    +0.000 OA
ATOM     18  O   UNL     1       0.506   4.765  20.240  0.00  0.00    +0.000 OA
BRANCH  16  19
ATOM     19  N   UNL     1       2.707   6.002  20.600  0.00  0.00    +0.000 N 
ATOM     20  H   UNL     1       3.677   5.998  20.905  0.00  0.00    +0.000 HD
BRANCH  19  25
ATOM     21  C   UNL     1       0.224  10.801  18.754  0.00  0.00    +0.000 C 
ATOM     22  C   UNL     1       0.878   9.547  19.257  0.00  0.00    +0.000 A 
ATOM     23  C   UNL     1       0.702   9.119  20.579  0.00  0.00    +0.000 A 
ATOM     24  C   UNL     1       1.307   7.940  21.025  0.00  0.00    +0.000 A 
ATOM     25  C   UNL     1       2.087   7.187  20.151  0.00  0.00    +0.000 A 
ATOM     26  C   UNL     1       2.293   7.618  18.845  0.00  0.00    +0.000 A 
ATOM     27  C   UNL     1       1.681   8.789  18.396  0.00  0.00    +0.000 A 
ENDBRANCH  19  25
ENDBRANCH  16  19
ENDBRANCH   1  16
TORSDOF 4
ENDMDL
MODEL 4
REMARK VINA RESULT:      -8.5      0.998      1.445
REMARK  Name = 
REMARK  6 active torsions:
REMARK  status: ('A' for Active; 'I' for Inactive)
REMARK    1  A    between atoms: C_1  and  C_2
REMARK    2  A    between atoms: C_5  and  N_6
REMARK    3  A    between atoms: N_6  and  S_7
REMARK    4  A    between atoms: S_7  and  C_10
REMARK    5  A    between atoms: C_14  and  C_15
REMARK    6  A    between atoms: C_21  and  C_22
REMARK                            x       y       z     vdW  Elec       q    Type
REMARK                         _______ _______ _______ _____ _____    ______ ____
ROOT
ATOM      1  C   UNL     1       3.071   3.863  19.547  0.00  0.00    +0.000 A 
ATOM      2  C   UNL     1       2.047   3.458  20.413  0.00  0.00    +0.000 A 
ATOM      3  C   UNL     1       1.083   4.376  20.805  0.00  0.00    +0.000 A 
ATOM      4  C   UNL     1       1.121   5.676  20.303  0.00  0.00    +0.000 A 
ATOM      5  C   UNL     1       2.176   6.121  19.499  0.00  0.00    +0.000 A 
ATOM      6  C   UNL     1       3.147   5.191  19.097  0.00  0.00    +0.000 A 
ENDROOT
BRANCH   5   7
ATOM      7  C   UNL     1       2.218   7.515  18.943  0.00  0.00    +0.000 C 
ATOM      8  O   UNL     1       2.742   7.661  17.840  0.00  0.00    +0.000 OA
ATOM      9  N   UNL     1       1.640   8.587  19.636  0.00  0.00    +0.000 N 
ATOM     10  C   UNL     1       1.414   9.843  18.925  0.00  0.00    +0.000 C 
ATOM     11  C   UNL     1      -0.048  10.268  19.071  0.00  0.00    +0.000 C 
ATOM     12  C   UNL     1      -0.464  10.346  20.545  0.00  0.00    +0.000 C 
ATOM     13  C   UNL     1      -0.135   9.036  21.282  0.00  0.00    +0.000 C 
ATOM     14  C   UNL     1      -0.466   9.136  22.768  0.00  0.00    +0.000 C 
ATOM     15  C   UNL     1       1.344   8.667  21.070  0.00  0.00    +0.000 C 
ENDBRANCH   5   7
BRANCH   1  16
ATOM     16  S   UNL     1       4.188   2.633  18.902  0.00  0.00    +0.000 S 
ATOM     17  O   UNL     1       3.388   1.494  18.495  0.00  0.00    +0.000 OA
ATOM     18  O   UNL     1       5.277   2.480  19.839  0.00  0.00    +0.000 OA
BRANCH  16  19
ATOM     19  N   UNL     1       4.753   3.328  17.491  0.00  0.00    +0.000 N 
ATOM     20  H   UNL     1       4.493   2.888  16.612  0.00  0.00    +0.000 HD
BRANCH  19  25
ATOM     21  C   UNL     1       7.897   8.093  17.636  0.00  0.00    +0.000 C 
ATOM     22  C   UNL     1       7.056   6.850  17.593  0.00  0.00    +0.000 A 
ATOM     23  C   UNL     1       5.973   6.739  16.710  0.00  0.00    +0.000 A 
ATOM     24  C   UNL     1       5.211   5.568  16.673  0.00  0.00    +0.000 A 
ATOM     25  C   UNL     1       5.527   4.507  17.518  0.00  0.00    +0.000 A 
ATOM     26  C   UNL     1       6.580   4.617  18.419  0.00  0.00    +0.000 A 
ATOM     27  C   UNL     1       7.349   5.781  18.449  0.00  0.00    +0.000 A 
ENDBRANCH  19  25
ENDBRANCH  16  19
ENDBRANCH   1  16
TORSDOF 4
ENDMDL
MODEL 5
REMARK VINA RESULT:      -8.5      3.087      8.120
REMARK  Name = 
REMARK  6 active torsions:
REMARK  status: ('A' for Active; 'I' for Inactive)
REMARK    1  A    between atoms: C_1  and  C_2
REMARK    2  A    between atoms: C_5  and  N_6
REMARK    3  A    between atoms: N_6  and  S_7
REMARK    4  A    between atoms: S_7  and  C_10
REMARK    5  A    between atoms: C_14  and  C_15
REMARK    6  A    between atoms: C_21  and  C_22
REMARK                            x       y       z     vdW  Elec       q    Type
REMARK                         _______ _______ _______ _____ _____    ______ ____
ROOT
ATOM      1  C   UNL     1       1.153   9.349  19.512  0.00  0.00    +0.000 A 
ATOM      2  C   UNL     1       0.851   8.819  20.772  0.00  0.00    +0.000 A 
ATOM      3  C   UNL     1       1.327   7.561  21.115  0.00  0.00    +0.000 A 
ATOM      4  C   UNL     1       2.132   6.858  20.219  0.00  0.00    +0.000 A 
ATOM      5  C   UNL     1       2.382   7.336  18.927  0.00  0.00    +0.000 A 
ATOM      6  C   UNL     1       1.906   8.611  18.584  0.00  0.00    +0.000 A 
ENDROOT
BRANCH   5   7
ATOM      7  C   UNL     1       3.259   6.593  17.962  0.00  0.00    +0.000 C 
ATOM      8  O   UNL     1       4.217   7.205  17.492  0.00  0.00    +0.000 OA
ATOM      9  N   UNL     1       3.014   5.249  17.652  0.00  0.00    +0.000 N 
ATOM     10  C   UNL     1       4.061   4.482  16.978  0.00  0.00    +0.000 C 
ATOM     11  C   UNL     1       4.358   3.205  17.765  0.00  0.00    +0.000 C 
ATOM     12  C   UNL     1       3.086   2.381  17.997  0.00  0.00    +0.000 C 
ATOM     13  C   UNL     1       1.978   3.241  18.631  0.00  0.00    +0.000 C 
ATOM     14  C   UNL     1       0.682   2.453  18.786  0.00  0.00    +0.000 C 
ATOM     15  C   UNL     1       1.754   4.514  17.795  0.00  0.00    +0.000 C 
ENDBRANCH   5   7
BRANCH   1  16
ATOM     16  S   UNL     1       0.699  11.036  19.157  0.00  0.00    +0.000 S 
ATOM     17  O   UNL     1       1.895  11.718  18.701  0.00  0.00    +0.000 OA
ATOM     18  O   UNL     1      -0.063  11.540  20.276  0.00  0.00    +0.000 OA
BRANCH  16  19
ATOM     19  N   UNL     1      -0.292  10.895  17.819  0.00  0.00    +0.000 N 
ATOM     20  H   UNL     1       0.154  10.784  16.912  0.00  0.00    +0.000 HD
BRANCH  19  25
ATOM     21  C   UNL     1      -5.980  10.843  18.318  0.00  0.00    +0.000 C 
ATOM     22  C   UNL     1      -4.485  10.876  18.186  0.00  0.00    +0.000 A 
ATOM     23  C   UNL     1      -3.738  11.950  18.685  0.00  0.00    +0.000 A 
ATOM     24  C   UNL     1      -2.345  11.955  18.566  0.00  0.00    +0.000 A 
ATOM     25  C   UNL     1      -1.697  10.888  17.949  0.00  0.00    +0.000 A 
ATOM     26  C   UNL     1      -2.430   9.830  17.423  0.00  0.00    +0.000 A 
ATOM     27  C   UNL     1      -3.820   9.819  17.551  0.00  0.00    +0.000 A 
ENDBRANCH  19  25
ENDBRANCH  16  19
ENDBRANCH   1  16
TORSDOF 4
ENDMDL
MODEL 6
REMARK VINA RESULT:      -8.4      3.044      8.297
REMARK  Name = 
REMARK  6 active torsions:
REMARK  status: ('A' for Active; 'I' for Inactive)
REMARK    1  A    between atoms: C_1  and  C_2
REMARK    2  A    between atoms: C_5  and  N_6
REMARK    3  A    between atoms: N_6  and  S_7
REMARK    4  A    between atoms: S_7  and  C_10
REMARK    5  A    between atoms: C_14  and  C_15
REMARK    6  A    between atoms: C_21  and  C_22
REMARK                            x       y       z     vdW  Elec       q    Type
REMARK                         _______ _______ _______ _____ _____    ______ ____
ROOT
ATOM      1  C   UNL     1       1.414   8.811  19.885  0.00  0.00    +0.000 A 
ATOM      2  C   UNL     1       1.780   9.111  18.567  0.00  0.00    +0.000 A 
ATOM      3  C   UNL     1       2.399   8.139  17.793  0.00  0.00    +0.000 A 
ATOM      4  C   UNL     1       2.613   6.867  18.320  0.00  0.00    +0.000 A 
ATOM      5  C   UNL     1       2.325   6.570  19.658  0.00  0.00    +0.000 A 
ATOM      6  C   UNL     1       1.693   7.550  20.438  0.00  0.00    +0.000 A 
ENDROOT
BRANCH   5   7
ATOM      7  C   UNL     1       2.539   5.199  20.230  0.00  0.00    +0.000 C 
ATOM      8  O   UNL     1       1.982   4.945  21.297  0.00  0.00    +0.000 OA
ATOM      9  N   UNL     1       3.303   4.243  19.549  0.00  0.00    +0.000 N 
ATOM     10  C   UNL     1       3.217   2.845  19.968  0.00  0.00    +0.000 C 
ATOM     11  C   UNL     1       2.874   1.962  18.767  0.00  0.00    +0.000 C 
ATOM     12  C   UNL     1       3.868   2.168  17.618  0.00  0.00    +0.000 C 
ATOM     13  C   UNL     1       3.996   3.659  17.259  0.00  0.00    +0.000 C 
ATOM     14  C   UNL     1       5.047   3.882  16.176  0.00  0.00    +0.000 C 
ATOM     15  C   UNL     1       4.320   4.480  18.520  0.00  0.00    +0.000 C 
ENDBRANCH   5   7
BRANCH   1  16
ATOM     16  S   UNL     1       0.453   9.999  20.803  0.00  0.00    +0.000 S 
ATOM     17  O   UNL     1       1.362  10.694  21.694  0.00  0.00    +0.000 OA
ATOM     18  O   UNL     1      -0.720   9.328  21.313  0.00  0.00    +0.000 OA
BRANCH  16  19
ATOM     19  N   UNL     1       0.004  11.113  19.641  0.00  0.00    +0.000 N 
ATOM     20  H   UNL     1       0.718  11.749  19.297  0.00  0.00    +0.000 HD
BRANCH  19  25
ATOM     21  C   UNL     1      -5.298  11.203  17.522  0.00  0.00    +0.000 C 
ATOM     22  C   UNL     1      -3.906  11.198  18.083  0.00  0.00    +0.000 A 
ATOM     23  C   UNL     1      -3.528  12.093  19.092  0.00  0.00    +0.000 A 
ATOM     24  C   UNL     1      -2.231  12.063  19.612  0.00  0.00    +0.000 A 
ATOM     25  C   UNL     1      -1.309  11.139  19.125  0.00  0.00    +0.000 A 
ATOM     26  C   UNL     1      -1.664  10.265  18.103  0.00  0.00    +0.000 A 
ATOM     27  C   UNL     1      -2.962  10.287  17.591  0.00  0.00    +0.000 A 
ENDBRANCH  19  25
ENDBRANCH  16  19
ENDBRANCH   1  16
TORSDOF 4
ENDMDL
MODEL 7
REMARK VINA RESULT:      -8.3      3.065      8.401
REMARK  Name = 
REMARK  6 active torsions:
REMARK  status: ('A' for Active; 'I' for Inactive)
REMARK    1  A    between atoms: C_1  and  C_2
REMARK    2  A    between atoms: C_5  and  N_6
REMARK    3  A    between atoms: N_6  and  S_7
REMARK    4  A    between atoms: S_7  and  C_10
REMARK    5  A    between atoms: C_14  and  C_15
REMARK    6  A    between atoms: C_21  and  C_22
REMARK                            x       y       z     vdW  Elec       q    Type
REMARK                         _______ _______ _______ _____ _____    ______ ____
ROOT
ATOM      1  C   UNL     1       1.304   8.723  20.064  0.00  0.00    +0.000 A 
ATOM      2  C   UNL     1       1.463   9.636  19.015  0.00  0.00    +0.000 A 
ATOM      3  C   UNL     1       2.091   9.229  17.846  0.00  0.00    +0.000 A 
ATOM      4  C   UNL     1       2.518   7.909  17.714  0.00  0.00    +0.000 A 
ATOM      5  C   UNL     1       2.438   7.002  18.777  0.00  0.00    +0.000 A 
ATOM      6  C   UNL     1       1.797   7.412  19.957  0.00  0.00    +0.000 A 
ENDROOT
BRANCH   5   7
ATOM      7  C   UNL     1       2.883   5.575  18.639  0.00  0.00    +0.000 C 
ATOM      8  O   UNL     1       2.020   4.707  18.759  0.00  0.00    +0.000 OA
ATOM      9  N   UNL     1       4.215   5.259  18.341  0.00  0.00    +0.000 N 
ATOM     10  C   UNL     1       4.532   3.903  17.897  0.00  0.00    +0.000 C 
ATOM     11  C   UNL     1       5.300   3.955  16.575  0.00  0.00    +0.000 C 
ATOM     12  C   UNL     1       6.545   4.843  16.685  0.00  0.00    +0.000 C 
ATOM     13  C   UNL     1       6.186   6.235  17.234  0.00  0.00    +0.000 C 
ATOM     14  C   UNL     1       7.431   7.095  17.428  0.00  0.00    +0.000 C 
ATOM     15  C   UNL     1       5.399   6.097  18.549  0.00  0.00    +0.000 C 
ENDBRANCH   5   7
BRANCH   1  16
ATOM     16  S   UNL     1       0.332   9.200  21.480  0.00  0.00    +0.000 S 
ATOM     17  O   UNL     1       1.244   9.750  22.465  0.00  0.00    +0.000 OA
ATOM     18  O   UNL     1      -0.547   8.103  21.811  0.00  0.00    +0.000 OA
BRANCH  16  19
ATOM     19  N   UNL     1      -0.567  10.490  20.913  0.00  0.00    +0.000 N 
ATOM     20  H   UNL     1      -1.025  10.386  20.012  0.00  0.00    +0.000 HD
BRANCH  19  25
ATOM     21  C   UNL     1      -1.151  15.254  24.008  0.00  0.00    +0.000 C 
ATOM     22  C   UNL     1      -1.003  13.991  23.210  0.00  0.00    +0.000 A 
ATOM     23  C   UNL     1      -1.792  12.866  23.481  0.00  0.00    +0.000 A 
ATOM     24  C   UNL     1      -1.650  11.704  22.716  0.00  0.00    +0.000 A 
ATOM     25  C   UNL     1      -0.720  11.665  21.681  0.00  0.00    +0.000 A 
ATOM     26  C   UNL     1       0.090  12.765  21.421  0.00  0.00    +0.000 A 
ATOM     27  C   UNL     1      -0.059  13.929  22.177  0.00  0.00    +0.000 A 
ENDBRANCH  19  25
ENDBRANCH  16  19
ENDBRANCH   1  16
TORSDOF 4
ENDMDL
MODEL 8
REMARK VINA RESULT:      -8.3      1.495      1.907
REMARK  Name = 
REMARK  6 active torsions:
REMARK  status: ('A' for Active; 'I' for Inactive)
REMARK    1  A    between atoms: C_1  and  C_2
REMARK    2  A    between atoms: C_5  and  N_6
REMARK    3  A    between atoms: N_6  and  S_7
REMARK    4  A    between atoms: S_7  and  C_10
REMARK    5  A    between atoms: C_14  and  C_15
REMARK    6  A    between atoms: C_21  and  C_22
REMARK                            x       y       z     vdW  Elec       q    Type
REMARK                         _______ _______ _______ _____ _____    ______ ____
ROOT
ATOM      1  C   UNL     1       3.236   4.050  19.811  0.00  0.00    +0.000 A 
ATOM      2  C   UNL     1       2.152   3.554  20.545  0.00  0.00    +0.000 A 
ATOM      3  C   UNL     1       1.067   4.380  20.802  0.00  0.00    +0.000 A 
ATOM      4  C   UNL     1       1.050   5.678  20.295  0.00  0.00    +0.000 A 
ATOM      5  C   UNL     1       2.155   6.218  19.624  0.00  0.00    +0.000 A 
ATOM      6  C   UNL     1       3.249   5.380  19.359  0.00  0.00    +0.000 A 
ENDROOT
BRANCH   5   7
ATOM      7  C   UNL     1       2.140   7.610  19.062  0.00  0.00    +0.000 C 
ATOM      8  O   UNL     1       2.594   7.759  17.929  0.00  0.00    +0.000 OA
ATOM      9  N   UNL     1       1.588   8.675  19.786  0.00  0.00    +0.000 N 
ATOM     10  C   UNL     1       1.299   9.925  19.085  0.00  0.00    +0.000 C 
ATOM     11  C   UNL     1      -0.158  10.327  19.318  0.00  0.00    +0.000 C 
ATOM     12  C   UNL     1      -0.485  10.405  20.813  0.00  0.00    +0.000 C 
ATOM     13  C   UNL     1      -0.091   9.104  21.534  0.00  0.00    +0.000 C 
ATOM     14  C   UNL     1      -0.333   9.205  23.037  0.00  0.00    +0.000 C 
ATOM     15  C   UNL     1       1.378   8.757  21.234  0.00  0.00    +0.000 C 
ENDBRANCH   5   7
BRANCH   1  16
ATOM     16  S   UNL     1       4.532   2.927  19.325  0.00  0.00    +0.000 S 
ATOM     17  O   UNL     1       4.091   2.254  18.119  0.00  0.00    +0.000 OA
ATOM     18  O   UNL     1       4.935   2.176  20.491  0.00  0.00    +0.000 OA
BRANCH  16  19
ATOM     19  N   UNL     1       5.771   3.947  18.857  0.00  0.00    +0.000 N 
ATOM     20  H   UNL     1       6.340   4.364  19.588  0.00  0.00    +0.000 HD
BRANCH  19  25
ATOM     21  C   UNL     1       6.842   4.889  13.328  0.00  0.00    +0.000 C 
ATOM     22  C   UNL     1       6.578   4.635  14.783  0.00  0.00    +0.000 A 
ATOM     23  C   UNL     1       7.603   4.737  15.733  0.00  0.00    +0.000 A 
ATOM     24  C   UNL     1       7.334   4.512  17.087  0.00  0.00    +0.000 A 
ATOM     25  C   UNL     1       6.043   4.185  17.493  0.00  0.00    +0.000 A 
ATOM     26  C   UNL     1       5.025   4.051  16.556  0.00  0.00    +0.000 A 
ATOM     27  C   UNL     1       5.289   4.287  15.206  0.00  0.00    +0.000 A 
ENDBRANCH  19  25
ENDBRANCH  16  19
ENDBRANCH   1  16
TORSDOF 4
ENDMDL
MODEL 9
REMARK VINA RESULT:      -8.2      3.168      7.847
REMARK  Name = 
REMARK  6 active torsions:
REMARK  status: ('A' for Active; 'I' for Inactive)
REMARK    1  A    between atoms: C_1  and  C_2
REMARK    2  A    between atoms: C_5  and  N_6
REMARK    3  A    between atoms: N_6  and  S_7
REMARK    4  A    between atoms: S_7  and  C_10
REMARK    5  A    between atoms: C_14  and  C_15
REMARK    6  A    between atoms: C_21  and  C_22
REMARK                            x       y       z     vdW  Elec       q    Type
REMARK                         _______ _______ _______ _____ _____    ______ ____
ROOT
ATOM      1  C   UNL     1       0.882   9.475  19.877  0.00  0.00    +0.000 A 
ATOM      2  C   UNL     1       0.602   8.834  21.091  0.00  0.00    +0.000 A 
ATOM      3  C   UNL     1       1.126   7.572  21.332  0.00  0.00    +0.000 A 
ATOM      4  C   UNL     1       1.955   6.974  20.384  0.00  0.00    +0.000 A 
ATOM      5  C   UNL     1       2.185   7.564  19.135  0.00  0.00    +0.000 A 
ATOM      6  C   UNL     1       1.660   8.843  18.894  0.00  0.00    +0.000 A 
ENDROOT
BRANCH   5   7
ATOM      7  C   UNL     1       3.088   6.934  18.114  0.00  0.00    +0.000 C 
ATOM      8  O   UNL     1       3.978   7.640  17.644  0.00  0.00    +0.000 OA
ATOM      9  N   UNL     1       2.943   5.588  17.754  0.00  0.00    +0.000 N 
ATOM     10  C   UNL     1       4.026   4.937  17.019  0.00  0.00    +0.000 C 
ATOM     11  C   UNL     1       4.450   3.658  17.743  0.00  0.00    +0.000 C 
ATOM     12  C   UNL     1       3.256   2.724  17.976  0.00  0.00    +0.000 C 
ATOM     13  C   UNL     1       2.104   3.465  18.677  0.00  0.00    +0.000 C 
ATOM     14  C   UNL     1       0.880   2.567  18.834  0.00  0.00    +0.000 C 
ATOM     15  C   UNL     1       1.751   4.747  17.902  0.00  0.00    +0.000 C 
ENDBRANCH   5   7
BRANCH   1  16
ATOM     16  S   UNL     1       0.364  11.166  19.658  0.00  0.00    +0.000 S 
ATOM     17  O   UNL     1       0.825  11.593  18.351  0.00  0.00    +0.000 OA
ATOM     18  O   UNL     1       0.719  11.902  20.850  0.00  0.00    +0.000 OA
BRANCH  16  19
ATOM     19  N   UNL     1      -1.300  11.049  19.545  0.00  0.00    +0.000 N 
ATOM     20  H   UNL     1      -1.840  11.170  20.397  0.00  0.00    +0.000 HD
BRANCH  19  25
ATOM     21  C   UNL     1      -3.890  10.191  14.529  0.00  0.00    +0.000 C 
ATOM     22  C   UNL     1      -3.204  10.399  15.847  0.00  0.00    +0.000 A 
ATOM     23  C   UNL     1      -2.089   9.633  16.212  0.00  0.00    +0.000 A 
ATOM     24  C   UNL     1      -1.454   9.851  17.438  0.00  0.00    +0.000 A 
ATOM     25  C   UNL     1      -1.932  10.834  18.302  0.00  0.00    +0.000 A 
ATOM     26  C   UNL     1      -3.056  11.579  17.964  0.00  0.00    +0.000 A 
ATOM     27  C   UNL     1      -3.684  11.370  16.735  0.00  0.00    +0.000 A 
ENDBRANCH  19  25
ENDBRANCH  16  19
ENDBRANCH   1  16
TORSDOF 4
ENDMDL
