MODEL 1
REMARK VINA RESULT:      -7.2      0.000      0.000
REMARK  Name = 
REMARK  7 active torsions:
REMARK  status: ('A' for Active; 'I' for Inactive)
REMARK    1  A    between atoms: C_1  and  C_2
REMARK    2  A    between atoms: C_5  and  C_6
REMARK    3  A    between atoms: C_7  and  C_8
REMARK    4  A    between atoms: C_8  and  C_9
REMARK    5  A    between atoms: C_11  and  C_12
REMARK    6  A    between atoms: C_12  and  N_13
REMARK    7  A    between atoms: N_16  and  C_17
REMARK                            x       y       z     vdW  Elec       q    Type
REMARK                         _______ _______ _______ _____ _____    ______ ____
ROOT
ATOM      1  C   UNL     1       4.166   6.990  17.393  0.00  0.00    +0.000 A 
ATOM      2  N   UNL     1       4.030   6.206  18.440  0.00  0.00    +0.000 NA
ATOM      3  C   UNL     1       2.860   6.673  19.001  0.00  0.00    +0.000 A 
ATOM      4  N   UNL     1       2.283   7.683  18.333  0.00  0.00    +0.000 NA
ATOM      5  O   UNL     1       3.157   7.902  17.265  0.00  0.00    +0.000 OA
ENDROOT
BRANCH   1   6
ATOM      6  C   UNL     1       5.143   6.909  16.279  0.00  0.00    +0.000 C 
BRANCH   6  13
ATOM      7  C   UNL     1       5.516   4.223  14.500  0.00  0.00    +0.000 C 
ATOM      8  C   UNL     1       6.346   4.678  15.644  0.00  0.00    +0.000 A 
ATOM      9  N   UNL     1       7.412   3.963  16.016  0.00  0.00    +0.000 NA
ATOM     10  N   UNL     1       7.925   4.648  17.046  0.00  0.00    +0.000 N 
ATOM     11  C   UNL     1       7.233   5.790  17.346  0.00  0.00    +0.000 A 
ATOM     12  C   UNL     1       7.663   6.686  18.444  0.00  0.00    +0.000 C 
ATOM     13  C   UNL     1       6.182   5.847  16.443  0.00  0.00    +0.000 A 
ATOM     14  H   UNL     1       8.758   4.286  17.492  0.00  0.00    +0.000 HD
ENDBRANCH   6  13
ENDBRANCH   1   6
BRANCH   3  15
ATOM     15  C   UNL     1       2.285   6.071  20.248  0.00  0.00    +0.000 C 
BRANCH  15  16
ATOM     16  N   UNL     1       1.772   4.709  20.017  0.00  0.00    +0.000 NA
ATOM     17  C   UNL     1       2.545   3.689  20.755  0.00  0.00    +0.000 C 
ATOM     18  C   UNL     1       2.028   2.258  20.482  0.00  0.00    +0.000 C 
ATOM     19  N   UNL     1       1.944   1.883  19.056  0.00  0.00    +0.000 NA
ATOM     20  C   UNL     1       3.266   1.624  18.491  0.00  0.00    +0.000 C 
ATOM     21  C   UNL     1       1.239   2.954  18.320  0.00  0.00    +0.000 C 
ATOM     22  C   UNL     1       1.776   4.382  18.577  0.00  0.00    +0.000 C 
ENDBRANCH  15  16
ENDBRANCH   3  15
TORSDOF 4
ENDMDL
MODEL 2
REMARK VINA RESULT:      -7.1      3.903      6.631
REMARK  Name = 
REMARK  7 active torsions:
REMARK  status: ('A' for Active; 'I' for Inactive)
REMARK    1  A    between atoms: C_1  and  C_2
REMARK    2  A    between atoms: C_5  and  C_6
REMARK    3  A    between atoms: C_7  and  C_8
REMARK    4  A    between atoms: C_8  and  C_9
REMARK    5  A    between atoms: C_11  and  C_12
REMARK    6  A    between atoms: C_12  and  N_13
REMARK    7  A    between atoms: N_16  and  C_17
REMARK                            x       y       z     vdW  Elec       q    Type
REMARK                         _______ _______ _______ _____ _____    ______ ____
ROOT
ATOM      1  C   UNL     1       1.260   9.223  19.066  0.00  0.00    +0.000 A 
ATOM      2  N   UNL     1       1.862   8.118  19.449  0.00  0.00    +0.000 NA
ATOM      3  C   UNL     1       2.598   7.786  18.331  0.00  0.00    +0.000 A 
ATOM      4  N   UNL     1       2.478   8.646  17.308  0.00  0.00    +0.000 NA
ATOM      5  O   UNL     1       1.580   9.599  17.792  0.00  0.00    +0.000 OA
ENDROOT
BRANCH   1   6
ATOM      6  C   UNL     1       0.441  10.171  19.861  0.00  0.00    +0.000 C 
BRANCH   6  13
ATOM      7  C   UNL     1       1.437  13.252  19.663  0.00  0.00    +0.000 C 
ATOM      8  C   UNL     1       0.282  12.623  18.973  0.00  0.00    +0.000 A 
ATOM      9  N   UNL     1      -0.456  13.346  18.125  0.00  0.00    +0.000 NA
ATOM     10  N   UNL     1      -1.384  12.487  17.682  0.00  0.00    +0.000 N 
ATOM     11  C   UNL     1      -1.263  11.229  18.207  0.00  0.00    +0.000 A 
ATOM     12  C   UNL     1      -2.189  10.140  17.820  0.00  0.00    +0.000 C 
ATOM     13  C   UNL     1      -0.174  11.277  19.064  0.00  0.00    +0.000 A 
ATOM     14  H   UNL     1      -2.064  12.824  17.013  0.00  0.00    +0.000 HD
ENDBRANCH   6  13
ENDBRANCH   1   6
BRANCH   3  15
ATOM     15  C   UNL     1       3.471   6.569  18.291  0.00  0.00    +0.000 C 
BRANCH  15  16
ATOM     16  N   UNL     1       2.802   5.392  18.876  0.00  0.00    +0.000 NA
ATOM     17  C   UNL     1       3.744   4.526  19.615  0.00  0.00    +0.000 C 
ATOM     18  C   UNL     1       3.047   3.274  20.195  0.00  0.00    +0.000 C 
ATOM     19  N   UNL     1       2.291   2.466  19.217  0.00  0.00    +0.000 NA
ATOM     20  C   UNL     1       3.183   1.696  18.354  0.00  0.00    +0.000 C 
ATOM     21  C   UNL     1       1.415   3.362  18.432  0.00  0.00    +0.000 C 
ATOM     22  C   UNL     1       2.121   4.601  17.831  0.00  0.00    +0.000 C 
ENDBRANCH  15  16
ENDBRANCH   3  15
TORSDOF 4
ENDMDL
MODEL 3
REMARK VINA RESULT:      -7.1      2.385      4.257
REMARK  Name = 
REMARK  7 active torsions:
REMARK  status: ('A' for Active; 'I' for Inactive)
REMARK    1  A    between atoms: C_1  and  C_2
REMARK    2  A    between atoms: C_5  and  C_6
REMARK    3  A    between atoms: C_7  and  C_8
REMARK    4  A    between atoms: C_8  and  C_9
REMARK    5  A    between atoms: C_11  and  C_12
REMARK    6  A    between atoms: C_12  and  N_13
REMARK    7  A    between atoms: N_16  and  C_17
REMARK                            x       y       z     vdW  Elec       q    Type
REMARK                         _______ _______ _______ _____ _____    ______ ____
ROOT
ATOM      1  C   UNL     1       4.214   4.707  18.551  0.00  0.00    +0.000 A 
ATOM      2  N   UNL     1       3.991   5.605  19.486  0.00  0.00    +0.000 NA
ATOM      3  C   UNL     1       2.615   5.684  19.488  0.00  0.00    +0.000 A 
ATOM      4  N   UNL     1       2.006   4.868  18.614  0.00  0.00    +0.000 NA
ATOM      5  O   UNL     1       3.071   4.222  17.983  0.00  0.00    +0.000 OA
ENDROOT
BRANCH   1   6
ATOM      6  C   UNL     1       5.488   4.052  18.162  0.00  0.00    +0.000 C 
BRANCH   6  13
ATOM      7  C   UNL     1       5.471   4.055  14.919  0.00  0.00    +0.000 C 
ATOM      8  C   UNL     1       6.320   4.869  15.825  0.00  0.00    +0.000 A 
ATOM      9  N   UNL     1       7.177   5.756  15.309  0.00  0.00    +0.000 NA
ATOM     10  N   UNL     1       7.761   6.310  16.380  0.00  0.00    +0.000 N 
ATOM     11  C   UNL     1       7.301   5.819  17.572  0.00  0.00    +0.000 A 
ATOM     12  C   UNL     1       7.817   6.325  18.865  0.00  0.00    +0.000 C 
ATOM     13  C   UNL     1       6.349   4.865  17.249  0.00  0.00    +0.000 A 
ATOM     14  H   UNL     1       8.457   7.028  16.226  0.00  0.00    +0.000 HD
ENDBRANCH   6  13
ENDBRANCH   1   6
BRANCH   3  15
ATOM     15  C   UNL     1       1.876   6.602  20.416  0.00  0.00    +0.000 C 
BRANCH  15  16
ATOM     16  N   UNL     1       1.940   8.005  19.968  0.00  0.00    +0.000 NA
ATOM     17  C   UNL     1       0.909   8.843  20.615  0.00  0.00    +0.000 C 
ATOM     18  C   UNL     1       0.954  10.305  20.116  0.00  0.00    +0.000 C 
ATOM     19  N   UNL     1       0.884  10.472  18.651  0.00  0.00    +0.000 NA
ATOM     20  C   UNL     1      -0.466  10.235  18.148  0.00  0.00    +0.000 C 
ATOM     21  C   UNL     1       1.867   9.566  18.019  0.00  0.00    +0.000 C 
ATOM     22  C   UNL     1       1.802   8.097  18.502  0.00  0.00    +0.000 C 
ENDBRANCH  15  16
ENDBRANCH   3  15
TORSDOF 4
ENDMDL
MODEL 4
REMARK VINA RESULT:      -7.1      0.206      1.774
REMARK  Name = 
REMARK  7 active torsions:
REMARK  status: ('A' for Active; 'I' for Inactive)
REMARK    1  A    between atoms: C_1  and  C_2
REMARK    2  A    between atoms: C_5  and  C_6
REMARK    3  A    between atoms: C_7  and  C_8
REMARK    4  A    between atoms: C_8  and  C_9
REMARK    5  A    between atoms: C_11  and  C_12
REMARK    6  A    between atoms: C_12  and  N_13
REMARK    7  A    between atoms: N_16  and  C_17
REMARK                            x       y       z     vdW  Elec       q    Type
REMARK                         _______ _______ _______ _____ _____    ______ ____
ROOT
ATOM      1  C   UNL     1       4.113   7.046  17.473  0.00  0.00    +0.000 A 
ATOM      2  N   UNL     1       3.943   6.251  18.506  0.00  0.00    +0.000 NA
ATOM      3  C   UNL     1       2.769   6.727  19.049  0.00  0.00    +0.000 A 
ATOM      4  N   UNL     1       2.220   7.754  18.381  0.00  0.00    +0.000 NA
ATOM      5  O   UNL     1       3.120   7.974  17.335  0.00  0.00    +0.000 OA
ENDROOT
BRANCH   1   6
ATOM      6  C   UNL     1       5.112   6.965  16.379  0.00  0.00    +0.000 C 
BRANCH   6  13
ATOM      7  C   UNL     1       7.704   6.818  18.324  0.00  0.00    +0.000 C 
ATOM      8  C   UNL     1       7.213   5.780  17.383  0.00  0.00    +0.000 A 
ATOM      9  N   UNL     1       7.846   4.605  17.304  0.00  0.00    +0.000 NA
ATOM     10  N   UNL     1       7.150   3.917  16.389  0.00  0.00    +0.000 N 
ATOM     11  C   UNL     1       6.080   4.604  15.881  0.00  0.00    +0.000 A 
ATOM     12  C   UNL     1       5.183   3.997  14.872  0.00  0.00    +0.000 C 
ATOM     13  C   UNL     1       6.087   5.839  16.512  0.00  0.00    +0.000 A 
ATOM     14  H   UNL     1       7.454   2.978  16.166  0.00  0.00    +0.000 HD
ENDBRANCH   6  13
ENDBRANCH   1   6
BRANCH   3  15
ATOM     15  C   UNL     1       2.159   6.118  20.275  0.00  0.00    +0.000 C 
BRANCH  15  16
ATOM     16  N   UNL     1       1.694   4.740  20.033  0.00  0.00    +0.000 NA
ATOM     17  C   UNL     1       2.494   3.744  20.775  0.00  0.00    +0.000 C 
ATOM     18  C   UNL     1       2.029   2.298  20.490  0.00  0.00    +0.000 C 
ATOM     19  N   UNL     1       1.970   1.926  19.062  0.00  0.00    +0.000 NA
ATOM     20  C   UNL     1       3.305   1.714  18.508  0.00  0.00    +0.000 C 
ATOM     21  C   UNL     1       1.235   2.976  18.324  0.00  0.00    +0.000 C 
ATOM     22  C   UNL     1       1.722   4.421  18.592  0.00  0.00    +0.000 C 
ENDBRANCH  15  16
ENDBRANCH   3  15
TORSDOF 4
ENDMDL
MODEL 5
REMARK VINA RESULT:      -7.0      2.317      4.548
REMARK  Name = 
REMARK  7 active torsions:
REMARK  status: ('A' for Active; 'I' for Inactive)
REMARK    1  A    between atoms: C_1  and  C_2
REMARK    2  A    between atoms: C_5  and  C_6
REMARK    3  A    between atoms: C_7  and  C_8
REMARK    4  A    between atoms: C_8  and  C_9
REMARK    5  A    between atoms: C_11  and  C_12
REMARK    6  A    between atoms: C_12  and  N_13
REMARK    7  A    between atoms: N_16  and  C_17
REMARK                            x       y       z     vdW  Elec       q    Type
REMARK                         _______ _______ _______ _____ _____    ______ ____
ROOT
ATOM      1  C   UNL     1       3.959   4.516  17.904  0.00  0.00    +0.000 A 
ATOM      2  N   UNL     1       3.900   5.332  18.933  0.00  0.00    +0.000 NA
ATOM      3  C   UNL     1       2.541   5.516  19.080  0.00  0.00    +0.000 A 
ATOM      4  N   UNL     1       1.787   4.837  18.202  0.00  0.00    +0.000 NA
ATOM      5  O   UNL     1       2.730   4.177  17.411  0.00  0.00    +0.000 OA
ENDROOT
BRANCH   1   6
ATOM      6  C   UNL     1       5.130   3.806  17.333  0.00  0.00    +0.000 C 
BRANCH   6  13
ATOM      7  C   UNL     1       7.248   6.023  18.391  0.00  0.00    +0.000 C 
ATOM      8  C   UNL     1       6.972   5.626  16.987  0.00  0.00    +0.000 A 
ATOM      9  N   UNL     1       7.670   6.182  15.992  0.00  0.00    +0.000 NA
ATOM     10  N   UNL     1       7.185   5.603  14.886  0.00  0.00    +0.000 N 
ATOM     11  C   UNL     1       6.204   4.682  15.133  0.00  0.00    +0.000 A 
ATOM     12  C   UNL     1       5.562   3.926  14.034  0.00  0.00    +0.000 C 
ATOM     13  C   UNL     1       6.034   4.667  16.509  0.00  0.00    +0.000 A 
ATOM     14  H   UNL     1       7.579   5.875  13.994  0.00  0.00    +0.000 HD
ENDBRANCH   6  13
ENDBRANCH   1   6
BRANCH   3  15
ATOM     15  C   UNL     1       1.973   6.392  20.155  0.00  0.00    +0.000 C 
BRANCH  15  16
ATOM     16  N   UNL     1       2.047   7.821  19.798  0.00  0.00    +0.000 NA
ATOM     17  C   UNL     1       1.059   8.632  20.539  0.00  0.00    +0.000 C 
ATOM     18  C   UNL     1       1.113  10.123  20.135  0.00  0.00    +0.000 C 
ATOM     19  N   UNL     1       0.989  10.387  18.688  0.00  0.00    +0.000 NA
ATOM     20  C   UNL     1      -0.385  10.206  18.226  0.00  0.00    +0.000 C 
ATOM     21  C   UNL     1       1.928   9.507  17.959  0.00  0.00    +0.000 C 
ATOM     22  C   UNL     1       1.852   8.011  18.347  0.00  0.00    +0.000 C 
ENDBRANCH  15  16
ENDBRANCH   3  15
TORSDOF 4
ENDMDL
MODEL 6
REMARK VINA RESULT:      -6.9      1.122      1.420
REMARK  Name = 
REMARK  7 active torsions:
REMARK  status: ('A' for Active; 'I' for Inactive)
REMARK    1  A    between atoms: C_1  and  C_2
REMARK    2  A    between atoms: C_5  and  C_6
REMARK    3  A    between atoms: C_7  and  C_8
REMARK    4  A    between atoms: C_8  and  C_9
REMARK    5  A    between atoms: C_11  and  C_12
REMARK    6  A    between atoms: C_12  and  N_13
REMARK    7  A    between atoms: N_16  and  C_17
REMARK                            x       y       z     vdW  Elec       q    Type
REMARK                         _______ _______ _______ _____ _____    ______ ____
ROOT
ATOM      1  C   UNL     1       4.353   6.749  17.550  0.00  0.00    +0.000 A 
ATOM      2  N   UNL     1       3.680   5.624  17.458  0.00  0.00    +0.000 NA
ATOM      3  C   UNL     1       2.403   6.022  17.796  0.00  0.00    +0.000 A 
ATOM      4  N   UNL     1       2.279   7.330  18.069  0.00  0.00    +0.000 NA
ATOM      5  O   UNL     1       3.580   7.815  17.914  0.00  0.00    +0.000 OA
ENDROOT
BRANCH   1   6
ATOM      6  C   UNL     1       5.756   7.040  17.163  0.00  0.00    +0.000 C 
BRANCH   6  13
ATOM      7  C   UNL     1       6.321   5.035  14.677  0.00  0.00    +0.000 C 
ATOM      8  C   UNL     1       6.906   4.980  16.041  0.00  0.00    +0.000 A 
ATOM      9  N   UNL     1       7.808   4.039  16.337  0.00  0.00    +0.000 NA
ATOM     10  N   UNL     1       8.127   4.280  17.616  0.00  0.00    +0.000 N 
ATOM     11  C   UNL     1       7.470   5.353  18.153  0.00  0.00    +0.000 A 
ATOM     12  C   UNL     1       7.708   5.783  19.550  0.00  0.00    +0.000 C 
ATOM     13  C   UNL     1       6.653   5.844  17.145  0.00  0.00    +0.000 A 
ATOM     14  H   UNL     1       8.811   3.680  18.057  0.00  0.00    +0.000 HD
ENDBRANCH   6  13
ENDBRANCH   1   6
BRANCH   3  15
ATOM     15  C   UNL     1       1.257   5.057  17.830  0.00  0.00    +0.000 C 
BRANCH  15  16
ATOM     16  N   UNL     1       1.365   4.112  18.957  0.00  0.00    +0.000 NA
ATOM     17  C   UNL     1       2.149   4.669  20.078  0.00  0.00    +0.000 C 
ATOM     18  C   UNL     1       2.293   3.663  21.242  0.00  0.00    +0.000 C 
ATOM     19  N   UNL     1       2.833   2.341  20.866  0.00  0.00    +0.000 NA
ATOM     20  C   UNL     1       4.269   2.403  20.607  0.00  0.00    +0.000 C 
ATOM     21  C   UNL     1       2.090   1.836  19.692  0.00  0.00    +0.000 C 
ATOM     22  C   UNL     1       1.970   2.838  18.519  0.00  0.00    +0.000 C 
ENDBRANCH  15  16
ENDBRANCH   3  15
TORSDOF 4
ENDMDL
MODEL 7
REMARK VINA RESULT:      -6.8      3.343      5.405
REMARK  Name = 
REMARK  7 active torsions:
REMARK  status: ('A' for Active; 'I' for Inactive)
REMARK    1  A    between atoms: C_1  and  C_2
REMARK    2  A    between atoms: C_5  and  C_6
REMARK    3  A    between atoms: C_7  and  C_8
REMARK    4  A    between atoms: C_8  and  C_9
REMARK    5  A    between atoms: C_11  and  C_12
REMARK    6  A    between atoms: C_12  and  N_13
REMARK    7  A    between atoms: N_16  and  C_17
REMARK                            x       y       z     vdW  Elec       q    Type
REMARK                         _______ _______ _______ _____ _____    ______ ____
ROOT
ATOM      1  C   UNL     1       3.957   6.251  18.515  0.00  0.00    +0.000 A 
ATOM      2  N   UNL     1       3.629   7.175  17.639  0.00  0.00    +0.000 NA
ATOM      3  C   UNL     1       2.572   7.803  18.263  0.00  0.00    +0.000 A 
ATOM      4  N   UNL     1       2.265   7.311  19.474  0.00  0.00    +0.000 NA
ATOM      5  O   UNL     1       3.181   6.270  19.639  0.00  0.00    +0.000 OA
ENDROOT
BRANCH   1   6
ATOM      6  C   UNL     1       5.122   5.331  18.519  0.00  0.00    +0.000 C 
BRANCH   6  13
ATOM      7  C   UNL     1       5.049   3.952  15.584  0.00  0.00    +0.000 C 
ATOM      8  C   UNL     1       6.029   4.941  16.100  0.00  0.00    +0.000 A 
ATOM      9  N   UNL     1       7.002   5.389  15.300  0.00  0.00    +0.000 NA
ATOM     10  N   UNL     1       7.682   6.256  16.063  0.00  0.00    +0.000 N 
ATOM     11  C   UNL     1       7.174   6.393  17.326  0.00  0.00    +0.000 A 
ATOM     12  C   UNL     1       7.782   7.322  18.305  0.00  0.00    +0.000 C 
ATOM     13  C   UNL     1       6.081   5.542  17.391  0.00  0.00    +0.000 A 
ATOM     14  H   UNL     1       8.477   6.729  15.653  0.00  0.00    +0.000 HD
ENDBRANCH   6  13
ENDBRANCH   1   6
BRANCH   3  15
ATOM     15  C   UNL     1       1.851   8.956  17.632  0.00  0.00    +0.000 C 
BRANCH  15  16
ATOM     16  N   UNL     1       1.375   9.925  18.636  0.00  0.00    +0.000 NA
ATOM     17  C   UNL     1      -0.097  10.058  18.627  0.00  0.00    +0.000 C 
ATOM     18  C   UNL     1      -0.590  11.102  19.654  0.00  0.00    +0.000 C 
ATOM     19  N   UNL     1       0.031  12.436  19.542  0.00  0.00    +0.000 NA
ATOM     20  C   UNL     1      -0.487  13.173  18.392  0.00  0.00    +0.000 C 
ATOM     21  C   UNL     1       1.499  12.276  19.470  0.00  0.00    +0.000 C 
ATOM     22  C   UNL     1       1.991  11.249  18.422  0.00  0.00    +0.000 C 
ENDBRANCH  15  16
ENDBRANCH   3  15
TORSDOF 4
ENDMDL
MODEL 8
REMARK VINA RESULT:      -6.8      3.665      6.439
REMARK  Name = 
REMARK  7 active torsions:
REMARK  status: ('A' for Active; 'I' for Inactive)
REMARK    1  A    between atoms: C_1  and  C_2
REMARK    2  A    between atoms: C_5  and  C_6
REMARK    3  A    between atoms: C_7  and  C_8
REMARK    4  A    between atoms: C_8  and  C_9
REMARK    5  A    between atoms: C_11  and  C_12
REMARK    6  A    between atoms: C_12  and  N_13
REMARK    7  A    between atoms: N_16  and  C_17
REMARK                            x       y       z     vdW  Elec       q    Type
REMARK                         _______ _______ _______ _____ _____    ______ ____
ROOT
ATOM      1  C   UNL     1       3.027   6.895  18.939  0.00  0.00    +0.000 A 
ATOM      2  N   UNL     1       2.049   7.634  19.414  0.00  0.00    +0.000 NA
ATOM      3  C   UNL     1       1.897   8.582  18.424  0.00  0.00    +0.000 A 
ATOM      4  N   UNL     1       2.723   8.435  17.377  0.00  0.00    +0.000 NA
ATOM      5  O   UNL     1       3.483   7.316  17.723  0.00  0.00    +0.000 OA
ENDROOT
BRANCH   1   6
ATOM      6  C   UNL     1       3.569   5.612  19.452  0.00  0.00    +0.000 C 
BRANCH   6  13
ATOM      7  C   UNL     1       0.957   3.922  20.371  0.00  0.00    +0.000 C 
ATOM      8  C   UNL     1       1.840   3.669  19.204  0.00  0.00    +0.000 A 
ATOM      9  N   UNL     1       1.561   2.663  18.369  0.00  0.00    +0.000 NA
ATOM     10  N   UNL     1       2.529   2.725  17.445  0.00  0.00    +0.000 N 
ATOM     11  C   UNL     1       3.418   3.746  17.647  0.00  0.00    +0.000 A 
ATOM     12  C   UNL     1       4.545   3.983  16.717  0.00  0.00    +0.000 C 
ATOM     13  C   UNL     1       2.998   4.394  18.799  0.00  0.00    +0.000 A 
ATOM     14  H   UNL     1       2.515   2.047  16.695  0.00  0.00    +0.000 HD
ENDBRANCH   6  13
ENDBRANCH   1   6
BRANCH   3  15
ATOM     15  C   UNL     1       0.870   9.670  18.521  0.00  0.00    +0.000 C 
BRANCH  15  16
ATOM     16  N   UNL     1       0.949  10.390  19.806  0.00  0.00    +0.000 NA
ATOM     17  C   UNL     1      -0.216  10.115  20.671  0.00  0.00    +0.000 C 
ATOM     18  C   UNL     1      -0.149  10.900  22.001  0.00  0.00    +0.000 C 
ATOM     19  N   UNL     1       0.035  12.358  21.861  0.00  0.00    +0.000 NA
ATOM     20  C   UNL     1      -1.193  13.013  21.419  0.00  0.00    +0.000 C 
ATOM     21  C   UNL     1       1.153  12.612  20.928  0.00  0.00    +0.000 C 
ATOM     22  C   UNL     1       1.069  11.845  19.587  0.00  0.00    +0.000 C 
ENDBRANCH  15  16
ENDBRANCH   3  15
TORSDOF 4
ENDMDL
MODEL 9
REMARK VINA RESULT:      -6.8      4.022      6.162
REMARK  Name = 
REMARK  7 active torsions:
REMARK  status: ('A' for Active; 'I' for Inactive)
REMARK    1  A    between atoms: C_1  and  C_2
REMARK    2  A    between atoms: C_5  and  C_6
REMARK    3  A    between atoms: C_7  and  C_8
REMARK    4  A    between atoms: C_8  and  C_9
REMARK    5  A    between atoms: C_11  and  C_12
REMARK    6  A    between atoms: C_12  and  N_13
REMARK    7  A    between atoms: N_16  and  C_17
REMARK                            x       y       z     vdW  Elec       q    Type
REMARK                         _______ _______ _______ _____ _____    ______ ____
ROOT
ATOM      1  C   UNL     1       3.096   7.302  17.971  0.00  0.00    +0.000 A 
ATOM      2  N   UNL     1       2.517   8.388  17.508  0.00  0.00    +0.000 NA
ATOM      3  C   UNL     1       1.770   8.802  18.590  0.00  0.00    +0.000 A 
ATOM      4  N   UNL     1       1.886   8.027  19.680  0.00  0.00    +0.000 NA
ATOM      5  O   UNL     1       2.763   7.021  19.266  0.00  0.00    +0.000 OA
ENDROOT
BRANCH   1   6
ATOM      6  C   UNL     1       4.153   6.464  17.353  0.00  0.00    +0.000 C 
BRANCH   6  13
ATOM      7  C   UNL     1       2.283   3.816  17.472  0.00  0.00    +0.000 C 
ATOM      8  C   UNL     1       3.609   4.022  18.108  0.00  0.00    +0.000 A 
ATOM      9  N   UNL     1       4.176   3.026  18.796  0.00  0.00    +0.000 NA
ATOM     10  N   UNL     1       5.341   3.537  19.215  0.00  0.00    +0.000 N 
ATOM     11  C   UNL     1       5.553   4.828  18.810  0.00  0.00    +0.000 A 
ATOM     12  C   UNL     1       6.795   5.552  19.162  0.00  0.00    +0.000 C 
ATOM     13  C   UNL     1       4.432   5.185  18.077  0.00  0.00    +0.000 A 
ATOM     14  H   UNL     1       5.951   2.945  19.763  0.00  0.00    +0.000 HD
ENDBRANCH   6  13
ENDBRANCH   1   6
BRANCH   3  15
ATOM     15  C   UNL     1       0.917  10.034  18.539  0.00  0.00    +0.000 C 
BRANCH  15  16
ATOM     16  N   UNL     1       1.001  10.814  19.787  0.00  0.00    +0.000 NA
ATOM     17  C   UNL     1      -0.296  10.881  20.491  0.00  0.00    +0.000 C 
ATOM     18  C   UNL     1      -0.214  11.731  21.779  0.00  0.00    +0.000 C 
ATOM     19  N   UNL     1       0.325  13.093  21.599  0.00  0.00    +0.000 NA
ATOM     20  C   UNL     1      -0.647  13.975  20.958  0.00  0.00    +0.000 C 
ATOM     21  C   UNL     1       1.581  13.012  20.823  0.00  0.00    +0.000 C 
ATOM     22  C   UNL     1       1.488  12.182  19.520  0.00  0.00    +0.000 C 
ENDBRANCH  15  16
ENDBRANCH   3  15
TORSDOF 4
ENDMDL
