MODEL 1
REMARK VINA RESULT:      -6.3      0.000      0.000
REMARK  Name = 
REMARK  9 active torsions:
REMARK  status: ('A' for Active; 'I' for Inactive)
REMARK    1  A    between atoms: C_2  and  C_3
REMARK    2  A    between atoms: C_3  and  C_4
REMARK    3  A    between atoms: C_4  and  N_5
REMARK    4  A    between atoms: N_5  and  C_6
REMARK    5  A    between atoms: N_5  and  C_10
REMARK    6  A    between atoms: C_6  and  C_7
REMARK    7  A    between atoms: C_7  and  C_8
REMARK    8  A    between atoms: C_13  and  C_14
REMARK    9  A    between atoms: N_16  and  N_17
REMARK                            x       y       z     vdW  Elec       q    Type
REMARK                         _______ _______ _______ _____ _____    ______ ____
ROOT
ATOM      1  C   UNL     1       4.347   5.289  17.360  0.00  0.00    +0.000 A 
ATOM      2  C   UNL     1       3.838   5.847  18.544  0.00  0.00    +0.000 A 
ATOM      3  C   UNL     1       2.934   5.167  19.372  0.00  0.00    +0.000 A 
ATOM      4  C   UNL     1       2.453   3.906  19.018  0.00  0.00    +0.000 A 
ATOM      5  C   UNL     1       2.885   3.352  17.815  0.00  0.00    +0.000 A 
ATOM      6  C   UNL     1       3.816   4.036  17.011  0.00  0.00    +0.000 A 
ENDROOT
BRANCH   4   7
ATOM      7  C   UNL     1       1.543   3.218  19.978  0.00  0.00    +0.000 C 
ATOM      8  O   UNL     1       0.498   2.698  19.584  0.00  0.00    +0.000 OA
ATOM      9  N   UNL     1       1.912   3.197  21.320  0.00  0.00    +0.000 N 
ATOM     10  H   UNL     1       2.834   3.482  21.630  0.00  0.00    +0.000 HD
BRANCH   9  11
ATOM     11  N   UNL     1       1.079   2.524  22.242  0.00  0.00    +0.000 NA
ATOM     12  H   UNL     1       1.586   2.524  23.141  0.00  0.00    +0.000 HD
ATOM     13  H   UNL     1       1.062   1.534  21.982  0.00  0.00    +0.000 HD
ENDBRANCH   9  11
ENDBRANCH   4   7
BRANCH   1  14
ATOM     14  N   UNL     1       5.334   5.919  16.606  0.00  0.00    +0.000 N 
BRANCH  14  15
ATOM     15  C   UNL     1       6.135   7.042  17.150  0.00  0.00    +0.000 C 
BRANCH  15  16
ATOM     16  C   UNL     1       7.544   6.652  17.610  0.00  0.00    +0.000 C 
BRANCH  16  18
ATOM     17  N   UNL     1       7.562   5.348  20.067  0.00  0.00    +0.000 NA
ATOM     18  C   UNL     1       7.553   5.939  18.952  0.00  0.00    +0.000 C 
ENDBRANCH  16  18
ENDBRANCH  15  16
ENDBRANCH  14  15
BRANCH  14  19
ATOM     19  C   UNL     1       5.534   5.607  15.173  0.00  0.00    +0.000 C 
BRANCH  19  20
ATOM     20  C   UNL     1       6.457   4.403  14.940  0.00  0.00    +0.000 C 
BRANCH  20  21
ATOM     21  C   UNL     1       6.319   3.873  13.580  0.00  0.00    +0.000 C 
ATOM     22  N   UNL     1       6.208   3.468  12.497  0.00  0.00    +0.000 NA
ENDBRANCH  20  21
ENDBRANCH  19  20
ENDBRANCH  14  19
ENDBRANCH   1  14
TORSDOF 9
ENDMDL
MODEL 2
REMARK VINA RESULT:      -6.3      2.927      6.892
REMARK  Name = 
REMARK  9 active torsions:
REMARK  status: ('A' for Active; 'I' for Inactive)
REMARK    1  A    between atoms: C_2  and  C_3
REMARK    2  A    between atoms: C_3  and  C_4
REMARK    3  A    between atoms: C_4  and  N_5
REMARK    4  A    between atoms: N_5  and  C_6
REMARK    5  A    between atoms: N_5  and  C_10
REMARK    6  A    between atoms: C_6  and  C_7
REMARK    7  A    between atoms: C_7  and  C_8
REMARK    8  A    between atoms: C_13  and  C_14
REMARK    9  A    between atoms: N_16  and  N_17
REMARK                            x       y       z     vdW  Elec       q    Type
REMARK                         _______ _______ _______ _____ _____    ______ ____
ROOT
ATOM      1  C   UNL     1       3.840   4.958  17.802  0.00  0.00    +0.000 A 
ATOM      2  C   UNL     1       4.451   6.075  17.210  0.00  0.00    +0.000 A 
ATOM      3  C   UNL     1       5.318   5.971  16.114  0.00  0.00    +0.000 A 
ATOM      4  C   UNL     1       5.656   4.723  15.589  0.00  0.00    +0.000 A 
ATOM      5  C   UNL     1       5.122   3.588  16.197  0.00  0.00    +0.000 A 
ATOM      6  C   UNL     1       4.230   3.714  17.278  0.00  0.00    +0.000 A 
ENDROOT
BRANCH   4   7
ATOM      7  C   UNL     1       6.534   4.694  14.384  0.00  0.00    +0.000 C 
ATOM      8  O   UNL     1       6.290   3.925  13.453  0.00  0.00    +0.000 OA
ATOM      9  N   UNL     1       7.631   5.550  14.360  0.00  0.00    +0.000 N 
ATOM     10  H   UNL     1       7.754   6.289  15.043  0.00  0.00    +0.000 HD
BRANCH   9  11
ATOM     11  N   UNL     1       8.459   5.559  13.214  0.00  0.00    +0.000 NA
ATOM     12  H   UNL     1       9.352   5.130  13.502  0.00  0.00    +0.000 HD
ATOM     13  H   UNL     1       8.716   6.532  13.024  0.00  0.00    +0.000 HD
ENDBRANCH   9  11
ENDBRANCH   4   7
BRANCH   1  14
ATOM     14  N   UNL     1       2.889   5.078  18.812  0.00  0.00    +0.000 N 
BRANCH  14  15
ATOM     15  C   UNL     1       1.680   4.222  18.852  0.00  0.00    +0.000 C 
BRANCH  15  16
ATOM     16  C   UNL     1       0.949   4.219  20.199  0.00  0.00    +0.000 C 
BRANCH  16  18
ATOM     17  N   UNL     1       1.985   2.362  21.992  0.00  0.00    +0.000 NA
ATOM     18  C   UNL     1       1.515   3.204  21.178  0.00  0.00    +0.000 C 
ENDBRANCH  16  18
ENDBRANCH  15  16
ENDBRANCH  14  15
BRANCH  14  19
ATOM     19  C   UNL     1       2.954   6.166  19.813  0.00  0.00    +0.000 C 
BRANCH  19  20
ATOM     20  C   UNL     1       2.169   7.418  19.397  0.00  0.00    +0.000 C 
BRANCH  20  21
ATOM     21  C   UNL     1       1.548   8.074  20.551  0.00  0.00    +0.000 C 
ATOM     22  N   UNL     1       1.040   8.592  21.459  0.00  0.00    +0.000 NA
ENDBRANCH  20  21
ENDBRANCH  19  20
ENDBRANCH  14  19
ENDBRANCH   1  14
TORSDOF 9
ENDMDL
MODEL 3
REMARK VINA RESULT:      -6.3      2.959      6.487
REMARK  Name = 
REMARK  9 active torsions:
REMARK  status: ('A' for Active; 'I' for Inactive)
REMARK    1  A    between atoms: C_2  and  C_3
REMARK    2  A    between atoms: C_3  and  C_4
REMARK    3  A    between atoms: C_4  and  N_5
REMARK    4  A    between atoms: N_5  and  C_6
REMARK    5  A    between atoms: N_5  and  C_10
REMARK    6  A    between atoms: C_6  and  C_7
REMARK    7  A    between atoms: C_7  and  C_8
REMARK    8  A    between atoms: C_13  and  C_14
REMARK    9  A    between atoms: N_16  and  N_17
REMARK                            x       y       z     vdW  Elec       q    Type
REMARK                         _______ _______ _______ _____ _____    ______ ____
ROOT
ATOM      1  C   UNL     1       4.198   5.322  18.124  0.00  0.00    +0.000 A 
ATOM      2  C   UNL     1       5.213   6.176  17.662  0.00  0.00    +0.000 A 
ATOM      3  C   UNL     1       5.957   5.908  16.505  0.00  0.00    +0.000 A 
ATOM      4  C   UNL     1       5.752   4.733  15.782  0.00  0.00    +0.000 A 
ATOM      5  C   UNL     1       4.800   3.830  16.251  0.00  0.00    +0.000 A 
ATOM      6  C   UNL     1       4.041   4.129  17.398  0.00  0.00    +0.000 A 
ENDROOT
BRANCH   4   7
ATOM      7  C   UNL     1       6.537   4.545  14.527  0.00  0.00    +0.000 C 
ATOM      8  O   UNL     1       7.520   5.250  14.294  0.00  0.00    +0.000 OA
ATOM      9  N   UNL     1       6.112   3.563  13.638  0.00  0.00    +0.000 N 
ATOM     10  H   UNL     1       5.405   2.879  13.886  0.00  0.00    +0.000 HD
BRANCH   9  11
ATOM     11  N   UNL     1       6.858   3.348  12.457  0.00  0.00    +0.000 NA
ATOM     12  H   UNL     1       6.208   2.918  11.781  0.00  0.00    +0.000 HD
ATOM     13  H   UNL     1       7.530   2.599  12.646  0.00  0.00    +0.000 HD
ENDBRANCH   9  11
ENDBRANCH   4   7
BRANCH   1  14
ATOM     14  N   UNL     1       3.383   5.653  19.204  0.00  0.00    +0.000 N 
BRANCH  14  15
ATOM     15  C   UNL     1       3.035   4.663  20.251  0.00  0.00    +0.000 C 
BRANCH  15  16
ATOM     16  C   UNL     1       1.539   4.346  20.352  0.00  0.00    +0.000 C 
BRANCH  16  18
ATOM     17  N   UNL     1       0.708   2.432  18.512  0.00  0.00    +0.000 NA
ATOM     18  C   UNL     1       1.085   3.300  19.347  0.00  0.00    +0.000 C 
ENDBRANCH  16  18
ENDBRANCH  15  16
ENDBRANCH  14  15
BRANCH  14  19
ATOM     19  C   UNL     1       2.696   6.961  19.286  0.00  0.00    +0.000 C 
BRANCH  19  20
ATOM     20  C   UNL     1       2.092   7.411  17.949  0.00  0.00    +0.000 C 
BRANCH  20  21
ATOM     21  C   UNL     1       2.100   8.871  17.817  0.00  0.00    +0.000 C 
ATOM     22  N   UNL     1       2.124  10.027  17.708  0.00  0.00    +0.000 NA
ENDBRANCH  20  21
ENDBRANCH  19  20
ENDBRANCH  14  19
ENDBRANCH   1  14
TORSDOF 9
ENDMDL
MODEL 4
REMARK VINA RESULT:      -6.3      3.147      6.615
REMARK  Name = 
REMARK  9 active torsions:
REMARK  status: ('A' for Active; 'I' for Inactive)
REMARK    1  A    between atoms: C_2  and  C_3
REMARK    2  A    between atoms: C_3  and  C_4
REMARK    3  A    between atoms: C_4  and  N_5
REMARK    4  A    between atoms: N_5  and  C_6
REMARK    5  A    between atoms: N_5  and  C_10
REMARK    6  A    between atoms: C_6  and  C_7
REMARK    7  A    between atoms: C_7  and  C_8
REMARK    8  A    between atoms: C_13  and  C_14
REMARK    9  A    between atoms: N_16  and  N_17
REMARK                            x       y       z     vdW  Elec       q    Type
REMARK                         _______ _______ _______ _____ _____    ______ ____
ROOT
ATOM      1  C   UNL     1       3.814   5.650  17.629  0.00  0.00    +0.000 A 
ATOM      2  C   UNL     1       4.609   6.586  16.949  0.00  0.00    +0.000 A 
ATOM      3  C   UNL     1       5.466   6.229  15.899  0.00  0.00    +0.000 A 
ATOM      4  C   UNL     1       5.606   4.896  15.515  0.00  0.00    +0.000 A 
ATOM      5  C   UNL     1       4.884   3.931  16.215  0.00  0.00    +0.000 A 
ATOM      6  C   UNL     1       4.005   4.311  17.247  0.00  0.00    +0.000 A 
ENDROOT
BRANCH   4   7
ATOM      7  C   UNL     1       6.488   4.599  14.349  0.00  0.00    +0.000 C 
ATOM      8  O   UNL     1       7.529   5.234  14.176  0.00  0.00    +0.000 OA
ATOM      9  N   UNL     1       6.086   3.597  13.472  0.00  0.00    +0.000 N 
ATOM     10  H   UNL     1       5.320   2.968  13.685  0.00  0.00    +0.000 HD
BRANCH   9  11
ATOM     11  N   UNL     1       6.921   3.279  12.377  0.00  0.00    +0.000 NA
ATOM     12  H   UNL     1       7.307   2.342  12.572  0.00  0.00    +0.000 HD
ATOM     13  H   UNL     1       7.744   3.886  12.427  0.00  0.00    +0.000 HD
ENDBRANCH   9  11
ENDBRANCH   4   7
BRANCH   1  14
ATOM     14  N   UNL     1       2.878   6.026  18.589  0.00  0.00    +0.000 N 
BRANCH  14  15
ATOM     15  C   UNL     1       1.973   5.041  19.227  0.00  0.00    +0.000 C 
BRANCH  15  16
ATOM     16  C   UNL     1       1.932   5.114  20.757  0.00  0.00    +0.000 C 
BRANCH  16  18
ATOM     17  N   UNL     1       2.157   2.620  21.968  0.00  0.00    +0.000 NA
ATOM     18  C   UNL     1       2.055   3.751  21.419  0.00  0.00    +0.000 C 
ENDBRANCH  16  18
ENDBRANCH  15  16
ENDBRANCH  14  15
BRANCH  14  19
ATOM     19  C   UNL     1       2.628   7.449  18.913  0.00  0.00    +0.000 C 
BRANCH  19  20
ATOM     20  C   UNL     1       1.901   8.206  17.794  0.00  0.00    +0.000 C 
BRANCH  20  21
ATOM     21  C   UNL     1       1.352   9.478  18.270  0.00  0.00    +0.000 C 
ATOM     22  N   UNL     1       0.931  10.494  18.645  0.00  0.00    +0.000 NA
ENDBRANCH  20  21
ENDBRANCH  19  20
ENDBRANCH  14  19
ENDBRANCH   1  14
TORSDOF 9
ENDMDL
MODEL 5
REMARK VINA RESULT:      -6.2      2.910      6.689
REMARK  Name = 
REMARK  9 active torsions:
REMARK  status: ('A' for Active; 'I' for Inactive)
REMARK    1  A    between atoms: C_2  and  C_3
REMARK    2  A    between atoms: C_3  and  C_4
REMARK    3  A    between atoms: C_4  and  N_5
REMARK    4  A    between atoms: N_5  and  C_6
REMARK    5  A    between atoms: N_5  and  C_10
REMARK    6  A    between atoms: C_6  and  C_7
REMARK    7  A    between atoms: C_7  and  C_8
REMARK    8  A    between atoms: C_13  and  C_14
REMARK    9  A    between atoms: N_16  and  N_17
REMARK                            x       y       z     vdW  Elec       q    Type
REMARK                         _______ _______ _______ _____ _____    ______ ____
ROOT
ATOM      1  C   UNL     1       3.800   5.078  17.776  0.00  0.00    +0.000 A 
ATOM      2  C   UNL     1       4.367   6.181  17.117  0.00  0.00    +0.000 A 
ATOM      3  C   UNL     1       5.238   6.045  16.027  0.00  0.00    +0.000 A 
ATOM      4  C   UNL     1       5.626   4.783  15.578  0.00  0.00    +0.000 A 
ATOM      5  C   UNL     1       5.137   3.666  16.254  0.00  0.00    +0.000 A 
ATOM      6  C   UNL     1       4.240   3.821  17.327  0.00  0.00    +0.000 A 
ENDROOT
BRANCH   4   7
ATOM      7  C   UNL     1       6.505   4.715  14.375  0.00  0.00    +0.000 C 
ATOM      8  O   UNL     1       7.558   5.352  14.335  0.00  0.00    +0.000 OA
ATOM      9  N   UNL     1       6.085   3.923  13.310  0.00  0.00    +0.000 N 
ATOM     10  H   UNL     1       5.306   3.279  13.391  0.00  0.00    +0.000 HD
BRANCH   9  11
ATOM     11  N   UNL     1       6.917   3.821  12.172  0.00  0.00    +0.000 NA
ATOM     12  H   UNL     1       7.631   3.113  12.401  0.00  0.00    +0.000 HD
ATOM     13  H   UNL     1       7.458   4.687  12.103  0.00  0.00    +0.000 HD
ENDBRANCH   9  11
ENDBRANCH   4   7
BRANCH   1  14
ATOM     14  N   UNL     1       2.845   5.221  18.778  0.00  0.00    +0.000 N 
BRANCH  14  15
ATOM     15  C   UNL     1       2.934   6.298  19.794  0.00  0.00    +0.000 C 
BRANCH  15  16
ATOM     16  C   UNL     1       2.112   7.549  19.467  0.00  0.00    +0.000 C 
BRANCH  16  18
ATOM     17  N   UNL     1       0.945   8.699  21.714  0.00  0.00    +0.000 NA
ATOM     18  C   UNL     1       1.474   8.177  20.695  0.00  0.00    +0.000 C 
ENDBRANCH  16  18
ENDBRANCH  15  16
ENDBRANCH  14  15
BRANCH  14  19
ATOM     19  C   UNL     1       1.774   4.219  18.980  0.00  0.00    +0.000 C 
BRANCH  19  20
ATOM     20  C   UNL     1       1.192   4.234  20.399  0.00  0.00    +0.000 C 
BRANCH  20  21
ATOM     21  C   UNL     1       1.919   3.325  21.291  0.00  0.00    +0.000 C 
ATOM     22  N   UNL     1       2.509   2.607  21.988  0.00  0.00    +0.000 NA
ENDBRANCH  20  21
ENDBRANCH  19  20
ENDBRANCH  14  19
ENDBRANCH   1  14
TORSDOF 9
ENDMDL
MODEL 6
REMARK VINA RESULT:      -6.2      3.316      6.828
REMARK  Name = 
REMARK  9 active torsions:
REMARK  status: ('A' for Active; 'I' for Inactive)
REMARK    1  A    between atoms: C_2  and  C_3
REMARK    2  A    between atoms: C_3  and  C_4
REMARK    3  A    between atoms: C_4  and  N_5
REMARK    4  A    between atoms: N_5  and  C_6
REMARK    5  A    between atoms: N_5  and  C_10
REMARK    6  A    between atoms: C_6  and  C_7
REMARK    7  A    between atoms: C_7  and  C_8
REMARK    8  A    between atoms: C_13  and  C_14
REMARK    9  A    between atoms: N_16  and  N_17
REMARK                            x       y       z     vdW  Elec       q    Type
REMARK                         _______ _______ _______ _____ _____    ______ ____
ROOT
ATOM      1  C   UNL     1       3.363   6.189  19.070  0.00  0.00    +0.000 A 
ATOM      2  C   UNL     1       4.366   5.261  19.392  0.00  0.00    +0.000 A 
ATOM      3  C   UNL     1       5.440   4.980  18.536  0.00  0.00    +0.000 A 
ATOM      4  C   UNL     1       5.528   5.584  17.282  0.00  0.00    +0.000 A 
ATOM      5  C   UNL     1       4.512   6.458  16.901  0.00  0.00    +0.000 A 
ATOM      6  C   UNL     1       3.457   6.752  17.785  0.00  0.00    +0.000 A 
ENDROOT
BRANCH   4   7
ATOM      7  C   UNL     1       6.730   5.284  16.451  0.00  0.00    +0.000 C 
ATOM      8  O   UNL     1       7.693   4.691  16.939  0.00  0.00    +0.000 OA
ATOM      9  N   UNL     1       6.723   5.706  15.125  0.00  0.00    +0.000 N 
ATOM     10  H   UNL     1       5.884   6.054  14.674  0.00  0.00    +0.000 HD
BRANCH   9  11
ATOM     11  N   UNL     1       7.840   5.407  14.312  0.00  0.00    +0.000 NA
ATOM     12  H   UNL     1       7.473   4.883  13.503  0.00  0.00    +0.000 HD
ATOM     13  H   UNL     1       8.406   4.711  14.806  0.00  0.00    +0.000 HD
ENDBRANCH   9  11
ENDBRANCH   4   7
BRANCH   1  14
ATOM     14  N   UNL     1       2.367   6.552  19.973  0.00  0.00    +0.000 N 
BRANCH  14  15
ATOM     15  C   UNL     1       1.864   7.943  20.063  0.00  0.00    +0.000 C 
BRANCH  15  16
ATOM     16  C   UNL     1       0.611   8.110  20.930  0.00  0.00    +0.000 C 
BRANCH  16  18
ATOM     17  N   UNL     1       1.042   9.713  23.162  0.00  0.00    +0.000 NA
ATOM     18  C   UNL     1       0.846   8.986  22.150  0.00  0.00    +0.000 C 
ENDBRANCH  16  18
ENDBRANCH  15  16
ENDBRANCH  14  15
BRANCH  14  19
ATOM     19  C   UNL     1       1.866   5.607  20.996  0.00  0.00    +0.000 C 
BRANCH  19  20
ATOM     20  C   UNL     1       1.259   4.332  20.395  0.00  0.00    +0.000 C 
BRANCH  20  21
ATOM     21  C   UNL     1       1.451   3.176  21.274  0.00  0.00    +0.000 C 
ATOM     22  N   UNL     1       1.592   2.266  21.983  0.00  0.00    +0.000 NA
ENDBRANCH  20  21
ENDBRANCH  19  20
ENDBRANCH  14  19
ENDBRANCH   1  14
TORSDOF 9
ENDMDL
MODEL 7
REMARK VINA RESULT:      -6.2      3.014      6.485
REMARK  Name = 
REMARK  9 active torsions:
REMARK  status: ('A' for Active; 'I' for Inactive)
REMARK    1  A    between atoms: C_2  and  C_3
REMARK    2  A    between atoms: C_3  and  C_4
REMARK    3  A    between atoms: C_4  and  N_5
REMARK    4  A    between atoms: N_5  and  C_6
REMARK    5  A    between atoms: N_5  and  C_10
REMARK    6  A    between atoms: C_6  and  C_7
REMARK    7  A    between atoms: C_7  and  C_8
REMARK    8  A    between atoms: C_13  and  C_14
REMARK    9  A    between atoms: N_16  and  N_17
REMARK                            x       y       z     vdW  Elec       q    Type
REMARK                         _______ _______ _______ _____ _____    ______ ____
ROOT
ATOM      1  C   UNL     1       4.137   5.114  17.993  0.00  0.00    +0.000 A 
ATOM      2  C   UNL     1       5.040   6.108  17.583  0.00  0.00    +0.000 A 
ATOM      3  C   UNL     1       5.860   5.966  16.455  0.00  0.00    +0.000 A 
ATOM      4  C   UNL     1       5.850   4.786  15.711  0.00  0.00    +0.000 A 
ATOM      5  C   UNL     1       5.016   3.752  16.131  0.00  0.00    +0.000 A 
ATOM      6  C   UNL     1       4.178   3.923  17.248  0.00  0.00    +0.000 A 
ENDROOT
BRANCH   4   7
ATOM      7  C   UNL     1       6.703   4.731  14.488  0.00  0.00    +0.000 C 
ATOM      8  O   UNL     1       6.464   3.915  13.597  0.00  0.00    +0.000 OA
ATOM      9  N   UNL     1       7.770   5.620  14.402  0.00  0.00    +0.000 N 
ATOM     10  H   UNL     1       7.883   6.392  15.050  0.00  0.00    +0.000 HD
BRANCH   9  11
ATOM     11  N   UNL     1       8.573   5.605  13.239  0.00  0.00    +0.000 NA
ATOM     12  H   UNL     1       9.549   5.688  13.563  0.00  0.00    +0.000 HD
ATOM     13  H   UNL     1       8.415   6.485  12.741  0.00  0.00    +0.000 HD
ENDBRANCH   9  11
ENDBRANCH   4   7
BRANCH   1  14
ATOM     14  N   UNL     1       3.242   5.309  19.041  0.00  0.00    +0.000 N 
BRANCH  14  15
ATOM     15  C   UNL     1       2.615   6.627  19.298  0.00  0.00    +0.000 C 
BRANCH  15  16
ATOM     16  C   UNL     1       1.783   7.172  18.132  0.00  0.00    +0.000 C 
BRANCH  16  18
ATOM     17  N   UNL     1       2.161   9.896  17.709  0.00  0.00    +0.000 NA
ATOM     18  C   UNL     1       1.990   8.660  17.901  0.00  0.00    +0.000 C 
ENDBRANCH  16  18
ENDBRANCH  15  16
ENDBRANCH  14  15
BRANCH  14  19
ATOM     19  C   UNL     1       2.984   4.255  20.048  0.00  0.00    +0.000 C 
BRANCH  19  20
ATOM     20  C   UNL     1       1.493   4.067  20.359  0.00  0.00    +0.000 C 
BRANCH  20  21
ATOM     21  C   UNL     1       0.859   3.136  19.421  0.00  0.00    +0.000 C 
ATOM     22  N   UNL     1       0.352   2.411  18.668  0.00  0.00    +0.000 NA
ENDBRANCH  20  21
ENDBRANCH  19  20
ENDBRANCH  14  19
ENDBRANCH   1  14
TORSDOF 9
ENDMDL
MODEL 8
REMARK VINA RESULT:      -6.2      1.215      3.577
REMARK  Name = 
REMARK  9 active torsions:
REMARK  status: ('A' for Active; 'I' for Inactive)
REMARK    1  A    between atoms: C_2  and  C_3
REMARK    2  A    between atoms: C_3  and  C_4
REMARK    3  A    between atoms: C_4  and  N_5
REMARK    4  A    between atoms: N_5  and  C_6
REMARK    5  A    between atoms: N_5  and  C_10
REMARK    6  A    between atoms: C_6  and  C_7
REMARK    7  A    between atoms: C_7  and  C_8
REMARK    8  A    between atoms: C_13  and  C_14
REMARK    9  A    between atoms: N_16  and  N_17
REMARK                            x       y       z     vdW  Elec       q    Type
REMARK                         _______ _______ _______ _____ _____    ______ ____
ROOT
ATOM      1  C   UNL     1       4.725   4.430  17.232  0.00  0.00    +0.000 A 
ATOM      2  C   UNL     1       4.031   5.423  17.941  0.00  0.00    +0.000 A 
ATOM      3  C   UNL     1       3.042   5.123  18.888  0.00  0.00    +0.000 A 
ATOM      4  C   UNL     1       2.664   3.803  19.131  0.00  0.00    +0.000 A 
ATOM      5  C   UNL     1       3.285   2.796  18.395  0.00  0.00    +0.000 A 
ATOM      6  C   UNL     1       4.297   3.113  17.469  0.00  0.00    +0.000 A 
ENDROOT
BRANCH   4   7
ATOM      7  C   UNL     1       1.650   3.557  20.198  0.00  0.00    +0.000 C 
ATOM      8  O   UNL     1       0.527   4.056  20.118  0.00  0.00    +0.000 OA
ATOM      9  N   UNL     1       2.025   2.762  21.276  0.00  0.00    +0.000 N 
ATOM     10  H   UNL     1       2.885   2.224  21.278  0.00  0.00    +0.000 HD
BRANCH   9  11
ATOM     11  N   UNL     1       1.071   2.492  22.283  0.00  0.00    +0.000 NA
ATOM     12  H   UNL     1       0.148   2.532  21.823  0.00  0.00    +0.000 HD
ATOM     13  H   UNL     1       1.053   3.294  22.918  0.00  0.00    +0.000 HD
ENDBRANCH   9  11
ENDBRANCH   4   7
BRANCH   1  14
ATOM     14  N   UNL     1       5.787   4.728  16.382  0.00  0.00    +0.000 N 
BRANCH  14  15
ATOM     15  C   UNL     1       5.574   5.064  14.954  0.00  0.00    +0.000 C 
BRANCH  15  16
ATOM     16  C   UNL     1       6.681   4.574  14.014  0.00  0.00    +0.000 C 
BRANCH  16  18
ATOM     17  N   UNL     1       5.742   2.867  12.029  0.00  0.00    +0.000 NA
ATOM     18  C   UNL     1       6.168   3.641  12.929  0.00  0.00    +0.000 C 
ENDBRANCH  16  18
ENDBRANCH  15  16
ENDBRANCH  14  15
BRANCH  14  19
ATOM     19  C   UNL     1       7.194   4.578  16.815  0.00  0.00    +0.000 C 
BRANCH  19  20
ATOM     20  C   UNL     1       7.566   5.493  17.989  0.00  0.00    +0.000 C 
BRANCH  20  21
ATOM     21  C   UNL     1       7.487   6.909  17.617  0.00  0.00    +0.000 C 
ATOM     22  N   UNL     1       7.422   8.026  17.305  0.00  0.00    +0.000 NA
ENDBRANCH  20  21
ENDBRANCH  19  20
ENDBRANCH  14  19
ENDBRANCH   1  14
TORSDOF 9
ENDMDL
MODEL 9
REMARK VINA RESULT:      -6.2      2.950      6.536
REMARK  Name = 
REMARK  9 active torsions:
REMARK  status: ('A' for Active; 'I' for Inactive)
REMARK    1  A    between atoms: C_2  and  C_3
REMARK    2  A    between atoms: C_3  and  C_4
REMARK    3  A    between atoms: C_4  and  N_5
REMARK    4  A    between atoms: N_5  and  C_6
REMARK    5  A    between atoms: N_5  and  C_10
REMARK    6  A    between atoms: C_6  and  C_7
REMARK    7  A    between atoms: C_7  and  C_8
REMARK    8  A    between atoms: C_13  and  C_14
REMARK    9  A    between atoms: N_16  and  N_17
REMARK                            x       y       z     vdW  Elec       q    Type
REMARK                         _______ _______ _______ _____ _____    ______ ____
ROOT
ATOM      1  C   UNL     1       3.288   4.778  18.713  0.00  0.00    +0.000 A 
ATOM      2  C   UNL     1       4.533   5.215  19.192  0.00  0.00    +0.000 A 
ATOM      3  C   UNL     1       5.688   5.226  18.397  0.00  0.00    +0.000 A 
ATOM      4  C   UNL     1       5.657   4.744  17.089  0.00  0.00    +0.000 A 
ATOM      5  C   UNL     1       4.453   4.238  16.604  0.00  0.00    +0.000 A 
ATOM      6  C   UNL     1       3.297   4.262  17.405  0.00  0.00    +0.000 A 
ENDROOT
BRANCH   4   7
ATOM      7  C   UNL     1       6.909   4.845  16.284  0.00  0.00    +0.000 C 
ATOM      8  O   UNL     1       7.974   4.415  16.729  0.00  0.00    +0.000 OA
ATOM      9  N   UNL     1       6.826   5.447  15.032  0.00  0.00    +0.000 N 
ATOM     10  H   UNL     1       5.937   5.663  14.594  0.00  0.00    +0.000 HD
BRANCH   9  11
ATOM     11  N   UNL     1       7.994   5.527  14.240  0.00  0.00    +0.000 NA
ATOM     12  H   UNL     1       8.129   4.589  13.832  0.00  0.00    +0.000 HD
ATOM     13  H   UNL     1       8.793   5.626  14.872  0.00  0.00    +0.000 HD
ENDBRANCH   9  11
ENDBRANCH   4   7
BRANCH   1  14
ATOM     14  N   UNL     1       2.122   4.882  19.467  0.00  0.00    +0.000 N 
BRANCH  14  15
ATOM     15  C   UNL     1       1.965   5.908  20.525  0.00  0.00    +0.000 C 
BRANCH  15  16
ATOM     16  C   UNL     1       2.066   7.354  20.027  0.00  0.00    +0.000 C 
BRANCH  16  18
ATOM     17  N   UNL     1       0.789   9.170  21.702  0.00  0.00    +0.000 NA
ATOM     18  C   UNL     1       1.369   8.347  20.942  0.00  0.00    +0.000 C 
ENDBRANCH  16  18
ENDBRANCH  15  16
ENDBRANCH  14  15
BRANCH  14  19
ATOM     19  C   UNL     1       1.038   3.879  19.362  0.00  0.00    +0.000 C 
BRANCH  19  20
ATOM     20  C   UNL     1       1.460   2.481  19.833  0.00  0.00    +0.000 C 
BRANCH  20  21
ATOM     21  C   UNL     1       2.064   2.521  21.168  0.00  0.00    +0.000 C 
ATOM     22  N   UNL     1       2.531   2.562  22.231  0.00  0.00    +0.000 NA
ENDBRANCH  20  21
ENDBRANCH  19  20
ENDBRANCH  14  19
ENDBRANCH   1  14
TORSDOF 9
ENDMDL
