MODEL 1
REMARK VINA RESULT:      -8.4      0.000      0.000
REMARK  Name = 
REMARK  8 active torsions:
REMARK  status: ('A' for Active; 'I' for Inactive)
REMARK    1  A    between atoms: C_1  and  C_2
REMARK    2  A    between atoms: C_2  and  C_3
REMARK    3  A    between atoms: C_2  and  O_4
REMARK    4  A    between atoms: O_4  and  C_5
REMARK    5  A    between atoms: C_8  and  C_9
REMARK    6  A    between atoms: C_11  and  C_12
REMARK    7  A    between atoms: N_14  and  N_15
REMARK    8  A    between atoms: C_21  and  C_22
REMARK                            x       y       z     vdW  Elec       q    Type
REMARK                         _______ _______ _______ _____ _____    ______ ____
ROOT
ATOM      1  C   UNL     1       5.756   5.000  15.895  0.00  0.00    +0.000 A 
ATOM      2  C   UNL     1       5.301   4.196  14.743  0.00  0.00    +0.000 A 
ATOM      3  C   UNL     1       6.079   4.173  13.651  0.00  0.00    +0.000 A 
ATOM      4  C   UNL     1       7.319   4.978  13.627  0.00  0.00    +0.000 A 
ATOM      5  O   UNL     1       8.074   4.981  12.658  0.00  0.00    +0.000 OA
ATOM      6  N   UNL     1       7.574   5.731  14.745  0.00  0.00    +0.000 N 
ATOM      7  N   UNL     1       6.824   5.739  15.879  0.00  0.00    +0.000 NA
ATOM      8  H   UNL     1       8.419   6.294  14.755  0.00  0.00    +0.000 HD
ENDROOT
BRANCH   1  12
ATOM      9  C   UNL     1       3.399   4.727  19.502  0.00  0.00    +0.000 A 
ATOM     10  C   UNL     1       3.137   5.741  18.566  0.00  0.00    +0.000 A 
ATOM     11  C   UNL     1       3.893   5.867  17.392  0.00  0.00    +0.000 A 
ATOM     12  C   UNL     1       4.932   4.970  17.136  0.00  0.00    +0.000 A 
ATOM     13  C   UNL     1       5.175   3.941  18.048  0.00  0.00    +0.000 A 
ATOM     14  C   UNL     1       4.400   3.794  19.209  0.00  0.00    +0.000 A 
BRANCH  14  15
ATOM     15  C   UNL     1       4.667   2.624  19.985  0.00  0.00    +0.000 C 
ATOM     16  N   UNL     1       4.874   1.694  20.646  0.00  0.00    +0.000 NA
ENDBRANCH  14  15
BRANCH   9  17
ATOM     17  O   UNL     1       2.546   4.725  20.570  0.00  0.00    +0.000 OA
BRANCH  17  19
ATOM     18  C   UNL     1       1.167   3.472  19.051  0.00  0.00    +0.000 C 
ATOM     19  C   UNL     1       1.313   3.993  20.477  0.00  0.00    +0.000 C 
ATOM     20  C   UNL     1       1.377   2.817  21.448  0.00  0.00    +0.000 C 
ENDBRANCH  17  19
ENDBRANCH   9  17
ENDBRANCH   1  12
BRANCH   3  21
ATOM     21  C   UNL     1       5.635   3.312  12.523  0.00  0.00    +0.000 C 
ATOM     22  O   UNL     1       4.538   3.465  11.984  0.00  0.00    +0.000 OA
ATOM     23  N   UNL     1       6.520   2.320  12.140  0.00  0.00    +0.000 N 
ATOM     24  H   UNL     1       7.441   2.243  12.590  0.00  0.00    +0.000 HD
BRANCH  23  25
ATOM     25  N   UNL     1       6.188   1.451  11.079  0.00  0.00    +0.000 NA
ATOM     26  H   UNL     1       5.612   1.990  10.417  0.00  0.00    +0.000 HD
ATOM     27  H   UNL     1       5.556   0.735  11.445  0.00  0.00    +0.000 HD
ENDBRANCH  23  25
ENDBRANCH   3  21
TORSDOF 6
ENDMDL
MODEL 2
REMARK VINA RESULT:      -8.3      1.397      2.123
REMARK  Name = 
REMARK  8 active torsions:
REMARK  status: ('A' for Active; 'I' for Inactive)
REMARK    1  A    between atoms: C_1  and  C_2
REMARK    2  A    between atoms: C_2  and  C_3
REMARK    3  A    between atoms: C_2  and  O_4
REMARK    4  A    between atoms: O_4  and  C_5
REMARK    5  A    between atoms: C_8  and  C_9
REMARK    6  A    between atoms: C_11  and  C_12
REMARK    7  A    between atoms: N_14  and  N_15
REMARK    8  A    between atoms: C_21  and  C_22
REMARK                            x       y       z     vdW  Elec       q    Type
REMARK                         _______ _______ _______ _____ _____    ______ ____
ROOT
ATOM      1  C   UNL     1       5.755   4.926  15.925  0.00  0.00    +0.000 A 
ATOM      2  C   UNL     1       5.311   4.136  14.759  0.00  0.00    +0.000 A 
ATOM      3  C   UNL     1       6.089   4.144  13.667  0.00  0.00    +0.000 A 
ATOM      4  C   UNL     1       7.317   4.967  13.658  0.00  0.00    +0.000 A 
ATOM      5  O   UNL     1       8.073   4.999  12.690  0.00  0.00    +0.000 OA
ATOM      6  N   UNL     1       7.562   5.702  14.790  0.00  0.00    +0.000 N 
ATOM      7  N   UNL     1       6.812   5.679  15.924  0.00  0.00    +0.000 NA
ATOM      8  H   UNL     1       8.399   6.277  14.811  0.00  0.00    +0.000 HD
ENDROOT
BRANCH   1  12
ATOM      9  C   UNL     1       3.359   4.926  19.518  0.00  0.00    +0.000 A 
ATOM     10  C   UNL     1       4.251   3.871  19.267  0.00  0.00    +0.000 A 
ATOM     11  C   UNL     1       5.032   3.832  18.104  0.00  0.00    +0.000 A 
ATOM     12  C   UNL     1       4.931   4.861  17.166  0.00  0.00    +0.000 A 
ATOM     13  C   UNL     1       4.069   5.929  17.425  0.00  0.00    +0.000 A 
ATOM     14  C   UNL     1       3.309   5.985  18.604  0.00  0.00    +0.000 A 
BRANCH  14  15
ATOM     15  C   UNL     1       2.572   7.193  18.805  0.00  0.00    +0.000 C 
ATOM     16  N   UNL     1       1.978   8.180  18.931  0.00  0.00    +0.000 NA
ENDBRANCH  14  15
BRANCH   9  17
ATOM     17  O   UNL     1       2.703   4.826  20.713  0.00  0.00    +0.000 OA
BRANCH  17  19
ATOM     18  C   UNL     1       1.085   3.677  19.357  0.00  0.00    +0.000 C 
ATOM     19  C   UNL     1       1.470   4.092  20.774  0.00  0.00    +0.000 C 
ATOM     20  C   UNL     1       1.691   2.848  21.630  0.00  0.00    +0.000 C 
ENDBRANCH  17  19
ENDBRANCH   9  17
ENDBRANCH   1  12
BRANCH   3  21
ATOM     21  C   UNL     1       5.657   3.298  12.523  0.00  0.00    +0.000 C 
ATOM     22  O   UNL     1       4.565   3.458  11.975  0.00  0.00    +0.000 OA
ATOM     23  N   UNL     1       6.547   2.313  12.136  0.00  0.00    +0.000 N 
ATOM     24  H   UNL     1       7.463   2.230  12.594  0.00  0.00    +0.000 HD
BRANCH  23  25
ATOM     25  N   UNL     1       6.226   1.457  11.060  0.00  0.00    +0.000 NA
ATOM     26  H   UNL     1       6.842   0.635  11.136  0.00  0.00    +0.000 HD
ATOM     27  H   UNL     1       6.517   1.916  10.194  0.00  0.00    +0.000 HD
ENDBRANCH  23  25
ENDBRANCH   3  21
TORSDOF 6
ENDMDL
MODEL 3
REMARK VINA RESULT:      -8.2      1.376      1.584
REMARK  Name = 
REMARK  8 active torsions:
REMARK  status: ('A' for Active; 'I' for Inactive)
REMARK    1  A    between atoms: C_1  and  C_2
REMARK    2  A    between atoms: C_2  and  C_3
REMARK    3  A    between atoms: C_2  and  O_4
REMARK    4  A    between atoms: O_4  and  C_5
REMARK    5  A    between atoms: C_8  and  C_9
REMARK    6  A    between atoms: C_11  and  C_12
REMARK    7  A    between atoms: N_14  and  N_15
REMARK    8  A    between atoms: C_21  and  C_22
REMARK                            x       y       z     vdW  Elec       q    Type
REMARK                         _______ _______ _______ _____ _____    ______ ____
ROOT
ATOM      1  C   UNL     1       5.463   4.445  16.119  0.00  0.00    +0.000 A 
ATOM      2  C   UNL     1       5.524   3.860  14.765  0.00  0.00    +0.000 A 
ATOM      3  C   UNL     1       6.494   4.287  13.944  0.00  0.00    +0.000 A 
ATOM      4  C   UNL     1       7.420   5.344  14.404  0.00  0.00    +0.000 A 
ATOM      5  O   UNL     1       8.335   5.761  13.697  0.00  0.00    +0.000 OA
ATOM      6  N   UNL     1       7.195   5.841  15.661  0.00  0.00    +0.000 N 
ATOM      7  N   UNL     1       6.246   5.397  16.528  0.00  0.00    +0.000 NA
ATOM      8  H   UNL     1       7.817   6.569  16.003  0.00  0.00    +0.000 HD
ENDROOT
BRANCH   1  12
ATOM      9  C   UNL     1       2.608   2.809  18.915  0.00  0.00    +0.000 A 
ATOM     10  C   UNL     1       2.168   3.344  17.694  0.00  0.00    +0.000 A 
ATOM     11  C   UNL     1       3.067   3.897  16.770  0.00  0.00    +0.000 A 
ATOM     12  C   UNL     1       4.432   3.921  17.060  0.00  0.00    +0.000 A 
ATOM     13  C   UNL     1       4.878   3.360  18.259  0.00  0.00    +0.000 A 
ATOM     14  C   UNL     1       3.983   2.779  19.171  0.00  0.00    +0.000 A 
BRANCH  14  15
ATOM     15  C   UNL     1       4.583   2.126  20.291  0.00  0.00    +0.000 C 
ATOM     16  N   UNL     1       5.104   1.598  21.182  0.00  0.00    +0.000 NA
ENDBRANCH  14  15
BRANCH   9  17
ATOM     17  O   UNL     1       1.606   2.279  19.680  0.00  0.00    +0.000 OA
BRANCH  17  19
ATOM     18  C   UNL     1       1.536   2.627  22.058  0.00  0.00    +0.000 C 
ATOM     19  C   UNL     1       1.007   3.089  20.703  0.00  0.00    +0.000 C 
ATOM     20  C   UNL     1       1.408   4.542  20.465  0.00  0.00    +0.000 C 
ENDBRANCH  17  19
ENDBRANCH   9  17
ENDBRANCH   1  12
BRANCH   3  21
ATOM     21  C   UNL     1       6.577   3.645  12.604  0.00  0.00    +0.000 C 
ATOM     22  O   UNL     1       7.173   4.178  11.667  0.00  0.00    +0.000 OA
ATOM     23  N   UNL     1       5.925   2.432  12.478  0.00  0.00    +0.000 N 
ATOM     24  H   UNL     1       5.467   2.001  13.291  0.00  0.00    +0.000 HD
BRANCH  23  25
ATOM     25  N   UNL     1       5.945   1.747  11.245  0.00  0.00    +0.000 NA
ATOM     26  H   UNL     1       5.514   2.371  10.547  0.00  0.00    +0.000 HD
ATOM     27  H   UNL     1       5.300   0.956  11.313  0.00  0.00    +0.000 HD
ENDBRANCH  23  25
ENDBRANCH   3  21
TORSDOF 6
ENDMDL
MODEL 4
REMARK VINA RESULT:      -8.1      1.216      1.437
REMARK  Name = 
REMARK  8 active torsions:
REMARK  status: ('A' for Active; 'I' for Inactive)
REMARK    1  A    between atoms: C_1  and  C_2
REMARK    2  A    between atoms: C_2  and  C_3
REMARK    3  A    between atoms: C_2  and  O_4
REMARK    4  A    between atoms: O_4  and  C_5
REMARK    5  A    between atoms: C_8  and  C_9
REMARK    6  A    between atoms: C_11  and  C_12
REMARK    7  A    between atoms: N_14  and  N_15
REMARK    8  A    between atoms: C_21  and  C_22
REMARK                            x       y       z     vdW  Elec       q    Type
REMARK                         _______ _______ _______ _____ _____    ______ ____
ROOT
ATOM      1  C   UNL     1       6.065   4.832  15.101  0.00  0.00    +0.000 A 
ATOM      2  C   UNL     1       5.536   3.893  14.091  0.00  0.00    +0.000 A 
ATOM      3  C   UNL     1       6.191   3.797  12.925  0.00  0.00    +0.000 A 
ATOM      4  C   UNL     1       7.371   4.654  12.683  0.00  0.00    +0.000 A 
ATOM      5  O   UNL     1       8.016   4.596  11.638  0.00  0.00    +0.000 OA
ATOM      6  N   UNL     1       7.701   5.529  13.687  0.00  0.00    +0.000 N 
ATOM      7  N   UNL     1       7.079   5.616  14.893  0.00  0.00    +0.000 NA
ATOM      8  H   UNL     1       8.507   6.130  13.547  0.00  0.00    +0.000 HD
ENDROOT
BRANCH   1  12
ATOM      9  C   UNL     1       3.992   4.843  18.889  0.00  0.00    +0.000 A 
ATOM     10  C   UNL     1       4.488   6.043  18.355  0.00  0.00    +0.000 A 
ATOM     11  C   UNL     1       5.179   6.073  17.135  0.00  0.00    +0.000 A 
ATOM     12  C   UNL     1       5.384   4.888  16.425  0.00  0.00    +0.000 A 
ATOM     13  C   UNL     1       4.865   3.697  16.936  0.00  0.00    +0.000 A 
ATOM     14  C   UNL     1       4.146   3.669  18.142  0.00  0.00    +0.000 A 
BRANCH  14  15
ATOM     15  C   UNL     1       3.558   2.412  18.480  0.00  0.00    +0.000 C 
ATOM     16  N   UNL     1       3.072   1.406  18.789  0.00  0.00    +0.000 NA
ENDBRANCH  14  15
BRANCH   9  17
ATOM     17  O   UNL     1       3.313   4.998  20.065  0.00  0.00    +0.000 OA
BRANCH  17  19
ATOM     18  C   UNL     1       1.183   4.089  20.713  0.00  0.00    +0.000 C 
ATOM     19  C   UNL     1       1.899   5.248  20.026  0.00  0.00    +0.000 C 
ATOM     20  C   UNL     1       1.618   6.544  20.782  0.00  0.00    +0.000 C 
ENDBRANCH  17  19
ENDBRANCH   9  17
ENDBRANCH   1  12
BRANCH   3  21
ATOM     21  C   UNL     1       5.680   2.805  11.942  0.00  0.00    +0.000 C 
ATOM     22  O   UNL     1       4.546   2.887  11.469  0.00  0.00    +0.000 OA
ATOM     23  N   UNL     1       6.548   1.778  11.618  0.00  0.00    +0.000 N 
ATOM     24  H   UNL     1       7.499   1.759  12.007  0.00  0.00    +0.000 HD
BRANCH  23  25
ATOM     25  N   UNL     1       6.153   0.786  10.696  0.00  0.00    +0.000 NA
ATOM     26  H   UNL     1       5.123   0.795  10.667  0.00  0.00    +0.000 HD
ATOM     27  H   UNL     1       6.390  -0.126  11.092  0.00  0.00    +0.000 HD
ENDBRANCH  23  25
ENDBRANCH   3  21
TORSDOF 6
ENDMDL
MODEL 5
REMARK VINA RESULT:      -8.0      4.772      6.738
REMARK  Name = 
REMARK  8 active torsions:
REMARK  status: ('A' for Active; 'I' for Inactive)
REMARK    1  A    between atoms: C_1  and  C_2
REMARK    2  A    between atoms: C_2  and  C_3
REMARK    3  A    between atoms: C_2  and  O_4
REMARK    4  A    between atoms: O_4  and  C_5
REMARK    5  A    between atoms: C_8  and  C_9
REMARK    6  A    between atoms: C_11  and  C_12
REMARK    7  A    between atoms: N_14  and  N_15
REMARK    8  A    between atoms: C_21  and  C_22
REMARK                            x       y       z     vdW  Elec       q    Type
REMARK                         _______ _______ _______ _____ _____    ______ ____
ROOT
ATOM      1  C   UNL     1       2.790   6.169  19.419  0.00  0.00    +0.000 A 
ATOM      2  C   UNL     1       4.006   5.968  18.605  0.00  0.00    +0.000 A 
ATOM      3  C   UNL     1       4.534   4.737  18.566  0.00  0.00    +0.000 A 
ATOM      4  C   UNL     1       3.914   3.656  19.362  0.00  0.00    +0.000 A 
ATOM      5  O   UNL     1       4.350   2.507  19.351  0.00  0.00    +0.000 OA
ATOM      6  N   UNL     1       2.831   4.010  20.125  0.00  0.00    +0.000 N 
ATOM      7  N   UNL     1       2.252   5.240  20.150  0.00  0.00    +0.000 NA
ATOM      8  H   UNL     1       2.385   3.287  20.682  0.00  0.00    +0.000 HD
ENDROOT
BRANCH   1  12
ATOM      9  C   UNL     1       0.870  10.034  19.544  0.00  0.00    +0.000 A 
ATOM     10  C   UNL     1       1.254   9.480  18.313  0.00  0.00    +0.000 A 
ATOM     11  C   UNL     1       1.893   8.234  18.238  0.00  0.00    +0.000 A 
ATOM     12  C   UNL     1       2.158   7.518  19.407  0.00  0.00    +0.000 A 
ATOM     13  C   UNL     1       1.749   8.051  20.632  0.00  0.00    +0.000 A 
ATOM     14  C   UNL     1       1.081   9.284  20.706  0.00  0.00    +0.000 A 
BRANCH  14  15
ATOM     15  C   UNL     1       0.602   9.647  22.002  0.00  0.00    +0.000 C 
ATOM     16  N   UNL     1       0.248   9.954  23.063  0.00  0.00    +0.000 NA
ENDBRANCH  14  15
BRANCH   9  17
ATOM     17  O   UNL     1       0.227  11.236  19.435  0.00  0.00    +0.000 OA
BRANCH  17  19
ATOM     18  C   UNL     1      -1.742  12.122  20.493  0.00  0.00    +0.000 C 
ATOM     19  C   UNL     1      -1.207  11.255  19.357  0.00  0.00    +0.000 C 
ATOM     20  C   UNL     1      -1.610  11.863  18.016  0.00  0.00    +0.000 C 
ENDBRANCH  17  19
ENDBRANCH   9  17
ENDBRANCH   1  12
BRANCH   3  21
ATOM     21  C   UNL     1       5.725   4.539  17.697  0.00  0.00    +0.000 C 
ATOM     22  O   UNL     1       5.639   4.549  16.468  0.00  0.00    +0.000 OA
ATOM     23  N   UNL     1       6.920   4.321  18.357  0.00  0.00    +0.000 N 
ATOM     24  H   UNL     1       6.961   4.353  19.383  0.00  0.00    +0.000 HD
BRANCH  23  25
ATOM     25  N   UNL     1       8.106   4.120  17.619  0.00  0.00    +0.000 NA
ATOM     26  H   UNL     1       8.891   4.207  18.281  0.00  0.00    +0.000 HD
ATOM     27  H   UNL     1       8.219   4.912  16.982  0.00  0.00    +0.000 HD
ENDBRANCH  23  25
ENDBRANCH   3  21
TORSDOF 6
ENDMDL
MODEL 6
REMARK VINA RESULT:      -8.0      4.837      7.100
REMARK  Name = 
REMARK  8 active torsions:
REMARK  status: ('A' for Active; 'I' for Inactive)
REMARK    1  A    between atoms: C_1  and  C_2
REMARK    2  A    between atoms: C_2  and  C_3
REMARK    3  A    between atoms: C_2  and  O_4
REMARK    4  A    between atoms: O_4  and  C_5
REMARK    5  A    between atoms: C_8  and  C_9
REMARK    6  A    between atoms: C_11  and  C_12
REMARK    7  A    between atoms: N_14  and  N_15
REMARK    8  A    between atoms: C_21  and  C_22
REMARK                            x       y       z     vdW  Elec       q    Type
REMARK                         _______ _______ _______ _____ _____    ______ ____
ROOT
ATOM      1  C   UNL     1       2.689   6.229  19.426  0.00  0.00    +0.000 A 
ATOM      2  C   UNL     1       4.157   6.143  19.299  0.00  0.00    +0.000 A 
ATOM      3  C   UNL     1       4.709   4.922  19.249  0.00  0.00    +0.000 A 
ATOM      4  C   UNL     1       3.842   3.730  19.366  0.00  0.00    +0.000 A 
ATOM      5  O   UNL     1       4.294   2.588  19.312  0.00  0.00    +0.000 OA
ATOM      6  N   UNL     1       2.505   3.969  19.551  0.00  0.00    +0.000 N 
ATOM      7  N   UNL     1       1.916   5.194  19.563  0.00  0.00    +0.000 NA
ATOM      8  H   UNL     1       1.886   3.168  19.635  0.00  0.00    +0.000 HD
ENDROOT
BRANCH   1  12
ATOM      9  C   UNL     1       0.792  10.107  19.534  0.00  0.00    +0.000 A 
ATOM     10  C   UNL     1       1.192   9.554  18.307  0.00  0.00    +0.000 A 
ATOM     11  C   UNL     1       1.824   8.304  18.238  0.00  0.00    +0.000 A 
ATOM     12  C   UNL     1       2.066   7.583  19.408  0.00  0.00    +0.000 A 
ATOM     13  C   UNL     1       1.640   8.114  20.628  0.00  0.00    +0.000 A 
ATOM     14  C   UNL     1       0.980   9.351  20.696  0.00  0.00    +0.000 A 
BRANCH  14  15
ATOM     15  C   UNL     1       0.482   9.713  21.986  0.00  0.00    +0.000 C 
ATOM     16  N   UNL     1       0.097   9.978  23.047  0.00  0.00    +0.000 NA
ENDBRANCH  14  15
BRANCH   9  17
ATOM     17  O   UNL     1       0.159  11.313  19.418  0.00  0.00    +0.000 OA
BRANCH  17  19
ATOM     18  C   UNL     1      -0.056  13.518  18.483  0.00  0.00    +0.000 C 
ATOM     19  C   UNL     1       0.915  12.461  19.001  0.00  0.00    +0.000 C 
ATOM     20  C   UNL     1       1.669  13.007  20.211  0.00  0.00    +0.000 C 
ENDBRANCH  17  19
ENDBRANCH   9  17
ENDBRANCH   1  12
BRANCH   3  21
ATOM     21  C   UNL     1       6.183   4.853  19.063  0.00  0.00    +0.000 C 
ATOM     22  O   UNL     1       6.962   5.385  19.855  0.00  0.00    +0.000 OA
ATOM     23  N   UNL     1       6.615   4.177  17.936  0.00  0.00    +0.000 N 
ATOM     24  H   UNL     1       5.938   3.716  17.315  0.00  0.00    +0.000 HD
BRANCH  23  25
ATOM     25  N   UNL     1       7.996   4.059  17.671  0.00  0.00    +0.000 NA
ATOM     26  H   UNL     1       8.162   4.486  16.749  0.00  0.00    +0.000 HD
ATOM     27  H   UNL     1       8.207   3.067  17.536  0.00  0.00    +0.000 HD
ENDBRANCH  23  25
ENDBRANCH   3  21
TORSDOF 6
ENDMDL
MODEL 7
REMARK VINA RESULT:      -8.0      1.421      1.835
REMARK  Name = 
REMARK  8 active torsions:
REMARK  status: ('A' for Active; 'I' for Inactive)
REMARK    1  A    between atoms: C_1  and  C_2
REMARK    2  A    between atoms: C_2  and  C_3
REMARK    3  A    between atoms: C_2  and  O_4
REMARK    4  A    between atoms: O_4  and  C_5
REMARK    5  A    between atoms: C_8  and  C_9
REMARK    6  A    between atoms: C_11  and  C_12
REMARK    7  A    between atoms: N_14  and  N_15
REMARK    8  A    between atoms: C_21  and  C_22
REMARK                            x       y       z     vdW  Elec       q    Type
REMARK                         _______ _______ _______ _____ _____    ______ ____
ROOT
ATOM      1  C   UNL     1       6.033   4.863  15.694  0.00  0.00    +0.000 A 
ATOM      2  C   UNL     1       5.561   4.042  14.562  0.00  0.00    +0.000 A 
ATOM      3  C   UNL     1       6.282   4.065  13.431  0.00  0.00    +0.000 A 
ATOM      4  C   UNL     1       7.475   4.935  13.350  0.00  0.00    +0.000 A 
ATOM      5  O   UNL     1       8.178   4.983  12.343  0.00  0.00    +0.000 OA
ATOM      6  N   UNL     1       7.748   5.694  14.459  0.00  0.00    +0.000 N 
ATOM      7  N   UNL     1       7.059   5.657  15.630  0.00  0.00    +0.000 NA
ATOM      8  H   UNL     1       8.563   6.300  14.430  0.00  0.00    +0.000 HD
ENDROOT
BRANCH   1  12
ATOM      9  C   UNL     1       3.683   4.655  19.311  0.00  0.00    +0.000 A 
ATOM     10  C   UNL     1       5.012   5.105  19.361  0.00  0.00    +0.000 A 
ATOM     11  C   UNL     1       5.807   5.170  18.208  0.00  0.00    +0.000 A 
ATOM     12  C   UNL     1       5.277   4.783  16.976  0.00  0.00    +0.000 A 
ATOM     13  C   UNL     1       3.946   4.366  16.916  0.00  0.00    +0.000 A 
ATOM     14  C   UNL     1       3.138   4.329  18.064  0.00  0.00    +0.000 A 
BRANCH  14  15
ATOM     15  C   UNL     1       1.763   4.011  17.840  0.00  0.00    +0.000 C 
ATOM     16  N   UNL     1       0.654   3.719  17.670  0.00  0.00    +0.000 NA
ENDBRANCH  14  15
BRANCH   9  17
ATOM     17  O   UNL     1       3.040   4.689  20.517  0.00  0.00    +0.000 OA
BRANCH  17  19
ATOM     18  C   UNL     1       1.388   3.096  21.232  0.00  0.00    +0.000 C 
ATOM     19  C   UNL     1       2.868   3.466  21.251  0.00  0.00    +0.000 C 
ATOM     20  C   UNL     1       3.679   2.372  20.561  0.00  0.00    +0.000 C 
ENDBRANCH  17  19
ENDBRANCH   9  17
ENDBRANCH   1  12
BRANCH   3  21
ATOM     21  C   UNL     1       5.825   3.188  12.320  0.00  0.00    +0.000 C 
ATOM     22  O   UNL     1       4.729   3.344  11.780  0.00  0.00    +0.000 OA
ATOM     23  N   UNL     1       6.698   2.179  11.955  0.00  0.00    +0.000 N 
ATOM     24  H   UNL     1       7.618   2.099  12.405  0.00  0.00    +0.000 HD
BRANCH  23  25
ATOM     25  N   UNL     1       6.353   1.293  10.912  0.00  0.00    +0.000 NA
ATOM     26  H   UNL     1       6.489   0.338  11.272  0.00  0.00    +0.000 HD
ATOM     27  H   UNL     1       7.052   1.390  10.172  0.00  0.00    +0.000 HD
ENDBRANCH  23  25
ENDBRANCH   3  21
TORSDOF 6
ENDMDL
MODEL 8
REMARK VINA RESULT:      -7.9      4.839      6.787
REMARK  Name = 
REMARK  8 active torsions:
REMARK  status: ('A' for Active; 'I' for Inactive)
REMARK    1  A    between atoms: C_1  and  C_2
REMARK    2  A    between atoms: C_2  and  C_3
REMARK    3  A    between atoms: C_2  and  O_4
REMARK    4  A    between atoms: O_4  and  C_5
REMARK    5  A    between atoms: C_8  and  C_9
REMARK    6  A    between atoms: C_11  and  C_12
REMARK    7  A    between atoms: N_14  and  N_15
REMARK    8  A    between atoms: C_21  and  C_22
REMARK                            x       y       z     vdW  Elec       q    Type
REMARK                         _______ _______ _______ _____ _____    ______ ____
ROOT
ATOM      1  C   UNL     1       2.763   6.338  18.767  0.00  0.00    +0.000 A 
ATOM      2  C   UNL     1       4.220   6.169  18.941  0.00  0.00    +0.000 A 
ATOM      3  C   UNL     1       4.742   4.959  18.694  0.00  0.00    +0.000 A 
ATOM      4  C   UNL     1       3.845   3.847  18.309  0.00  0.00    +0.000 A 
ATOM      5  O   UNL     1       4.273   2.723  18.058  0.00  0.00    +0.000 OA
ATOM      6  N   UNL     1       2.507   4.139  18.257  0.00  0.00    +0.000 N 
ATOM      7  N   UNL     1       1.958   5.366  18.462  0.00  0.00    +0.000 NA
ATOM      8  H   UNL     1       1.868   3.394  17.995  0.00  0.00    +0.000 HD
ENDROOT
BRANCH   1  12
ATOM      9  C   UNL     1       0.992  10.209  19.485  0.00  0.00    +0.000 A 
ATOM     10  C   UNL     1       1.524   9.903  18.223  0.00  0.00    +0.000 A 
ATOM     11  C   UNL     1       2.120   8.661  17.960  0.00  0.00    +0.000 A 
ATOM     12  C   UNL     1       2.190   7.699  18.969  0.00  0.00    +0.000 A 
ATOM     13  C   UNL     1       1.633   7.987  20.217  0.00  0.00    +0.000 A 
ATOM     14  C   UNL     1       1.009   9.218  20.472  0.00  0.00    +0.000 A 
BRANCH  14  15
ATOM     15  C   UNL     1       0.365   9.330  21.743  0.00  0.00    +0.000 C 
ATOM     16  N   UNL     1      -0.190   9.417  22.757  0.00  0.00    +0.000 NA
ENDBRANCH  14  15
BRANCH   9  17
ATOM     17  O   UNL     1       0.416  11.447  19.559  0.00  0.00    +0.000 OA
BRANCH  17  19
ATOM     18  C   UNL     1      -1.907  11.322  18.951  0.00  0.00    +0.000 C 
ATOM     19  C   UNL     1      -0.528  11.838  18.549  0.00  0.00    +0.000 C 
ATOM     20  C   UNL     1      -0.554  13.363  18.477  0.00  0.00    +0.000 C 
ENDBRANCH  17  19
ENDBRANCH   9  17
ENDBRANCH   1  12
BRANCH   3  21
ATOM     21  C   UNL     1       6.218   4.820  18.818  0.00  0.00    +0.000 C 
ATOM     22  O   UNL     1       6.824   5.212  19.816  0.00  0.00    +0.000 OA
ATOM     23  N   UNL     1       6.860   4.249  17.734  0.00  0.00    +0.000 N 
ATOM     24  H   UNL     1       6.318   3.902  16.933  0.00  0.00    +0.000 HD
BRANCH  23  25
ATOM     25  N   UNL     1       8.260   4.077  17.756  0.00  0.00    +0.000 NA
ATOM     26  H   UNL     1       8.679   5.004  17.599  0.00  0.00    +0.000 HD
ATOM     27  H   UNL     1       8.524   3.533  16.931  0.00  0.00    +0.000 HD
ENDBRANCH  23  25
ENDBRANCH   3  21
TORSDOF 6
ENDMDL
MODEL 9
REMARK VINA RESULT:      -7.8      4.774      6.891
REMARK  Name = 
REMARK  8 active torsions:
REMARK  status: ('A' for Active; 'I' for Inactive)
REMARK    1  A    between atoms: C_1  and  C_2
REMARK    2  A    between atoms: C_2  and  C_3
REMARK    3  A    between atoms: C_2  and  O_4
REMARK    4  A    between atoms: O_4  and  C_5
REMARK    5  A    between atoms: C_8  and  C_9
REMARK    6  A    between atoms: C_11  and  C_12
REMARK    7  A    between atoms: N_14  and  N_15
REMARK    8  A    between atoms: C_21  and  C_22
REMARK                            x       y       z     vdW  Elec       q    Type
REMARK                         _______ _______ _______ _____ _____    ______ ____
ROOT
ATOM      1  C   UNL     1       2.837   6.246  19.329  0.00  0.00    +0.000 A 
ATOM      2  C   UNL     1       4.033   5.963  18.511  0.00  0.00    +0.000 A 
ATOM      3  C   UNL     1       4.568   4.736  18.591  0.00  0.00    +0.000 A 
ATOM      4  C   UNL     1       3.975   3.745  19.515  0.00  0.00    +0.000 A 
ATOM      5  O   UNL     1       4.416   2.603  19.616  0.00  0.00    +0.000 OA
ATOM      6  N   UNL     1       2.909   4.176  20.263  0.00  0.00    +0.000 N 
ATOM      7  N   UNL     1       2.323   5.400  20.170  0.00  0.00    +0.000 NA
ATOM      8  H   UNL     1       2.482   3.516  20.906  0.00  0.00    +0.000 HD
ENDROOT
BRANCH   1  12
ATOM      9  C   UNL     1       0.886  10.090  19.080  0.00  0.00    +0.000 A 
ATOM     10  C   UNL     1       1.328   9.448  17.912  0.00  0.00    +0.000 A 
ATOM     11  C   UNL     1       1.978   8.207  17.958  0.00  0.00    +0.000 A 
ATOM     12  C   UNL     1       2.196   7.584  19.188  0.00  0.00    +0.000 A 
ATOM     13  C   UNL     1       1.731   8.203  20.350  0.00  0.00    +0.000 A 
ATOM     14  C   UNL     1       1.052   9.431  20.303  0.00  0.00    +0.000 A 
BRANCH  14  15
ATOM     15  C   UNL     1       0.514   9.886  21.546  0.00  0.00    +0.000 C 
ATOM     16  N   UNL     1       0.073  10.218  22.565  0.00  0.00    +0.000 NA
ENDBRANCH  14  15
BRANCH   9  17
ATOM     17  O   UNL     1       0.240  11.273  18.852  0.00  0.00    +0.000 OA
BRANCH  17  19
ATOM     18  C   UNL     1       2.130  12.695  18.417  0.00  0.00    +0.000 C 
ATOM     19  C   UNL     1       0.870  12.500  19.254  0.00  0.00    +0.000 C 
ATOM     20  C   UNL     1      -0.101  13.649  18.993  0.00  0.00    +0.000 C 
ENDBRANCH  17  19
ENDBRANCH   9  17
ENDBRANCH   1  12
BRANCH   3  21
ATOM     21  C   UNL     1       5.737   4.449  17.718  0.00  0.00    +0.000 C 
ATOM     22  O   UNL     1       5.615   4.290  16.503  0.00  0.00    +0.000 OA
ATOM     23  N   UNL     1       6.957   4.351  18.362  0.00  0.00    +0.000 N 
ATOM     24  H   UNL     1       7.027   4.523  19.373  0.00  0.00    +0.000 HD
BRANCH  23  25
ATOM     25  N   UNL     1       8.126   4.079  17.619  0.00  0.00    +0.000 NA
ATOM     26  H   UNL     1       8.297   3.066  17.688  0.00  0.00    +0.000 HD
ATOM     27  H   UNL     1       8.916   4.506  18.107  0.00  0.00    +0.000 HD
ENDBRANCH  23  25
ENDBRANCH   3  21
TORSDOF 6
ENDMDL
