MODEL 1
REMARK VINA RESULT:      -8.1      0.000      0.000
REMARK  Name = 
REMARK  4 active torsions:
REMARK  status: ('A' for Active; 'I' for Inactive)
REMARK    1  A    between atoms: C_10  and  C_11
REMARK    2  A    between atoms: C_13  and  N_14
REMARK    3  A    between atoms: N_14  and  C_15
REMARK    4  A    between atoms: C_15  and  C_16
REMARK                            x       y       z     vdW  Elec       q    Type
REMARK                         _______ _______ _______ _____ _____    ______ ____
ROOT
ATOM      1  C   UNL     1       3.077   5.074  18.472  0.00  0.00    +0.000 A 
ATOM      2  C   UNL     1       4.409   5.121  18.107  0.00  0.00    +0.000 A 
ATOM      3  C   UNL     1       4.909   4.071  17.369  0.00  0.00    +0.000 A 
ATOM      4  N   UNL     1       4.128   3.044  17.007  0.00  0.00    +0.000 NA
ATOM      5  C   UNL     1       2.832   3.118  17.352  0.00  0.00    +0.000 A 
ATOM      6  N   UNL     1       2.250   4.086  18.069  0.00  0.00    +0.000 NA
ENDROOT
BRANCH   1  16
ATOM      7  N   UNL     1       2.078   4.974  21.426  0.00  0.00    +0.000 N 
ATOM      8  C   UNL     1       2.035   6.066  20.647  0.00  0.00    +0.000 A 
ATOM      9  N   UNL     1       1.538   7.224  21.062  0.00  0.00    +0.000 NA
ATOM     10  N   UNL     1       1.635   8.040  19.990  0.00  0.00    +0.000 N 
ATOM     11  C   UNL     1       1.197   9.357  19.888  0.00  0.00    +0.000 A 
ATOM     12  C   UNL     1       1.352  10.041  18.745  0.00  0.00    +0.000 A 
ATOM     13  C   UNL     1       2.026   9.293  17.652  0.00  0.00    +0.000 A 
ATOM     14  N   UNL     1       2.445   8.065  17.709  0.00  0.00    +0.000 NA
ATOM     15  C   UNL     1       2.234   7.406  18.897  0.00  0.00    +0.000 A 
ATOM     16  C   UNL     1       2.490   6.108  19.307  0.00  0.00    +0.000 A 
ATOM     17  H   UNL     1       1.944   5.105  22.421  0.00  0.00    +0.000 HD
ATOM     18  H   UNL     1       2.737   4.238  21.181  0.00  0.00    +0.000 HD
ENDBRANCH   1  16
BRANCH   3  19
ATOM     19  N   UNL     1       6.265   4.117  17.027  0.00  0.00    +0.000 N 
ATOM     20  H   UNL     1       6.845   4.000  17.851  0.00  0.00    +0.000 HD
BRANCH  19  21
ATOM     21  C   UNL     1       6.736   5.214  16.187  0.00  0.00    +0.000 C 
BRANCH  21  22
ATOM     22  C   UNL     1       6.839   4.877  14.714  0.00  0.00    +0.000 A 
ATOM     23  C   UNL     1       5.995   3.916  14.160  0.00  0.00    +0.000 A 
ATOM     24  C   UNL     1       6.130   3.586  12.816  0.00  0.00    +0.000 A 
ATOM     25  C   UNL     1       7.112   4.212  12.061  0.00  0.00    +0.000 A 
ATOM     26  C   UNL     1       7.912   5.155  12.681  0.00  0.00    +0.000 A 
ATOM     27  N   UNL     1       7.795   5.510  13.981  0.00  0.00    +0.000 NA
ENDBRANCH  21  22
ENDBRANCH  19  21
ENDBRANCH   3  19
TORSDOF 4
ENDMDL
MODEL 2
REMARK VINA RESULT:      -8.1      1.984      3.474
REMARK  Name = 
REMARK  4 active torsions:
REMARK  status: ('A' for Active; 'I' for Inactive)
REMARK    1  A    between atoms: C_10  and  C_11
REMARK    2  A    between atoms: C_13  and  N_14
REMARK    3  A    between atoms: N_14  and  C_15
REMARK    4  A    between atoms: C_15  and  C_16
REMARK                            x       y       z     vdW  Elec       q    Type
REMARK                         _______ _______ _______ _____ _____    ______ ____
ROOT
ATOM      1  C   UNL     1       5.566   4.296  18.042  0.00  0.00    +0.000 A 
ATOM      2  C   UNL     1       5.242   4.489  16.713  0.00  0.00    +0.000 A 
ATOM      3  C   UNL     1       6.263   4.798  15.841  0.00  0.00    +0.000 A 
ATOM      4  N   UNL     1       7.530   4.897  16.265  0.00  0.00    +0.000 NA
ATOM      5  C   UNL     1       7.757   4.629  17.561  0.00  0.00    +0.000 A 
ATOM      6  N   UNL     1       6.841   4.326  18.488  0.00  0.00    +0.000 NA
ENDROOT
BRANCH   1  16
ATOM      7  N   UNL     1       4.897   1.698  19.635  0.00  0.00    +0.000 N 
ATOM      8  C   UNL     1       4.233   2.858  19.760  0.00  0.00    +0.000 A 
ATOM      9  N   UNL     1       3.198   3.007  20.577  0.00  0.00    +0.000 NA
ATOM     10  N   UNL     1       2.791   4.280  20.382  0.00  0.00    +0.000 N 
ATOM     11  C   UNL     1       1.699   4.918  20.964  0.00  0.00    +0.000 A 
ATOM     12  C   UNL     1       1.411   6.191  20.661  0.00  0.00    +0.000 A 
ATOM     13  C   UNL     1       2.344   6.835  19.699  0.00  0.00    +0.000 A 
ATOM     14  N   UNL     1       3.370   6.273  19.134  0.00  0.00    +0.000 NA
ATOM     15  C   UNL     1       3.599   4.957  19.463  0.00  0.00    +0.000 A 
ATOM     16  C   UNL     1       4.540   4.035  19.036  0.00  0.00    +0.000 A 
ATOM     17  H   UNL     1       4.749   0.997  20.350  0.00  0.00    +0.000 HD
ATOM     18  H   UNL     1       5.841   1.727  19.259  0.00  0.00    +0.000 HD
ENDBRANCH   1  16
BRANCH   3  19
ATOM     19  N   UNL     1       5.919   5.015  14.503  0.00  0.00    +0.000 N 
ATOM     20  H   UNL     1       5.038   4.562  14.282  0.00  0.00    +0.000 HD
BRANCH  19  21
ATOM     21  C   UNL     1       6.924   4.766  13.474  0.00  0.00    +0.000 C 
BRANCH  21  22
ATOM     22  C   UNL     1       6.581   3.644  12.518  0.00  0.00    +0.000 A 
ATOM     23  C   UNL     1       5.247   3.300  12.299  0.00  0.00    +0.000 A 
ATOM     24  C   UNL     1       4.949   2.239  11.452  0.00  0.00    +0.000 A 
ATOM     25  C   UNL     1       5.986   1.536  10.856  0.00  0.00    +0.000 A 
ATOM     26  C   UNL     1       7.285   1.936  11.122  0.00  0.00    +0.000 A 
ATOM     27  N   UNL     1       7.607   2.974  11.927  0.00  0.00    +0.000 NA
ENDBRANCH  21  22
ENDBRANCH  19  21
ENDBRANCH   3  19
TORSDOF 4
ENDMDL
MODEL 3
REMARK VINA RESULT:      -8.1      2.582      7.838
REMARK  Name = 
REMARK  4 active torsions:
REMARK  status: ('A' for Active; 'I' for Inactive)
REMARK    1  A    between atoms: C_10  and  C_11
REMARK    2  A    between atoms: C_13  and  N_14
REMARK    3  A    between atoms: N_14  and  C_15
REMARK    4  A    between atoms: C_15  and  C_16
REMARK                            x       y       z     vdW  Elec       q    Type
REMARK                         _______ _______ _______ _____ _____    ______ ____
ROOT
ATOM      1  C   UNL     1       2.542   6.905  18.623  0.00  0.00    +0.000 A 
ATOM      2  C   UNL     1       2.174   8.051  17.944  0.00  0.00    +0.000 A 
ATOM      3  C   UNL     1       1.531   9.040  18.655  0.00  0.00    +0.000 A 
ATOM      4  N   UNL     1       1.279   8.900  19.964  0.00  0.00    +0.000 NA
ATOM      5  C   UNL     1       1.732   7.781  20.551  0.00  0.00    +0.000 A 
ATOM      6  N   UNL     1       2.360   6.762  19.953  0.00  0.00    +0.000 NA
ENDROOT
BRANCH   1  16
ATOM      7  N   UNL     1       1.454   4.050  17.989  0.00  0.00    +0.000 N 
ATOM      8  C   UNL     1       2.673   4.493  17.643  0.00  0.00    +0.000 A 
ATOM      9  N   UNL     1       3.554   3.736  17.001  0.00  0.00    +0.000 NA
ATOM     10  N   UNL     1       4.649   4.517  16.881  0.00  0.00    +0.000 N 
ATOM     11  C   UNL     1       5.878   4.170  16.327  0.00  0.00    +0.000 A 
ATOM     12  C   UNL     1       6.884   5.056  16.290  0.00  0.00    +0.000 A 
ATOM     13  C   UNL     1       6.565   6.394  16.855  0.00  0.00    +0.000 A 
ATOM     14  N   UNL     1       5.433   6.753  17.380  0.00  0.00    +0.000 NA
ATOM     15  C   UNL     1       4.448   5.794  17.416  0.00  0.00    +0.000 A 
ATOM     16  C   UNL     1       3.163   5.788  17.932  0.00  0.00    +0.000 A 
ATOM     17  H   UNL     1       1.121   3.204  17.545  0.00  0.00    +0.000 HD
ATOM     18  H   UNL     1       0.732   4.742  18.180  0.00  0.00    +0.000 HD
ENDBRANCH   1  16
BRANCH   3  19
ATOM     19  N   UNL     1       1.141  10.185  17.952  0.00  0.00    +0.000 N 
ATOM     20  H   UNL     1       1.951  10.658  17.563  0.00  0.00    +0.000 HD
BRANCH  19  21
ATOM     21  C   UNL     1       0.227  11.123  18.596  0.00  0.00    +0.000 C 
BRANCH  21  22
ATOM     22  C   UNL     1      -1.230  10.927  18.237  0.00  0.00    +0.000 A 
ATOM     23  C   UNL     1      -1.592   9.959  17.300  0.00  0.00    +0.000 A 
ATOM     24  C   UNL     1      -2.929   9.819  16.948  0.00  0.00    +0.000 A 
ATOM     25  C   UNL     1      -3.872  10.657  17.527  0.00  0.00    +0.000 A 
ATOM     26  C   UNL     1      -3.437  11.595  18.447  0.00  0.00    +0.000 A 
ATOM     27  N   UNL     1      -2.146  11.743  18.824  0.00  0.00    +0.000 NA
ENDBRANCH  21  22
ENDBRANCH  19  21
ENDBRANCH   3  19
TORSDOF 4
ENDMDL
MODEL 4
REMARK VINA RESULT:      -7.9      4.590      7.644
REMARK  Name = 
REMARK  4 active torsions:
REMARK  status: ('A' for Active; 'I' for Inactive)
REMARK    1  A    between atoms: C_10  and  C_11
REMARK    2  A    between atoms: C_13  and  N_14
REMARK    3  A    between atoms: N_14  and  C_15
REMARK    4  A    between atoms: C_15  and  C_16
REMARK                            x       y       z     vdW  Elec       q    Type
REMARK                         _______ _______ _______ _____ _____    ______ ____
ROOT
ATOM      1  C   UNL     1       7.187   5.623  17.106  0.00  0.00    +0.000 A 
ATOM      2  C   UNL     1       7.375   6.981  16.935  0.00  0.00    +0.000 A 
ATOM      3  C   UNL     1       7.935   7.687  17.977  0.00  0.00    +0.000 A 
ATOM      4  N   UNL     1       8.295   7.076  19.114  0.00  0.00    +0.000 NA
ATOM      5  C   UNL     1       8.133   5.744  19.163  0.00  0.00    +0.000 A 
ATOM      6  N   UNL     1       7.597   4.968  18.213  0.00  0.00    +0.000 NA
ENDROOT
BRANCH   1  16
ATOM      7  N   UNL     1       4.857   3.558  17.314  0.00  0.00    +0.000 N 
ATOM      8  C   UNL     1       5.485   3.882  16.173  0.00  0.00    +0.000 A 
ATOM      9  N   UNL     1       5.178   3.331  15.006  0.00  0.00    +0.000 NA
ATOM     10  N   UNL     1       6.049   3.880  14.131  0.00  0.00    +0.000 N 
ATOM     11  C   UNL     1       6.181   3.593  12.776  0.00  0.00    +0.000 A 
ATOM     12  C   UNL     1       7.108   4.216  12.033  0.00  0.00    +0.000 A 
ATOM     13  C   UNL     1       7.931   5.215  12.764  0.00  0.00    +0.000 A 
ATOM     14  N   UNL     1       7.838   5.508  14.025  0.00  0.00    +0.000 NA
ATOM     15  C   UNL     1       6.889   4.817  14.742  0.00  0.00    +0.000 A 
ATOM     16  C   UNL     1       6.541   4.820  16.082  0.00  0.00    +0.000 A 
ATOM     17  H   UNL     1       3.980   3.058  17.239  0.00  0.00    +0.000 HD
ATOM     18  H   UNL     1       4.904   4.217  18.089  0.00  0.00    +0.000 HD
ENDBRANCH   1  16
BRANCH   3  19
ATOM     19  N   UNL     1       8.099   9.065  17.803  0.00  0.00    +0.000 N 
ATOM     20  H   UNL     1       8.380   9.274  16.850  0.00  0.00    +0.000 HD
BRANCH  19  21
ATOM     21  C   UNL     1       8.901   9.802  18.775  0.00  0.00    +0.000 C 
BRANCH  21  22
ATOM     22  C   UNL     1       9.450  11.119  18.267  0.00  0.00    +0.000 A 
ATOM     23  C   UNL     1      10.796  11.223  17.917  0.00  0.00    +0.000 A 
ATOM     24  C   UNL     1      11.295  12.448  17.493  0.00  0.00    +0.000 A 
ATOM     25  C   UNL     1      10.446  13.545  17.443  0.00  0.00    +0.000 A 
ATOM     26  C   UNL     1       9.123  13.364  17.808  0.00  0.00    +0.000 A 
ATOM     27  N   UNL     1       8.603  12.181  18.207  0.00  0.00    +0.000 NA
ENDBRANCH  21  22
ENDBRANCH  19  21
ENDBRANCH   3  19
TORSDOF 4
ENDMDL
MODEL 5
REMARK VINA RESULT:      -7.9      1.872      7.543
REMARK  Name = 
REMARK  4 active torsions:
REMARK  status: ('A' for Active; 'I' for Inactive)
REMARK    1  A    between atoms: C_10  and  C_11
REMARK    2  A    between atoms: C_13  and  N_14
REMARK    3  A    between atoms: N_14  and  C_15
REMARK    4  A    between atoms: C_15  and  C_16
REMARK                            x       y       z     vdW  Elec       q    Type
REMARK                         _______ _______ _______ _____ _____    ______ ____
ROOT
ATOM      1  C   UNL     1       4.726   4.465  19.201  0.00  0.00    +0.000 A 
ATOM      2  C   UNL     1       3.839   5.475  19.522  0.00  0.00    +0.000 A 
ATOM      3  C   UNL     1       2.761   5.153  20.317  0.00  0.00    +0.000 A 
ATOM      4  N   UNL     1       2.583   3.906  20.772  0.00  0.00    +0.000 NA
ATOM      5  C   UNL     1       3.532   3.007  20.462  0.00  0.00    +0.000 A 
ATOM      6  N   UNL     1       4.609   3.215  19.696  0.00  0.00    +0.000 NA
ENDROOT
BRANCH   1  16
ATOM      7  N   UNL     1       7.622   5.453  19.812  0.00  0.00    +0.000 N 
ATOM      8  C   UNL     1       7.163   5.155  18.586  0.00  0.00    +0.000 A 
ATOM      9  N   UNL     1       7.910   5.271  17.494  0.00  0.00    +0.000 NA
ATOM     10  N   UNL     1       7.086   4.925  16.481  0.00  0.00    +0.000 N 
ATOM     11  C   UNL     1       7.372   4.934  15.119  0.00  0.00    +0.000 A 
ATOM     12  C   UNL     1       6.441   4.572  14.225  0.00  0.00    +0.000 A 
ATOM     13  C   UNL     1       5.137   4.160  14.806  0.00  0.00    +0.000 A 
ATOM     14  N   UNL     1       4.833   4.140  16.069  0.00  0.00    +0.000 NA
ATOM     15  C   UNL     1       5.819   4.548  16.937  0.00  0.00    +0.000 A 
ATOM     16  C   UNL     1       5.850   4.707  18.312  0.00  0.00    +0.000 A 
ATOM     17  H   UNL     1       8.623   5.543  19.927  0.00  0.00    +0.000 HD
ATOM     18  H   UNL     1       7.137   5.053  20.612  0.00  0.00    +0.000 HD
ENDBRANCH   1  16
BRANCH   3  19
ATOM     19  N   UNL     1       1.856   6.178  20.615  0.00  0.00    +0.000 N 
ATOM     20  H   UNL     1       0.900   5.848  20.521  0.00  0.00    +0.000 HD
BRANCH  19  21
ATOM     21  C   UNL     1       2.042   7.480  19.982  0.00  0.00    +0.000 C 
BRANCH  21  22
ATOM     22  C   UNL     1       1.237   8.601  20.605  0.00  0.00    +0.000 A 
ATOM     23  C   UNL     1       1.013   8.615  21.981  0.00  0.00    +0.000 A 
ATOM     24  C   UNL     1       0.238   9.628  22.534  0.00  0.00    +0.000 A 
ATOM     25  C   UNL     1      -0.309  10.593  21.700  0.00  0.00    +0.000 A 
ATOM     26  C   UNL     1      -0.043  10.512  20.344  0.00  0.00    +0.000 A 
ATOM     27  N   UNL     1       0.722   9.551  19.779  0.00  0.00    +0.000 NA
ENDBRANCH  21  22
ENDBRANCH  19  21
ENDBRANCH   3  19
TORSDOF 4
ENDMDL
MODEL 6
REMARK VINA RESULT:      -7.9      2.044      3.778
REMARK  Name = 
REMARK  4 active torsions:
REMARK  status: ('A' for Active; 'I' for Inactive)
REMARK    1  A    between atoms: C_10  and  C_11
REMARK    2  A    between atoms: C_13  and  N_14
REMARK    3  A    between atoms: N_14  and  C_15
REMARK    4  A    between atoms: C_15  and  C_16
REMARK                            x       y       z     vdW  Elec       q    Type
REMARK                         _______ _______ _______ _____ _____    ______ ____
ROOT
ATOM      1  C   UNL     1       5.363   4.178  17.799  0.00  0.00    +0.000 A 
ATOM      2  C   UNL     1       5.329   4.528  16.463  0.00  0.00    +0.000 A 
ATOM      3  C   UNL     1       6.481   5.038  15.905  0.00  0.00    +0.000 A 
ATOM      4  N   UNL     1       7.598   5.181  16.631  0.00  0.00    +0.000 NA
ATOM      5  C   UNL     1       7.553   4.754  17.903  0.00  0.00    +0.000 A 
ATOM      6  N   UNL     1       6.490   4.250  18.539  0.00  0.00    +0.000 NA
ENDROOT
BRANCH   1  16
ATOM      7  N   UNL     1       4.147   1.309  17.980  0.00  0.00    +0.000 N 
ATOM      8  C   UNL     1       3.619   2.397  18.563  0.00  0.00    +0.000 A 
ATOM      9  N   UNL     1       2.497   2.356  19.271  0.00  0.00    +0.000 NA
ATOM     10  N   UNL     1       2.283   3.637  19.643  0.00  0.00    +0.000 N 
ATOM     11  C   UNL     1       1.200   4.139  20.360  0.00  0.00    +0.000 A 
ATOM     12  C   UNL     1       1.119   5.447  20.645  0.00  0.00    +0.000 A 
ATOM     13  C   UNL     1       2.259   6.268  20.159  0.00  0.00    +0.000 A 
ATOM     14  N   UNL     1       3.282   5.836  19.487  0.00  0.00    +0.000 NA
ATOM     15  C   UNL     1       3.297   4.491  19.200  0.00  0.00    +0.000 A 
ATOM     16  C   UNL     1       4.173   3.696  18.480  0.00  0.00    +0.000 A 
ATOM     17  H   UNL     1       3.808   0.405  18.284  0.00  0.00    +0.000 HD
ATOM     18  H   UNL     1       5.135   1.332  17.736  0.00  0.00    +0.000 HD
ENDBRANCH   1  16
BRANCH   3  19
ATOM     19  N   UNL     1       6.429   5.412  14.558  0.00  0.00    +0.000 N 
ATOM     20  H   UNL     1       5.467   5.540  14.260  0.00  0.00    +0.000 HD
BRANCH  19  21
ATOM     21  C   UNL     1       7.196   4.637  13.588  0.00  0.00    +0.000 C 
BRANCH  21  22
ATOM     22  C   UNL     1       6.362   3.724  12.713  0.00  0.00    +0.000 A 
ATOM     23  C   UNL     1       6.971   2.678  12.020  0.00  0.00    +0.000 A 
ATOM     24  C   UNL     1       6.200   1.875  11.188  0.00  0.00    +0.000 A 
ATOM     25  C   UNL     1       4.845   2.142  11.054  0.00  0.00    +0.000 A 
ATOM     26  C   UNL     1       4.312   3.199  11.773  0.00  0.00    +0.000 A 
ATOM     27  N   UNL     1       5.032   3.987  12.604  0.00  0.00    +0.000 NA
ENDBRANCH  21  22
ENDBRANCH  19  21
ENDBRANCH   3  19
TORSDOF 4
ENDMDL
MODEL 7
REMARK VINA RESULT:      -7.9      1.532      2.666
REMARK  Name = 
REMARK  4 active torsions:
REMARK  status: ('A' for Active; 'I' for Inactive)
REMARK    1  A    between atoms: C_10  and  C_11
REMARK    2  A    between atoms: C_13  and  N_14
REMARK    3  A    between atoms: N_14  and  C_15
REMARK    4  A    between atoms: C_15  and  C_16
REMARK                            x       y       z     vdW  Elec       q    Type
REMARK                         _______ _______ _______ _____ _____    ______ ____
ROOT
ATOM      1  C   UNL     1       3.037   4.909  18.419  0.00  0.00    +0.000 A 
ATOM      2  C   UNL     1       3.867   5.221  17.359  0.00  0.00    +0.000 A 
ATOM      3  C   UNL     1       4.413   4.179  16.643  0.00  0.00    +0.000 A 
ATOM      4  N   UNL     1       4.141   2.905  16.957  0.00  0.00    +0.000 NA
ATOM      5  C   UNL     1       3.274   2.701  17.961  0.00  0.00    +0.000 A 
ATOM      6  N   UNL     1       2.694   3.638  18.719  0.00  0.00    +0.000 NA
ENDROOT
BRANCH   1  16
ATOM      7  N   UNL     1       2.119   4.825  21.400  0.00  0.00    +0.000 N 
ATOM      8  C   UNL     1       2.058   5.913  20.617  0.00  0.00    +0.000 A 
ATOM      9  N   UNL     1       1.576   7.074  21.040  0.00  0.00    +0.000 NA
ATOM     10  N   UNL     1       1.645   7.885  19.962  0.00  0.00    +0.000 N 
ATOM     11  C   UNL     1       1.209   9.204  19.866  0.00  0.00    +0.000 A 
ATOM     12  C   UNL     1       1.335   9.882  18.717  0.00  0.00    +0.000 A 
ATOM     13  C   UNL     1       1.977   9.127  17.609  0.00  0.00    +0.000 A 
ATOM     14  N   UNL     1       2.394   7.898  17.660  0.00  0.00    +0.000 NA
ATOM     15  C   UNL     1       2.213   7.245  18.856  0.00  0.00    +0.000 A 
ATOM     16  C   UNL     1       2.476   5.948  19.265  0.00  0.00    +0.000 A 
ATOM     17  H   UNL     1       2.012   4.961  22.397  0.00  0.00    +0.000 HD
ATOM     18  H   UNL     1       2.769   4.086  21.140  0.00  0.00    +0.000 HD
ENDBRANCH   1  16
BRANCH   3  19
ATOM     19  N   UNL     1       5.271   4.506  15.588  0.00  0.00    +0.000 N 
ATOM     20  H   UNL     1       4.994   4.024  14.739  0.00  0.00    +0.000 HD
BRANCH  19  21
ATOM     21  C   UNL     1       6.712   4.424  15.807  0.00  0.00    +0.000 C 
BRANCH  21  22
ATOM     22  C   UNL     1       7.246   5.391  16.843  0.00  0.00    +0.000 A 
ATOM     23  C   UNL     1       7.594   4.928  18.112  0.00  0.00    +0.000 A 
ATOM     24  C   UNL     1       8.042   5.834  19.066  0.00  0.00    +0.000 A 
ATOM     25  C   UNL     1       8.118   7.181  18.738  0.00  0.00    +0.000 A 
ATOM     26  C   UNL     1       7.754   7.564  17.459  0.00  0.00    +0.000 A 
ATOM     27  N   UNL     1       7.331   6.705  16.503  0.00  0.00    +0.000 NA
ENDBRANCH  21  22
ENDBRANCH  19  21
ENDBRANCH   3  19
TORSDOF 4
ENDMDL
MODEL 8
REMARK VINA RESULT:      -7.8      0.999      1.049
REMARK  Name = 
REMARK  4 active torsions:
REMARK  status: ('A' for Active; 'I' for Inactive)
REMARK    1  A    between atoms: C_10  and  C_11
REMARK    2  A    between atoms: C_13  and  N_14
REMARK    3  A    between atoms: N_14  and  C_15
REMARK    4  A    between atoms: C_15  and  C_16
REMARK                            x       y       z     vdW  Elec       q    Type
REMARK                         _______ _______ _______ _____ _____    ______ ____
ROOT
ATOM      1  C   UNL     1       3.009   6.220  18.357  0.00  0.00    +0.000 A 
ATOM      2  C   UNL     1       4.171   6.623  17.727  0.00  0.00    +0.000 A 
ATOM      3  C   UNL     1       4.811   5.711  16.917  0.00  0.00    +0.000 A 
ATOM      4  N   UNL     1       4.318   4.478  16.738  0.00  0.00    +0.000 NA
ATOM      5  C   UNL     1       3.150   4.199  17.339  0.00  0.00    +0.000 A 
ATOM      6  N   UNL     1       2.454   5.008  18.146  0.00  0.00    +0.000 NA
ENDROOT
BRANCH   1  16
ATOM      7  N   UNL     1       1.946   5.700  21.244  0.00  0.00    +0.000 N 
ATOM      8  C   UNL     1       1.827   6.866  20.590  0.00  0.00    +0.000 A 
ATOM      9  N   UNL     1       1.219   7.923  21.113  0.00  0.00    +0.000 NA
ATOM     10  N   UNL     1       1.272   8.861  20.142  0.00  0.00    +0.000 N 
ATOM     11  C   UNL     1       0.723  10.140  20.171  0.00  0.00    +0.000 A 
ATOM     12  C   UNL     1       0.847  10.959  19.118  0.00  0.00    +0.000 A 
ATOM     13  C   UNL     1       1.613  10.400  17.973  0.00  0.00    +0.000 A 
ATOM     14  N   UNL     1       2.137   9.214  17.908  0.00  0.00    +0.000 NA
ATOM     15  C   UNL     1       1.953   8.408  19.008  0.00  0.00    +0.000 A 
ATOM     16  C   UNL     1       2.311   7.098  19.280  0.00  0.00    +0.000 A 
ATOM     17  H   UNL     1       1.774   5.706  22.242  0.00  0.00    +0.000 HD
ATOM     18  H   UNL     1       2.673   5.056  20.943  0.00  0.00    +0.000 HD
ENDBRANCH   1  16
BRANCH   3  19
ATOM     19  N   UNL     1       6.000   6.121  16.304  0.00  0.00    +0.000 N 
ATOM     20  H   UNL     1       5.806   6.771  15.549  0.00  0.00    +0.000 HD
BRANCH  19  21
ATOM     21  C   UNL     1       6.968   5.104  15.906  0.00  0.00    +0.000 C 
BRANCH  21  22
ATOM     22  C   UNL     1       7.007   4.823  14.418  0.00  0.00    +0.000 A 
ATOM     23  C   UNL     1       6.207   3.816  13.880  0.00  0.00    +0.000 A 
ATOM     24  C   UNL     1       6.285   3.540  12.520  0.00  0.00    +0.000 A 
ATOM     25  C   UNL     1       7.169   4.264  11.732  0.00  0.00    +0.000 A 
ATOM     26  C   UNL     1       7.932   5.247  12.339  0.00  0.00    +0.000 A 
ATOM     27  N   UNL     1       7.865   5.551  13.655  0.00  0.00    +0.000 NA
ENDBRANCH  21  22
ENDBRANCH  19  21
ENDBRANCH   3  19
TORSDOF 4
ENDMDL
MODEL 9
REMARK VINA RESULT:      -7.8      1.692      6.806
REMARK  Name = 
REMARK  4 active torsions:
REMARK  status: ('A' for Active; 'I' for Inactive)
REMARK    1  A    between atoms: C_10  and  C_11
REMARK    2  A    between atoms: C_13  and  N_14
REMARK    3  A    between atoms: N_14  and  C_15
REMARK    4  A    between atoms: C_15  and  C_16
REMARK                            x       y       z     vdW  Elec       q    Type
REMARK                         _______ _______ _______ _____ _____    ______ ____
ROOT
ATOM      1  C   UNL     1       4.729   4.195  19.123  0.00  0.00    +0.000 A 
ATOM      2  C   UNL     1       3.713   5.096  19.372  0.00  0.00    +0.000 A 
ATOM      3  C   UNL     1       2.657   4.674  20.150  0.00  0.00    +0.000 A 
ATOM      4  N   UNL     1       2.622   3.434  20.656  0.00  0.00    +0.000 NA
ATOM      5  C   UNL     1       3.686   2.651  20.415  0.00  0.00    +0.000 A 
ATOM      6  N   UNL     1       4.754   2.961  19.671  0.00  0.00    +0.000 NA
ENDROOT
BRANCH   1  16
ATOM      7  N   UNL     1       7.540   5.369  19.799  0.00  0.00    +0.000 N 
ATOM      8  C   UNL     1       7.119   5.072  18.560  0.00  0.00    +0.000 A 
ATOM      9  N   UNL     1       7.868   5.271  17.482  0.00  0.00    +0.000 NA
ATOM     10  N   UNL     1       7.083   4.894  16.449  0.00  0.00    +0.000 N 
ATOM     11  C   UNL     1       7.384   4.960  15.091  0.00  0.00    +0.000 A 
ATOM     12  C   UNL     1       6.492   4.558  14.175  0.00  0.00    +0.000 A 
ATOM     13  C   UNL     1       5.214   4.038  14.728  0.00  0.00    +0.000 A 
ATOM     14  N   UNL     1       4.897   3.963  15.985  0.00  0.00    +0.000 NA
ATOM     15  C   UNL     1       5.841   4.416  16.877  0.00  0.00    +0.000 A 
ATOM     16  C   UNL     1       5.844   4.539  18.257  0.00  0.00    +0.000 A 
ATOM     17  H   UNL     1       8.531   5.527  19.930  0.00  0.00    +0.000 HD
ATOM     18  H   UNL     1       7.076   4.915  20.583  0.00  0.00    +0.000 HD
ENDBRANCH   1  16
BRANCH   3  19
ATOM     19  N   UNL     1       1.621   5.587  20.375  0.00  0.00    +0.000 N 
ATOM     20  H   UNL     1       1.017   5.649  19.561  0.00  0.00    +0.000 HD
BRANCH  19  21
ATOM     21  C   UNL     1       1.956   6.907  20.900  0.00  0.00    +0.000 C 
BRANCH  21  22
ATOM     22  C   UNL     1       1.635   8.055  19.966  0.00  0.00    +0.000 A 
ATOM     23  C   UNL     1       2.137   8.054  18.665  0.00  0.00    +0.000 A 
ATOM     24  C   UNL     1       1.870   9.134  17.832  0.00  0.00    +0.000 A 
ATOM     25  C   UNL     1       1.122  10.196  18.320  0.00  0.00    +0.000 A 
ATOM     26  C   UNL     1       0.659  10.126  19.623  0.00  0.00    +0.000 A 
ATOM     27  N   UNL     1       0.886   9.082  20.451  0.00  0.00    +0.000 NA
ENDBRANCH  21  22
ENDBRANCH  19  21
ENDBRANCH   3  19
TORSDOF 4
ENDMDL
