MODEL 1
REMARK VINA RESULT:      -8.3      0.000      0.000
REMARK  Name = 
REMARK  8 active torsions:
REMARK  status: ('A' for Active; 'I' for Inactive)
REMARK    1  A    between atoms: C_1  and  O_2
REMARK    2  A    between atoms: O_2  and  C_3
REMARK    3  A    between atoms: C_5  and  C_6
REMARK    4  A    between atoms: C_12  and  C_13
REMARK    5  A    between atoms: C_23  and  O_24
REMARK    6  A    between atoms: O_24  and  C_25
REMARK    7  A    between atoms: C_26  and  O_27
REMARK    8  A    between atoms: O_27  and  C_28
REMARK                            x       y       z     vdW  Elec       q    Type
REMARK                         _______ _______ _______ _____ _____    ______ ____
ROOT
ATOM      1  C   UNL     1       4.117   3.823  17.543  0.00  0.00    +0.000 A 
ATOM      2  N   UNL     1       4.048   2.512  17.837  0.00  0.00    +0.000 NA
ATOM      3  N   UNL     1       3.176   2.451  18.864  0.00  0.00    +0.000 N 
ATOM      4  C   UNL     1       2.685   3.661  19.252  0.00  0.00    +0.000 A 
ATOM      5  N   UNL     1       1.827   3.900  20.260  0.00  0.00    +0.000 NA
ATOM      6  C   UNL     1       1.553   5.227  20.410  0.00  0.00    +0.000 A 
ATOM      7  C   UNL     1       2.051   6.294  19.649  0.00  0.00    +0.000 A 
ATOM      8  C   UNL     1       2.944   5.941  18.626  0.00  0.00    +0.000 A 
ATOM      9  C   UNL     1       3.269   4.587  18.411  0.00  0.00    +0.000 A 
ATOM     10  H   UNL     1       2.965   1.552  19.281  0.00  0.00    +0.000 HD
ENDROOT
BRANCH   7  11
ATOM     11  C   UNL     1       1.678   7.709  19.893  0.00  0.00    +0.000 A 
ATOM     12  C   UNL     1       1.679   8.667  18.859  0.00  0.00    +0.000 A 
ATOM     13  C   UNL     1       1.323  10.002  19.087  0.00  0.00    +0.000 A 
ATOM     14  C   UNL     1       0.967  10.410  20.366  0.00  0.00    +0.000 A 
ATOM     15 BR   UNL     1       0.508  12.213  20.688  0.00  0.00    +0.000 Br
ATOM     16  C   UNL     1       0.951   9.492  21.410  0.00  0.00    +0.000 A 
ATOM     17  C   UNL     1       1.294   8.154  21.176  0.00  0.00    +0.000 A 
ENDBRANCH   7  11
BRANCH   1  20
ATOM     18  C   UNL     1       6.935   5.786  16.014  0.00  0.00    +0.000 A 
ATOM     19  C   UNL     1       5.828   5.461  16.812  0.00  0.00    +0.000 A 
ATOM     20  C   UNL     1       5.033   4.351  16.530  0.00  0.00    +0.000 A 
ATOM     21  C   UNL     1       5.233   3.688  15.322  0.00  0.00    +0.000 A 
ATOM     22  C   UNL     1       6.256   4.074  14.439  0.00  0.00    +0.000 A 
ATOM     23  C   UNL     1       7.138   5.126  14.786  0.00  0.00    +0.000 A 
BRANCH  18  25
ATOM     24  C   UNL     1       7.551   7.258  17.760  0.00  0.00    +0.000 C 
ATOM     25  O   UNL     1       7.808   6.754  16.444  0.00  0.00    +0.000 OA
ENDBRANCH  18  25
BRANCH  22  26
ATOM     26  O   UNL     1       6.271   3.278  13.319  0.00  0.00    +0.000 OA
ATOM     27  C   UNL     1       5.192   3.335  12.400  0.00  0.00    +0.000 C 
ENDBRANCH  22  26
BRANCH  23  28
ATOM     28  O   UNL     1       8.120   5.405  13.878  0.00  0.00    +0.000 OA
ATOM     29  C   UNL     1       7.817   5.702  12.527  0.00  0.00    +0.000 C 
ENDBRANCH  23  28
ENDBRANCH   1  20
TORSDOF 5
ENDMDL
MODEL 2
REMARK VINA RESULT:      -8.0      0.702      2.707
REMARK  Name = 
REMARK  8 active torsions:
REMARK  status: ('A' for Active; 'I' for Inactive)
REMARK    1  A    between atoms: C_1  and  O_2
REMARK    2  A    between atoms: O_2  and  C_3
REMARK    3  A    between atoms: C_5  and  C_6
REMARK    4  A    between atoms: C_12  and  C_13
REMARK    5  A    between atoms: C_23  and  O_24
REMARK    6  A    between atoms: O_24  and  C_25
REMARK    7  A    between atoms: C_26  and  O_27
REMARK    8  A    between atoms: O_27  and  C_28
REMARK                            x       y       z     vdW  Elec       q    Type
REMARK                         _______ _______ _______ _____ _____    ______ ____
ROOT
ATOM      1  C   UNL     1       4.497   3.870  18.219  0.00  0.00    +0.000 A 
ATOM      2  N   UNL     1       4.420   2.645  18.769  0.00  0.00    +0.000 NA
ATOM      3  N   UNL     1       3.453   2.765  19.703  0.00  0.00    +0.000 N 
ATOM      4  C   UNL     1       2.910   4.012  19.786  0.00  0.00    +0.000 A 
ATOM      5  N   UNL     1       1.955   4.421  20.640  0.00  0.00    +0.000 NA
ATOM      6  C   UNL     1       1.648   5.741  20.487  0.00  0.00    +0.000 A 
ATOM      7  C   UNL     1       2.202   6.646  19.572  0.00  0.00    +0.000 A 
ATOM      8  C   UNL     1       3.195   6.123  18.730  0.00  0.00    +0.000 A 
ATOM      9  C   UNL     1       3.559   4.766  18.829  0.00  0.00    +0.000 A 
ATOM     10  H   UNL     1       3.216   1.963  20.274  0.00  0.00    +0.000 HD
ENDROOT
BRANCH   7  11
ATOM     11  C   UNL     1       1.787   8.068  19.484  0.00  0.00    +0.000 A 
ATOM     12  C   UNL     1       1.174   8.732  20.567  0.00  0.00    +0.000 A 
ATOM     13  C   UNL     1       0.787  10.075  20.487  0.00  0.00    +0.000 A 
ATOM     14  C   UNL     1       0.995  10.782  19.311  0.00  0.00    +0.000 A 
ATOM     15 BR   UNL     1       0.454  12.587  19.185  0.00  0.00    +0.000 Br
ATOM     16  C   UNL     1       1.601  10.162  18.224  0.00  0.00    +0.000 A 
ATOM     17  C   UNL     1       2.000   8.822  18.311  0.00  0.00    +0.000 A 
ENDBRANCH   7  11
BRANCH   1  20
ATOM     18  C   UNL     1       6.281   3.973  14.910  0.00  0.00    +0.000 A 
ATOM     19  C   UNL     1       5.580   3.483  16.023  0.00  0.00    +0.000 A 
ATOM     20  C   UNL     1       5.500   4.212  17.207  0.00  0.00    +0.000 A 
ATOM     21  C   UNL     1       6.302   5.343  17.340  0.00  0.00    +0.000 A 
ATOM     22  C   UNL     1       7.115   5.788  16.283  0.00  0.00    +0.000 A 
ATOM     23  C   UNL     1       7.101   5.112  15.039  0.00  0.00    +0.000 A 
BRANCH  18  25
ATOM     24  C   UNL     1       4.950   3.611  12.988  0.00  0.00    +0.000 C 
ATOM     25  O   UNL     1       6.158   3.328  13.705  0.00  0.00    +0.000 OA
ENDBRANCH  18  25
BRANCH  22  26
ATOM     26  O   UNL     1       7.809   6.921  16.634  0.00  0.00    +0.000 OA
ATOM     27  C   UNL     1       7.774   7.381  17.975  0.00  0.00    +0.000 C 
ENDBRANCH  22  26
BRANCH  23  28
ATOM     28  O   UNL     1       7.900   5.639  14.064  0.00  0.00    +0.000 OA
ATOM     29  C   UNL     1       7.863   5.155  12.734  0.00  0.00    +0.000 C 
ENDBRANCH  23  28
ENDBRANCH   1  20
TORSDOF 5
ENDMDL
MODEL 3
REMARK VINA RESULT:      -7.3      3.948      8.022
REMARK  Name = 
REMARK  8 active torsions:
REMARK  status: ('A' for Active; 'I' for Inactive)
REMARK    1  A    between atoms: C_1  and  O_2
REMARK    2  A    between atoms: O_2  and  C_3
REMARK    3  A    between atoms: C_5  and  C_6
REMARK    4  A    between atoms: C_12  and  C_13
REMARK    5  A    between atoms: C_23  and  O_24
REMARK    6  A    between atoms: O_24  and  C_25
REMARK    7  A    between atoms: C_26  and  O_27
REMARK    8  A    between atoms: O_27  and  C_28
REMARK                            x       y       z     vdW  Elec       q    Type
REMARK                         _______ _______ _______ _____ _____    ______ ____
ROOT
ATOM      1  C   UNL     1       2.043   5.816  20.235  0.00  0.00    +0.000 A 
ATOM      2  N   UNL     1       1.393   4.984  21.069  0.00  0.00    +0.000 NA
ATOM      3  N   UNL     1       1.802   3.755  20.690  0.00  0.00    +0.000 N 
ATOM      4  C   UNL     1       2.678   3.756  19.646  0.00  0.00    +0.000 A 
ATOM      5  N   UNL     1       3.222   2.681  19.048  0.00  0.00    +0.000 NA
ATOM      6  C   UNL     1       4.041   3.019  18.011  0.00  0.00    +0.000 A 
ATOM      7  C   UNL     1       4.347   4.307  17.549  0.00  0.00    +0.000 A 
ATOM      8  C   UNL     1       3.723   5.359  18.235  0.00  0.00    +0.000 A 
ATOM      9  C   UNL     1       2.868   5.084  19.321  0.00  0.00    +0.000 A 
ATOM     10  H   UNL     1       1.432   2.942  21.168  0.00  0.00    +0.000 HD
ENDROOT
BRANCH   7  11
ATOM     11  C   UNL     1       5.263   4.564  16.411  0.00  0.00    +0.000 A 
ATOM     12  C   UNL     1       5.055   3.980  15.143  0.00  0.00    +0.000 A 
ATOM     13  C   UNL     1       5.915   4.226  14.066  0.00  0.00    +0.000 A 
ATOM     14  C   UNL     1       7.015   5.057  14.240  0.00  0.00    +0.000 A 
ATOM     15 BR   UNL     1       8.195   5.375  12.800  0.00  0.00    +0.000 Br
ATOM     16  C   UNL     1       7.250   5.652  15.474  0.00  0.00    +0.000 A 
ATOM     17  C   UNL     1       6.379   5.416  16.546  0.00  0.00    +0.000 A 
ENDBRANCH   7  11
BRANCH   1  20
ATOM     18  C   UNL     1       1.109   9.247  19.012  0.00  0.00    +0.000 A 
ATOM     19  C   UNL     1       1.651   7.953  19.041  0.00  0.00    +0.000 A 
ATOM     20  C   UNL     1       1.815   7.263  20.240  0.00  0.00    +0.000 A 
ATOM     21  C   UNL     1       1.625   7.959  21.431  0.00  0.00    +0.000 A 
ATOM     22  C   UNL     1       1.205   9.301  21.433  0.00  0.00    +0.000 A 
ATOM     23  C   UNL     1       0.923   9.960  20.213  0.00  0.00    +0.000 A 
BRANCH  18  25
ATOM     24  C   UNL     1      -0.638   9.925  17.569  0.00  0.00    +0.000 C 
ATOM     25  O   UNL     1       0.770   9.803  17.803  0.00  0.00    +0.000 OA
ENDBRANCH  18  25
BRANCH  22  26
ATOM     26  O   UNL     1       1.076   9.779  22.715  0.00  0.00    +0.000 OA
ATOM     27  C   UNL     1      -0.172   9.680  23.381  0.00  0.00    +0.000 C 
ENDBRANCH  22  26
BRANCH  23  28
ATOM     28  O   UNL     1       0.489  11.252  20.319  0.00  0.00    +0.000 OA
ATOM     29  C   UNL     1       1.398  12.334  20.399  0.00  0.00    +0.000 C 
ENDBRANCH  23  28
ENDBRANCH   1  20
TORSDOF 5
ENDMDL
MODEL 4
REMARK VINA RESULT:      -7.3      3.941      7.874
REMARK  Name = 
REMARK  8 active torsions:
REMARK  status: ('A' for Active; 'I' for Inactive)
REMARK    1  A    between atoms: C_1  and  O_2
REMARK    2  A    between atoms: O_2  and  C_3
REMARK    3  A    between atoms: C_5  and  C_6
REMARK    4  A    between atoms: C_12  and  C_13
REMARK    5  A    between atoms: C_23  and  O_24
REMARK    6  A    between atoms: O_24  and  C_25
REMARK    7  A    between atoms: C_26  and  O_27
REMARK    8  A    between atoms: O_27  and  C_28
REMARK                            x       y       z     vdW  Elec       q    Type
REMARK                         _______ _______ _______ _____ _____    ______ ____
ROOT
ATOM      1  C   UNL     1       2.110   5.686  20.306  0.00  0.00    +0.000 A 
ATOM      2  N   UNL     1       1.560   4.853  21.209  0.00  0.00    +0.000 NA
ATOM      3  N   UNL     1       2.073   3.645  20.897  0.00  0.00    +0.000 N 
ATOM      4  C   UNL     1       2.921   3.658  19.830  0.00  0.00    +0.000 A 
ATOM      5  N   UNL     1       3.551   2.602  19.286  0.00  0.00    +0.000 NA
ATOM      6  C   UNL     1       4.310   2.945  18.206  0.00  0.00    +0.000 A 
ATOM      7  C   UNL     1       4.484   4.222  17.656  0.00  0.00    +0.000 A 
ATOM      8  C   UNL     1       3.779   5.255  18.292  0.00  0.00    +0.000 A 
ATOM      9  C   UNL     1       2.979   4.974  19.416  0.00  0.00    +0.000 A 
ATOM     10  H   UNL     1       1.793   2.835  21.435  0.00  0.00    +0.000 HD
ENDROOT
BRANCH   7  11
ATOM     11  C   UNL     1       5.345   4.487  16.477  0.00  0.00    +0.000 A 
ATOM     12  C   UNL     1       5.111   3.870  15.231  0.00  0.00    +0.000 A 
ATOM     13  C   UNL     1       5.919   4.123  14.116  0.00  0.00    +0.000 A 
ATOM     14  C   UNL     1       6.994   4.996  14.230  0.00  0.00    +0.000 A 
ATOM     15 BR   UNL     1       8.105   5.325  12.739  0.00  0.00    +0.000 Br
ATOM     16  C   UNL     1       7.253   5.626  15.442  0.00  0.00    +0.000 A 
ATOM     17  C   UNL     1       6.434   5.382  16.552  0.00  0.00    +0.000 A 
ENDBRANCH   7  11
BRANCH   1  20
ATOM     18  C   UNL     1       1.556   9.111  18.859  0.00  0.00    +0.000 A 
ATOM     19  C   UNL     1       2.149   7.870  19.135  0.00  0.00    +0.000 A 
ATOM     20  C   UNL     1       1.747   7.103  20.226  0.00  0.00    +0.000 A 
ATOM     21  C   UNL     1       0.890   7.681  21.158  0.00  0.00    +0.000 A 
ATOM     22  C   UNL     1       0.378   8.977  20.972  0.00  0.00    +0.000 A 
ATOM     23  C   UNL     1       0.694   9.707  19.801  0.00  0.00    +0.000 A 
BRANCH  18  25
ATOM     24  C   UNL     1       2.473  11.007  17.780  0.00  0.00    +0.000 C 
ATOM     25  O   UNL     1       1.830   9.732  17.665  0.00  0.00    +0.000 OA
ENDBRANCH  18  25
BRANCH  22  26
ATOM     26  O   UNL     1      -0.450   9.338  22.008  0.00  0.00    +0.000 OA
ATOM     27  C   UNL     1       0.090   9.528  23.306  0.00  0.00    +0.000 C 
ENDBRANCH  22  26
BRANCH  23  28
ATOM     28  O   UNL     1       0.123  10.943  19.695  0.00  0.00    +0.000 OA
ATOM     29  C   UNL     1      -1.113  11.134  19.030  0.00  0.00    +0.000 C 
ENDBRANCH  23  28
ENDBRANCH   1  20
TORSDOF 5
ENDMDL
MODEL 5
REMARK VINA RESULT:      -7.3      3.909      7.986
REMARK  Name = 
REMARK  8 active torsions:
REMARK  status: ('A' for Active; 'I' for Inactive)
REMARK    1  A    between atoms: C_1  and  O_2
REMARK    2  A    between atoms: O_2  and  C_3
REMARK    3  A    between atoms: C_5  and  C_6
REMARK    4  A    between atoms: C_12  and  C_13
REMARK    5  A    between atoms: C_23  and  O_24
REMARK    6  A    between atoms: O_24  and  C_25
REMARK    7  A    between atoms: C_26  and  O_27
REMARK    8  A    between atoms: O_27  and  C_28
REMARK                            x       y       z     vdW  Elec       q    Type
REMARK                         _______ _______ _______ _____ _____    ______ ____
ROOT
ATOM      1  C   UNL     1       1.916   5.810  20.139  0.00  0.00    +0.000 A 
ATOM      2  N   UNL     1       1.174   4.978  20.892  0.00  0.00    +0.000 NA
ATOM      3  N   UNL     1       1.496   3.749  20.437  0.00  0.00    +0.000 N 
ATOM      4  C   UNL     1       2.405   3.751  19.421  0.00  0.00    +0.000 A 
ATOM      5  N   UNL     1       2.882   2.680  18.763  0.00  0.00    +0.000 NA
ATOM      6  C   UNL     1       3.760   3.021  17.776  0.00  0.00    +0.000 A 
ATOM      7  C   UNL     1       4.183   4.308  17.417  0.00  0.00    +0.000 A 
ATOM      8  C   UNL     1       3.621   5.358  18.159  0.00  0.00    +0.000 A 
ATOM      9  C   UNL     1       2.711   5.078  19.198  0.00  0.00    +0.000 A 
ATOM     10  H   UNL     1       1.048   2.938  20.844  0.00  0.00    +0.000 HD
ENDROOT
BRANCH   7  11
ATOM     11  C   UNL     1       5.154   4.568  16.326  0.00  0.00    +0.000 A 
ATOM     12  C   UNL     1       6.171   5.537  16.452  0.00  0.00    +0.000 A 
ATOM     13  C   UNL     1       7.092   5.780  15.425  0.00  0.00    +0.000 A 
ATOM     14  C   UNL     1       7.005   5.062  14.239  0.00  0.00    +0.000 A 
ATOM     15 BR   UNL     1       8.227   5.400  12.839  0.00  0.00    +0.000 Br
ATOM     16  C   UNL     1       6.018   4.096  14.081  0.00  0.00    +0.000 A 
ATOM     17  C   UNL     1       5.107   3.845  15.115  0.00  0.00    +0.000 A 
ENDBRANCH   7  11
BRANCH   1  20
ATOM     18  C   UNL     1       1.474   9.398  19.105  0.00  0.00    +0.000 A 
ATOM     19  C   UNL     1       1.900   8.061  19.101  0.00  0.00    +0.000 A 
ATOM     20  C   UNL     1       1.804   7.267  20.242  0.00  0.00    +0.000 A 
ATOM     21  C   UNL     1       1.468   7.881  21.446  0.00  0.00    +0.000 A 
ATOM     22  C   UNL     1       1.159   9.252  21.504  0.00  0.00    +0.000 A 
ATOM     23  C   UNL     1       1.141  10.029  20.321  0.00  0.00    +0.000 A 
BRANCH  18  25
ATOM     24  C   UNL     1       2.344  11.133  17.752  0.00  0.00    +0.000 C 
ATOM     25  O   UNL     1       1.389  10.077  17.915  0.00  0.00    +0.000 OA
ENDBRANCH  18  25
BRANCH  22  26
ATOM     26  O   UNL     1       0.852   9.637  22.786  0.00  0.00    +0.000 OA
ATOM     27  C   UNL     1      -0.497   9.609  23.225  0.00  0.00    +0.000 C 
ENDBRANCH  22  26
BRANCH  23  28
ATOM     28  O   UNL     1       0.797  11.342  20.474  0.00  0.00    +0.000 OA
ATOM     29  C   UNL     1      -0.526  11.793  20.247  0.00  0.00    +0.000 C 
ENDBRANCH  23  28
ENDBRANCH   1  20
TORSDOF 5
ENDMDL
MODEL 6
REMARK VINA RESULT:      -7.2      4.805      8.692
REMARK  Name = 
REMARK  8 active torsions:
REMARK  status: ('A' for Active; 'I' for Inactive)
REMARK    1  A    between atoms: C_1  and  O_2
REMARK    2  A    between atoms: O_2  and  C_3
REMARK    3  A    between atoms: C_5  and  C_6
REMARK    4  A    between atoms: C_12  and  C_13
REMARK    5  A    between atoms: C_23  and  O_24
REMARK    6  A    between atoms: O_24  and  C_25
REMARK    7  A    between atoms: C_26  and  O_27
REMARK    8  A    between atoms: O_27  and  C_28
REMARK                            x       y       z     vdW  Elec       q    Type
REMARK                         _______ _______ _______ _____ _____    ______ ____
ROOT
ATOM      1  C   UNL     1       0.808   9.246  20.389  0.00  0.00    +0.000 A 
ATOM      2  N   UNL     1       0.150   9.011  21.539  0.00  0.00    +0.000 NA
ATOM      3  N   UNL     1       0.465   7.734  21.841  0.00  0.00    +0.000 N 
ATOM      4  C   UNL     1       1.288   7.133  20.937  0.00  0.00    +0.000 A 
ATOM      5  N   UNL     1       1.737   5.866  20.970  0.00  0.00    +0.000 NA
ATOM      6  C   UNL     1       2.523   5.561  19.898  0.00  0.00    +0.000 A 
ATOM      7  C   UNL     1       2.884   6.403  18.837  0.00  0.00    +0.000 A 
ATOM      8  C   UNL     1       2.359   7.703  18.891  0.00  0.00    +0.000 A 
ATOM      9  C   UNL     1       1.542   8.088  19.973  0.00  0.00    +0.000 A 
ATOM     10  H   UNL     1       0.071   7.311  22.673  0.00  0.00    +0.000 HD
ENDROOT
BRANCH   7  11
ATOM     11  C   UNL     1       3.757   5.970  17.719  0.00  0.00    +0.000 A 
ATOM     12  C   UNL     1       3.913   4.609  17.381  0.00  0.00    +0.000 A 
ATOM     13  C   UNL     1       4.732   4.199  16.322  0.00  0.00    +0.000 A 
ATOM     14  C   UNL     1       5.427   5.148  15.583  0.00  0.00    +0.000 A 
ATOM     15 BR   UNL     1       6.553   4.603  14.168  0.00  0.00    +0.000 Br
ATOM     16  C   UNL     1       5.294   6.499  15.884  0.00  0.00    +0.000 A 
ATOM     17  C   UNL     1       4.463   6.907  16.935  0.00  0.00    +0.000 A 
ENDBRANCH   7  11
BRANCH   1  20
ATOM     18  C   UNL     1      -0.762  11.989  18.353  0.00  0.00    +0.000 A 
ATOM     19  C   UNL     1      -0.419  10.706  18.806  0.00  0.00    +0.000 A 
ATOM     20  C   UNL     1       0.669  10.505  19.652  0.00  0.00    +0.000 A 
ATOM     21  C   UNL     1       1.536  11.571  19.877  0.00  0.00    +0.000 A 
ATOM     22  C   UNL     1       1.285  12.842  19.329  0.00  0.00    +0.000 A 
ATOM     23  C   UNL     1       0.114  13.071  18.568  0.00  0.00    +0.000 A 
BRANCH  18  25
ATOM     24  C   UNL     1      -2.413  11.036  16.952  0.00  0.00    +0.000 C 
ATOM     25  O   UNL     1      -1.956  12.170  17.698  0.00  0.00    +0.000 OA
ENDBRANCH  18  25
BRANCH  22  26
ATOM     26  O   UNL     1       2.263  13.738  19.687  0.00  0.00    +0.000 OA
ATOM     27  C   UNL     1       3.321  14.023  18.785  0.00  0.00    +0.000 C 
ENDBRANCH  22  26
BRANCH  23  28
ATOM     28  O   UNL     1      -0.058  14.346  18.106  0.00  0.00    +0.000 OA
ATOM     29  C   UNL     1      -0.423  15.405  18.972  0.00  0.00    +0.000 C 
ENDBRANCH  23  28
ENDBRANCH   1  20
TORSDOF 5
ENDMDL
MODEL 7
REMARK VINA RESULT:      -7.2      4.754      8.676
REMARK  Name = 
REMARK  8 active torsions:
REMARK  status: ('A' for Active; 'I' for Inactive)
REMARK    1  A    between atoms: C_1  and  O_2
REMARK    2  A    between atoms: O_2  and  C_3
REMARK    3  A    between atoms: C_5  and  C_6
REMARK    4  A    between atoms: C_12  and  C_13
REMARK    5  A    between atoms: C_23  and  O_24
REMARK    6  A    between atoms: O_24  and  C_25
REMARK    7  A    between atoms: C_26  and  O_27
REMARK    8  A    between atoms: O_27  and  C_28
REMARK                            x       y       z     vdW  Elec       q    Type
REMARK                         _______ _______ _______ _____ _____    ______ ____
ROOT
ATOM      1  C   UNL     1       0.899   9.153  20.282  0.00  0.00    +0.000 A 
ATOM      2  N   UNL     1       0.237   8.910  21.429  0.00  0.00    +0.000 NA
ATOM      3  N   UNL     1       0.549   7.630  21.721  0.00  0.00    +0.000 N 
ATOM      4  C   UNL     1       1.372   7.034  20.813  0.00  0.00    +0.000 A 
ATOM      5  N   UNL     1       1.819   5.766  20.838  0.00  0.00    +0.000 NA
ATOM      6  C   UNL     1       2.607   5.468  19.766  0.00  0.00    +0.000 A 
ATOM      7  C   UNL     1       2.972   6.318  18.712  0.00  0.00    +0.000 A 
ATOM      8  C   UNL     1       2.450   7.619  18.775  0.00  0.00    +0.000 A 
ATOM      9  C   UNL     1       1.631   7.997  19.858  0.00  0.00    +0.000 A 
ATOM     10  H   UNL     1       0.152   7.201  22.548  0.00  0.00    +0.000 HD
ENDROOT
BRANCH   7  11
ATOM     11  C   UNL     1       3.847   5.892  17.592  0.00  0.00    +0.000 A 
ATOM     12  C   UNL     1       4.562   6.824  16.811  0.00  0.00    +0.000 A 
ATOM     13  C   UNL     1       5.392   6.423  15.758  0.00  0.00    +0.000 A 
ATOM     14  C   UNL     1       5.515   5.073  15.454  0.00  0.00    +0.000 A 
ATOM     15 BR   UNL     1       6.613   4.524  14.019  0.00  0.00    +0.000 Br
ATOM     16  C   UNL     1       4.828   4.125  16.204  0.00  0.00    +0.000 A 
ATOM     17  C   UNL     1       4.009   4.529  17.267  0.00  0.00    +0.000 A 
ENDBRANCH   7  11
BRANCH   1  20
ATOM     18  C   UNL     1      -0.708  12.033  18.476  0.00  0.00    +0.000 A 
ATOM     19  C   UNL     1      -0.421  10.723  18.891  0.00  0.00    +0.000 A 
ATOM     20  C   UNL     1       0.764  10.418  19.555  0.00  0.00    +0.000 A 
ATOM     21  C   UNL     1       1.754  11.395  19.619  0.00  0.00    +0.000 A 
ATOM     22  C   UNL     1       1.542  12.683  19.096  0.00  0.00    +0.000 A 
ATOM     23  C   UNL     1       0.291  13.024  18.530  0.00  0.00    +0.000 A 
BRANCH  18  25
ATOM     24  C   UNL     1      -2.611  11.273  17.292  0.00  0.00    +0.000 C 
ATOM     25  O   UNL     1      -1.969  12.328  18.019  0.00  0.00    +0.000 OA
ENDBRANCH  18  25
BRANCH  22  26
ATOM     26  O   UNL     1       2.647  13.480  19.277  0.00  0.00    +0.000 OA
ATOM     27  C   UNL     1       2.875  14.093  20.536  0.00  0.00    +0.000 C 
ENDBRANCH  22  26
BRANCH  23  28
ATOM     28  O   UNL     1       0.171  14.309  18.079  0.00  0.00    +0.000 OA
ATOM     29  C   UNL     1      -0.295  15.349  18.919  0.00  0.00    +0.000 C 
ENDBRANCH  23  28
ENDBRANCH   1  20
TORSDOF 5
ENDMDL
MODEL 8
REMARK VINA RESULT:      -6.9      7.651     11.866
REMARK  Name = 
REMARK  8 active torsions:
REMARK  status: ('A' for Active; 'I' for Inactive)
REMARK    1  A    between atoms: C_1  and  O_2
REMARK    2  A    between atoms: O_2  and  C_3
REMARK    3  A    between atoms: C_5  and  C_6
REMARK    4  A    between atoms: C_12  and  C_13
REMARK    5  A    between atoms: C_23  and  O_24
REMARK    6  A    between atoms: O_24  and  C_25
REMARK    7  A    between atoms: C_26  and  O_27
REMARK    8  A    between atoms: O_27  and  C_28
REMARK                            x       y       z     vdW  Elec       q    Type
REMARK                         _______ _______ _______ _____ _____    ______ ____
ROOT
ATOM      1  C   UNL     1      -2.593  13.442  20.775  0.00  0.00    +0.000 A 
ATOM      2  N   UNL     1      -2.444  14.651  21.346  0.00  0.00    +0.000 NA
ATOM      3  N   UNL     1      -1.115  14.752  21.559  0.00  0.00    +0.000 N 
ATOM      4  C   UNL     1      -0.402  13.661  21.160  0.00  0.00    +0.000 A 
ATOM      5  N   UNL     1       0.925  13.478  21.277  0.00  0.00    +0.000 NA
ATOM      6  C   UNL     1       1.328  12.263  20.806  0.00  0.00    +0.000 A 
ATOM      7  C   UNL     1       0.530  11.258  20.243  0.00  0.00    +0.000 A 
ATOM      8  C   UNL     1      -0.842  11.544  20.172  0.00  0.00    +0.000 A 
ATOM      9  C   UNL     1      -1.328  12.782  20.636  0.00  0.00    +0.000 A 
ATOM     10  H   UNL     1      -0.748  15.584  22.003  0.00  0.00    +0.000 HD
ENDROOT
BRANCH   7  11
ATOM     11  C   UNL     1       1.075   9.968  19.751  0.00  0.00    +0.000 A 
ATOM     12  C   UNL     1       1.281   8.872  20.614  0.00  0.00    +0.000 A 
ATOM     13  C   UNL     1       1.791   7.652  20.151  0.00  0.00    +0.000 A 
ATOM     14  C   UNL     1       2.119   7.509  18.809  0.00  0.00    +0.000 A 
ATOM     15 BR   UNL     1       2.829   5.877  18.179  0.00  0.00    +0.000 Br
ATOM     16  C   UNL     1       1.925   8.567  17.928  0.00  0.00    +0.000 A 
ATOM     17  C   UNL     1       1.402   9.782  18.392  0.00  0.00    +0.000 A 
ENDBRANCH   7  11
BRANCH   1  20
ATOM     18  C   UNL     1      -5.283  11.581  18.921  0.00  0.00    +0.000 A 
ATOM     19  C   UNL     1      -4.180  12.410  19.174  0.00  0.00    +0.000 A 
ATOM     20  C   UNL     1      -3.909  12.884  20.456  0.00  0.00    +0.000 A 
ATOM     21  C   UNL     1      -4.869  12.690  21.446  0.00  0.00    +0.000 A 
ATOM     22  C   UNL     1      -6.048  11.970  21.188  0.00  0.00    +0.000 A 
ATOM     23  C   UNL     1      -6.263  11.387  19.915  0.00  0.00    +0.000 A 
BRANCH  18  25
ATOM     24  C   UNL     1      -4.308  11.221  16.796  0.00  0.00    +0.000 C 
ATOM     25  O   UNL     1      -5.393  10.969  17.697  0.00  0.00    +0.000 OA
ENDBRANCH  18  25
BRANCH  22  26
ATOM     26  O   UNL     1      -6.842  11.898  22.307  0.00  0.00    +0.000 OA
ATOM     27  C   UNL     1      -7.244  13.090  22.962  0.00  0.00    +0.000 C 
ENDBRANCH  22  26
BRANCH  23  28
ATOM     28  O   UNL     1      -7.423  10.680  19.771  0.00  0.00    +0.000 OA
ATOM     29  C   UNL     1      -7.494   9.301  20.083  0.00  0.00    +0.000 C 
ENDBRANCH  23  28
ENDBRANCH   1  20
TORSDOF 5
ENDMDL
MODEL 9
REMARK VINA RESULT:      -6.8      4.519      6.880
REMARK  Name = 
REMARK  8 active torsions:
REMARK  status: ('A' for Active; 'I' for Inactive)
REMARK    1  A    between atoms: C_1  and  O_2
REMARK    2  A    between atoms: O_2  and  C_3
REMARK    3  A    between atoms: C_5  and  C_6
REMARK    4  A    between atoms: C_12  and  C_13
REMARK    5  A    between atoms: C_23  and  O_24
REMARK    6  A    between atoms: O_24  and  C_25
REMARK    7  A    between atoms: C_26  and  O_27
REMARK    8  A    between atoms: O_27  and  C_28
REMARK                            x       y       z     vdW  Elec       q    Type
REMARK                         _______ _______ _______ _____ _____    ______ ____
ROOT
ATOM      1  C   UNL     1       1.100   8.635  20.788  0.00  0.00    +0.000 A 
ATOM      2  N   UNL     1       1.453   9.229  21.943  0.00  0.00    +0.000 NA
ATOM      3  N   UNL     1       0.710  10.355  21.973  0.00  0.00    +0.000 N 
ATOM      4  C   UNL     1      -0.098  10.520  20.888  0.00  0.00    +0.000 A 
ATOM      5  N   UNL     1      -0.919  11.556  20.643  0.00  0.00    +0.000 NA
ATOM      6  C   UNL     1      -1.572  11.434  19.452  0.00  0.00    +0.000 A 
ATOM      7  C   UNL     1      -1.473  10.386  18.527  0.00  0.00    +0.000 A 
ATOM      8  C   UNL     1      -0.585   9.357  18.873  0.00  0.00    +0.000 A 
ATOM      9  C   UNL     1       0.120   9.414  20.091  0.00  0.00    +0.000 A 
ATOM     10  H   UNL     1       0.810  10.992  22.754  0.00  0.00    +0.000 HD
ENDROOT
BRANCH   7  11
ATOM     11  C   UNL     1      -2.241  10.349  17.258  0.00  0.00    +0.000 A 
ATOM     12  C   UNL     1      -3.410  11.116  17.073  0.00  0.00    +0.000 A 
ATOM     13  C   UNL     1      -4.133  11.086  15.874  0.00  0.00    +0.000 A 
ATOM     14  C   UNL     1      -3.704  10.273  14.833  0.00  0.00    +0.000 A 
ATOM     15 BR   UNL     1      -4.686  10.207  13.221  0.00  0.00    +0.000 Br
ATOM     16  C   UNL     1      -2.554   9.505  14.977  0.00  0.00    +0.000 A 
ATOM     17  C   UNL     1      -1.825   9.548  16.173  0.00  0.00    +0.000 A 
ENDBRANCH   7  11
BRANCH   1  20
ATOM     18  C   UNL     1       1.788   4.972  20.292  0.00  0.00    +0.000 A 
ATOM     19  C   UNL     1       1.463   6.186  20.916  0.00  0.00    +0.000 A 
ATOM     20  C   UNL     1       1.744   7.409  20.310  0.00  0.00    +0.000 A 
ATOM     21  C   UNL     1       2.540   7.411  19.168  0.00  0.00    +0.000 A 
ATOM     22  C   UNL     1       2.989   6.211  18.590  0.00  0.00    +0.000 A 
ATOM     23  C   UNL     1       2.600   4.966  19.140  0.00  0.00    +0.000 A 
BRANCH  18  25
ATOM     24  C   UNL     1       2.124   3.218  21.843  0.00  0.00    +0.000 C 
ATOM     25  O   UNL     1       1.308   3.799  20.820  0.00  0.00    +0.000 OA
ENDBRANCH  18  25
BRANCH  22  26
ATOM     26  O   UNL     1       3.749   6.453  17.471  0.00  0.00    +0.000 OA
ATOM     27  C   UNL     1       5.160   6.538  17.583  0.00  0.00    +0.000 C 
ENDBRANCH  22  26
BRANCH  23  28
ATOM     28  O   UNL     1       3.060   3.856  18.490  0.00  0.00    +0.000 OA
ATOM     29  C   UNL     1       4.241   3.192  18.902  0.00  0.00    +0.000 C 
ENDBRANCH  23  28
ENDBRANCH   1  20
TORSDOF 5
ENDMDL
