MODEL 1
REMARK VINA RESULT:      -7.1      0.000      0.000
REMARK  Name = 
REMARK  6 active torsions:
REMARK  status: ('A' for Active; 'I' for Inactive)
REMARK    1  A    between atoms: C_1  and  C_2
REMARK    2  A    between atoms: C_2  and  C_3
REMARK    3  A    between atoms: C_2  and  N_4
REMARK    4  A    between atoms: C_7  and  N_8
REMARK    5  A    between atoms: C_9  and  C_11
REMARK    6  A    between atoms: C_14  and  C_15
REMARK                            x       y       z     vdW  Elec       q    Type
REMARK                         _______ _______ _______ _____ _____    ______ ____
ROOT
ATOM      1  N   UNL     1       3.390   6.343  19.853  0.00  0.00    +0.000 N 
ATOM      2  C   UNL     1       2.109   6.458  20.331  0.00  0.00    +0.000 C 
ATOM      3  O   UNL     1       1.408   5.486  20.583  0.00  0.00    +0.000 OA
ATOM      4  H   UNL     1       3.928   7.189  19.705  0.00  0.00    +0.000 HD
ENDROOT
BRANCH   1   8
ATOM      5  N   UNL     1       5.227   5.439  16.827  0.00  0.00    +0.000 NA
ATOM      6  C   UNL     1       5.827   6.015  18.046  0.00  0.00    +0.000 C 
ATOM      7  C   UNL     1       5.540   5.246  19.344  0.00  0.00    +0.000 C 
ATOM      8  C   UNL     1       4.031   5.051  19.559  0.00  0.00    +0.000 C 
ATOM      9  C   UNL     1       3.458   4.355  18.315  0.00  0.00    +0.000 C 
ATOM     10  F   UNL     1       4.020   3.113  18.205  0.00  0.00    +0.000 F 
ATOM     11  C   UNL     1       3.785   5.181  17.062  0.00  0.00    +0.000 C 
BRANCH   5  13
ATOM     12  C   UNL     1       5.759   4.139  14.751  0.00  0.00    +0.000 C 
ATOM     13  C   UNL     1       5.960   4.273  16.274  0.00  0.00    +0.000 C 
ATOM     14  C   UNL     1       7.479   4.384  16.504  0.00  0.00    +0.000 C 
ENDBRANCH   5  13
ENDBRANCH   1   8
BRANCH   2  15
ATOM     15  C   UNL     1       1.533   7.834  20.458  0.00  0.00    +0.000 A 
ATOM     16  C   UNL     1       1.107   8.201  21.747  0.00  0.00    +0.000 A 
ATOM     17  C   UNL     1       0.558   9.462  21.998  0.00  0.00    +0.000 A 
ATOM     18  C   UNL     1       0.429  10.394  20.964  0.00  0.00    +0.000 A 
ATOM     19  C   UNL     1       0.849  10.030  19.674  0.00  0.00    +0.000 A 
ATOM     20  C   UNL     1       1.395   8.761  19.417  0.00  0.00    +0.000 A 
ATOM     21 CL   UNL     1       1.892   8.461  17.788  0.00  0.00    +0.000 Cl
BRANCH  18  22
ATOM     22  C   UNL     1      -0.135  11.772  21.217  0.00  0.00    +0.000 C 
ATOM     23  F   UNL     1      -1.323  11.998  20.592  0.00  0.00    +0.000 F 
ATOM     24  F   UNL     1      -0.357  12.003  22.541  0.00  0.00    +0.000 F 
ATOM     25  F   UNL     1       0.703  12.759  20.799  0.00  0.00    +0.000 F 
ENDBRANCH  18  22
ENDBRANCH   2  15
TORSDOF 4
ENDMDL
MODEL 2
REMARK VINA RESULT:      -6.9      2.104      3.049
REMARK  Name = 
REMARK  6 active torsions:
REMARK  status: ('A' for Active; 'I' for Inactive)
REMARK    1  A    between atoms: C_1  and  C_2
REMARK    2  A    between atoms: C_2  and  C_3
REMARK    3  A    between atoms: C_2  and  N_4
REMARK    4  A    between atoms: C_7  and  N_8
REMARK    5  A    between atoms: C_9  and  C_11
REMARK    6  A    between atoms: C_14  and  C_15
REMARK                            x       y       z     vdW  Elec       q    Type
REMARK                         _______ _______ _______ _____ _____    ______ ____
ROOT
ATOM      1  N   UNL     1       4.913   5.301  18.074  0.00  0.00    +0.000 N 
ATOM      2  C   UNL     1       3.593   5.097  18.392  0.00  0.00    +0.000 C 
ATOM      3  O   UNL     1       3.016   4.041  18.169  0.00  0.00    +0.000 OA
ATOM      4  H   UNL     1       5.338   6.186  18.324  0.00  0.00    +0.000 HD
ENDROOT
BRANCH   1   8
ATOM      5  N   UNL     1       6.418   5.550  14.755  0.00  0.00    +0.000 NA
ATOM      6  C   UNL     1       7.067   5.961  16.016  0.00  0.00    +0.000 C 
ATOM      7  C   UNL     1       7.139   4.875  17.100  0.00  0.00    +0.000 C 
ATOM      8  C   UNL     1       5.749   4.293  17.404  0.00  0.00    +0.000 C 
ATOM      9  C   UNL     1       5.148   3.780  16.086  0.00  0.00    +0.000 C 
ATOM     10  F   UNL     1       5.925   2.759  15.613  0.00  0.00    +0.000 F 
ATOM     11  C   UNL     1       5.110   4.919  15.057  0.00  0.00    +0.000 C 
BRANCH   5  13
ATOM     12  C   UNL     1       6.449   3.927  12.845  0.00  0.00    +0.000 C 
ATOM     13  C   UNL     1       7.280   4.740  13.858  0.00  0.00    +0.000 C 
ATOM     14  C   UNL     1       8.238   5.619  13.030  0.00  0.00    +0.000 C 
ENDBRANCH   5  13
ENDBRANCH   1   8
BRANCH   2  15
ATOM     15  C   UNL     1       2.823   6.254  18.948  0.00  0.00    +0.000 A 
ATOM     16  C   UNL     1       2.765   7.398  18.131  0.00  0.00    +0.000 A 
ATOM     17  C   UNL     1       2.071   8.542  18.534  0.00  0.00    +0.000 A 
ATOM     18  C   UNL     1       1.407   8.568  19.765  0.00  0.00    +0.000 A 
ATOM     19  C   UNL     1       1.466   7.430  20.586  0.00  0.00    +0.000 A 
ATOM     20  C   UNL     1       2.169   6.280  20.187  0.00  0.00    +0.000 A 
ATOM     21 CL   UNL     1       2.135   4.946  21.286  0.00  0.00    +0.000 Cl
BRANCH  18  22
ATOM     22  C   UNL     1       0.627   9.784  20.208  0.00  0.00    +0.000 C 
ATOM     23  F   UNL     1       1.270  10.960  19.972  0.00  0.00    +0.000 F 
ATOM     24  F   UNL     1      -0.577   9.881  19.580  0.00  0.00    +0.000 F 
ATOM     25  F   UNL     1       0.355   9.765  21.542  0.00  0.00    +0.000 F 
ENDBRANCH  18  22
ENDBRANCH   2  15
TORSDOF 4
ENDMDL
MODEL 3
REMARK VINA RESULT:      -6.9      0.718      1.007
REMARK  Name = 
REMARK  6 active torsions:
REMARK  status: ('A' for Active; 'I' for Inactive)
REMARK    1  A    between atoms: C_1  and  C_2
REMARK    2  A    between atoms: C_2  and  C_3
REMARK    3  A    between atoms: C_2  and  N_4
REMARK    4  A    between atoms: C_7  and  N_8
REMARK    5  A    between atoms: C_9  and  C_11
REMARK    6  A    between atoms: C_14  and  C_15
REMARK                            x       y       z     vdW  Elec       q    Type
REMARK                         _______ _______ _______ _____ _____    ______ ____
ROOT
ATOM      1  N   UNL     1       2.953   6.568  19.360  0.00  0.00    +0.000 N 
ATOM      2  C   UNL     1       1.932   6.762  20.256  0.00  0.00    +0.000 C 
ATOM      3  O   UNL     1       1.376   5.838  20.835  0.00  0.00    +0.000 OA
ATOM      4  H   UNL     1       3.395   7.381  18.948  0.00  0.00    +0.000 HD
ENDROOT
BRANCH   1   8
ATOM      5  N   UNL     1       5.870   5.825  17.290  0.00  0.00    +0.000 NA
ATOM      6  C   UNL     1       5.880   5.947  18.761  0.00  0.00    +0.000 C 
ATOM      7  C   UNL     1       4.885   5.039  19.500  0.00  0.00    +0.000 C 
ATOM      8  C   UNL     1       3.453   5.237  18.978  0.00  0.00    +0.000 C 
ATOM      9  C   UNL     1       3.461   5.001  17.460  0.00  0.00    +0.000 C 
ATOM     10  F   UNL     1       3.810   3.701  17.217  0.00  0.00    +0.000 F 
ATOM     11  C   UNL     1       4.476   5.940  16.795  0.00  0.00    +0.000 C 
BRANCH   5  13
ATOM     12  C   UNL     1       6.953   4.798  15.276  0.00  0.00    +0.000 C 
ATOM     13  C   UNL     1       6.595   4.640  16.767  0.00  0.00    +0.000 C 
ATOM     14  C   UNL     1       7.922   4.400  17.511  0.00  0.00    +0.000 C 
ENDBRANCH   5  13
ENDBRANCH   1   8
BRANCH   2  15
ATOM     15  C   UNL     1       1.432   8.160  20.450  0.00  0.00    +0.000 A 
ATOM     16  C   UNL     1       1.120   8.518  21.775  0.00  0.00    +0.000 A 
ATOM     17  C   UNL     1       0.651   9.796  22.089  0.00  0.00    +0.000 A 
ATOM     18  C   UNL     1       0.489  10.756  21.084  0.00  0.00    +0.000 A 
ATOM     19  C   UNL     1       0.795  10.401  19.760  0.00  0.00    +0.000 A 
ATOM     20  C   UNL     1       1.261   9.115  19.439  0.00  0.00    +0.000 A 
ATOM     21 CL   UNL     1       1.621   8.828  17.773  0.00  0.00    +0.000 Cl
BRANCH  18  22
ATOM     22  C   UNL     1       0.010  12.152  21.404  0.00  0.00    +0.000 C 
ATOM     23  F   UNL     1      -0.544  12.268  22.642  0.00  0.00    +0.000 F 
ATOM     24  F   UNL     1       1.018  13.067  21.357  0.00  0.00    +0.000 F 
ATOM     25  F   UNL     1      -0.935  12.588  20.527  0.00  0.00    +0.000 F 
ENDBRANCH  18  22
ENDBRANCH   2  15
TORSDOF 4
ENDMDL
MODEL 4
REMARK VINA RESULT:      -6.8      2.510      3.186
REMARK  Name = 
REMARK  6 active torsions:
REMARK  status: ('A' for Active; 'I' for Inactive)
REMARK    1  A    between atoms: C_1  and  C_2
REMARK    2  A    between atoms: C_2  and  C_3
REMARK    3  A    between atoms: C_2  and  N_4
REMARK    4  A    between atoms: C_7  and  N_8
REMARK    5  A    between atoms: C_9  and  C_11
REMARK    6  A    between atoms: C_14  and  C_15
REMARK                            x       y       z     vdW  Elec       q    Type
REMARK                         _______ _______ _______ _____ _____    ______ ____
ROOT
ATOM      1  N   UNL     1       1.933   7.279  18.835  0.00  0.00    +0.000 N 
ATOM      2  C   UNL     1       1.677   8.588  18.513  0.00  0.00    +0.000 C 
ATOM      3  O   UNL     1       2.171   9.137  17.537  0.00  0.00    +0.000 OA
ATOM      4  H   UNL     1       1.458   6.876  19.634  0.00  0.00    +0.000 HD
ENDROOT
BRANCH   1   8
ATOM      5  N   UNL     1       2.943   3.863  19.644  0.00  0.00    +0.000 NA
ATOM      6  C   UNL     1       1.794   4.231  18.794  0.00  0.00    +0.000 C 
ATOM      7  C   UNL     1       2.125   5.148  17.607  0.00  0.00    +0.000 C 
ATOM      8  C   UNL     1       2.851   6.421  18.068  0.00  0.00    +0.000 C 
ATOM      9  C   UNL     1       4.098   6.000  18.860  0.00  0.00    +0.000 C 
ATOM     10  F   UNL     1       4.945   5.325  18.026  0.00  0.00    +0.000 F 
ATOM     11  C   UNL     1       3.688   5.089  20.026  0.00  0.00    +0.000 C 
BRANCH   5  13
ATOM     12  C   UNL     1       4.553   2.019  20.188  0.00  0.00    +0.000 C 
ATOM     13  C   UNL     1       3.804   2.791  19.084  0.00  0.00    +0.000 C 
ATOM     14  C   UNL     1       2.988   1.747  18.299  0.00  0.00    +0.000 C 
ENDBRANCH   5  13
ENDBRANCH   1   8
BRANCH   2  15
ATOM     15  C   UNL     1       0.830   9.384  19.456  0.00  0.00    +0.000 A 
ATOM     16  C   UNL     1       1.276   9.428  20.790  0.00  0.00    +0.000 A 
ATOM     17  C   UNL     1       0.577  10.144  21.765  0.00  0.00    +0.000 A 
ATOM     18  C   UNL     1      -0.585  10.845  21.429  0.00  0.00    +0.000 A 
ATOM     19  C   UNL     1      -1.037  10.800  20.100  0.00  0.00    +0.000 A 
ATOM     20  C   UNL     1      -0.341  10.076  19.118  0.00  0.00    +0.000 A 
ATOM     21 CL   UNL     1      -0.999  10.131  17.520  0.00  0.00    +0.000 Cl
BRANCH  18  22
ATOM     22  C   UNL     1      -1.342  11.648  22.461  0.00  0.00    +0.000 C 
ATOM     23  F   UNL     1      -1.765  10.910  23.523  0.00  0.00    +0.000 F 
ATOM     24  F   UNL     1      -0.590  12.657  22.981  0.00  0.00    +0.000 F 
ATOM     25  F   UNL     1      -2.454  12.237  21.944  0.00  0.00    +0.000 F 
ENDBRANCH  18  22
ENDBRANCH   2  15
TORSDOF 4
ENDMDL
MODEL 5
REMARK VINA RESULT:      -6.7      4.993      6.860
REMARK  Name = 
REMARK  6 active torsions:
REMARK  status: ('A' for Active; 'I' for Inactive)
REMARK    1  A    between atoms: C_1  and  C_2
REMARK    2  A    between atoms: C_2  and  C_3
REMARK    3  A    between atoms: C_2  and  N_4
REMARK    4  A    between atoms: C_7  and  N_8
REMARK    5  A    between atoms: C_9  and  C_11
REMARK    6  A    between atoms: C_14  and  C_15
REMARK                            x       y       z     vdW  Elec       q    Type
REMARK                         _______ _______ _______ _____ _____    ______ ____
ROOT
ATOM      1  N   UNL     1       4.856   5.456  17.593  0.00  0.00    +0.000 N 
ATOM      2  C   UNL     1       6.204   5.432  17.335  0.00  0.00    +0.000 C 
ATOM      3  O   UNL     1       6.772   4.447  16.882  0.00  0.00    +0.000 OA
ATOM      4  H   UNL     1       4.444   6.319  17.930  0.00  0.00    +0.000 HD
ENDROOT
BRANCH   1   8
ATOM      5  N   UNL     1       2.784   3.804  20.108  0.00  0.00    +0.000 NA
ATOM      6  C   UNL     1       2.344   4.912  19.238  0.00  0.00    +0.000 C 
ATOM      7  C   UNL     1       2.521   4.672  17.731  0.00  0.00    +0.000 C 
ATOM      8  C   UNL     1       3.972   4.297  17.390  0.00  0.00    +0.000 C 
ATOM      9  C   UNL     1       4.362   3.077  18.238  0.00  0.00    +0.000 C 
ATOM     10  F   UNL     1       3.571   2.019  17.881  0.00  0.00    +0.000 F 
ATOM     11  C   UNL     1       4.158   3.393  19.726  0.00  0.00    +0.000 C 
BRANCH   5  13
ATOM     12  C   UNL     1       1.339   2.447  21.642  0.00  0.00    +0.000 C 
ATOM     13  C   UNL     1       1.826   2.674  20.197  0.00  0.00    +0.000 C 
ATOM     14  C   UNL     1       0.565   2.919  19.346  0.00  0.00    +0.000 C 
ENDBRANCH   5  13
ENDBRANCH   1   8
BRANCH   2  15
ATOM     15  C   UNL     1       7.008   6.636  17.715  0.00  0.00    +0.000 A 
ATOM     16  C   UNL     1       6.727   7.810  16.991  0.00  0.00    +0.000 A 
ATOM     17  C   UNL     1       7.405   9.004  17.256  0.00  0.00    +0.000 A 
ATOM     18  C   UNL     1       8.377   9.056  18.259  0.00  0.00    +0.000 A 
ATOM     19  C   UNL     1       8.663   7.886  18.981  0.00  0.00    +0.000 A 
ATOM     20  C   UNL     1       7.989   6.682  18.713  0.00  0.00    +0.000 A 
ATOM     21 CL   UNL     1       8.427   5.329  19.696  0.00  0.00    +0.000 Cl
BRANCH  18  22
ATOM     22  C   UNL     1       9.102  10.342  18.581  0.00  0.00    +0.000 C 
ATOM     23  F   UNL     1       9.408  10.481  19.900  0.00  0.00    +0.000 F 
ATOM     24  F   UNL     1      10.280  10.452  17.908  0.00  0.00    +0.000 F 
ATOM     25  F   UNL     1       8.374  11.443  18.246  0.00  0.00    +0.000 F 
ENDBRANCH  18  22
ENDBRANCH   2  15
TORSDOF 4
ENDMDL
MODEL 6
REMARK VINA RESULT:      -6.7      2.202      8.071
REMARK  Name = 
REMARK  6 active torsions:
REMARK  status: ('A' for Active; 'I' for Inactive)
REMARK    1  A    between atoms: C_1  and  C_2
REMARK    2  A    between atoms: C_2  and  C_3
REMARK    3  A    between atoms: C_2  and  N_4
REMARK    4  A    between atoms: C_7  and  N_8
REMARK    5  A    between atoms: C_9  and  C_11
REMARK    6  A    between atoms: C_14  and  C_15
REMARK                            x       y       z     vdW  Elec       q    Type
REMARK                         _______ _______ _______ _____ _____    ______ ____
ROOT
ATOM      1  N   UNL     1       1.848   7.764  20.547  0.00  0.00    +0.000 N 
ATOM      2  C   UNL     1       2.056   6.448  20.219  0.00  0.00    +0.000 C 
ATOM      3  O   UNL     1       1.397   5.535  20.699  0.00  0.00    +0.000 OA
ATOM      4  H   UNL     1       2.403   8.472  20.080  0.00  0.00    +0.000 HD
ENDROOT
BRANCH   1   8
ATOM      5  N   UNL     1       0.039  10.938  20.575  0.00  0.00    +0.000 NA
ATOM      6  C   UNL     1      -0.428   9.699  19.924  0.00  0.00    +0.000 C 
ATOM      7  C   UNL     1      -0.500   8.466  20.838  0.00  0.00    +0.000 C 
ATOM      8  C   UNL     1       0.846   8.204  21.532  0.00  0.00    +0.000 C 
ATOM      9  C   UNL     1       1.251   9.481  22.285  0.00  0.00    +0.000 C 
ATOM     10  F   UNL     1       0.327   9.730  23.262  0.00  0.00    +0.000 F 
ATOM     11  C   UNL     1       1.300  10.665  21.309  0.00  0.00    +0.000 C 
BRANCH   5  13
ATOM     12  C   UNL     1      -0.405  12.838  22.149  0.00  0.00    +0.000 C 
ATOM     13  C   UNL     1      -0.990  11.629  21.392  0.00  0.00    +0.000 C 
ATOM     14  C   UNL     1      -2.144  12.172  20.528  0.00  0.00    +0.000 C 
ENDBRANCH   5  13
ENDBRANCH   1   8
BRANCH   2  15
ATOM     15  C   UNL     1       3.197   6.130  19.304  0.00  0.00    +0.000 A 
ATOM     16  C   UNL     1       3.988   5.027  19.676  0.00  0.00    +0.000 A 
ATOM     17  C   UNL     1       5.079   4.623  18.902  0.00  0.00    +0.000 A 
ATOM     18  C   UNL     1       5.404   5.310  17.727  0.00  0.00    +0.000 A 
ATOM     19  C   UNL     1       4.621   6.415  17.355  0.00  0.00    +0.000 A 
ATOM     20  C   UNL     1       3.527   6.827  18.135  0.00  0.00    +0.000 A 
ATOM     21 CL   UNL     1       2.638   8.187  17.542  0.00  0.00    +0.000 Cl
BRANCH  18  22
ATOM     22  C   UNL     1       6.562   4.874  16.860  0.00  0.00    +0.000 C 
ATOM     23  F   UNL     1       7.586   4.313  17.560  0.00  0.00    +0.000 F 
ATOM     24  F   UNL     1       6.192   3.951  15.931  0.00  0.00    +0.000 F 
ATOM     25  F   UNL     1       7.106   5.910  16.165  0.00  0.00    +0.000 F 
ENDBRANCH  18  22
ENDBRANCH   2  15
TORSDOF 4
ENDMDL
MODEL 7
REMARK VINA RESULT:      -6.6      2.799      8.425
REMARK  Name = 
REMARK  6 active torsions:
REMARK  status: ('A' for Active; 'I' for Inactive)
REMARK    1  A    between atoms: C_1  and  C_2
REMARK    2  A    between atoms: C_2  and  C_3
REMARK    3  A    between atoms: C_2  and  N_4
REMARK    4  A    between atoms: C_7  and  N_8
REMARK    5  A    between atoms: C_9  and  C_11
REMARK    6  A    between atoms: C_14  and  C_15
REMARK                            x       y       z     vdW  Elec       q    Type
REMARK                         _______ _______ _______ _____ _____    ______ ____
ROOT
ATOM      1  N   UNL     1       0.887   9.607  19.235  0.00  0.00    +0.000 N 
ATOM      2  C   UNL     1       1.821   9.186  18.322  0.00  0.00    +0.000 C 
ATOM      3  O   UNL     1       2.097   9.826  17.316  0.00  0.00    +0.000 OA
ATOM      4  H   UNL     1       0.737   9.047  20.066  0.00  0.00    +0.000 HD
ENDROOT
BRANCH   1   8
ATOM      5  N   UNL     1       0.386  12.226  21.732  0.00  0.00    +0.000 NA
ATOM      6  C   UNL     1       1.467  12.205  20.728  0.00  0.00    +0.000 C 
ATOM      7  C   UNL     1       1.003  12.071  19.269  0.00  0.00    +0.000 C 
ATOM      8  C   UNL     1       0.101  10.842  19.078  0.00  0.00    +0.000 C 
ATOM      9  C   UNL     1      -1.069  10.950  20.068  0.00  0.00    +0.000 C 
ATOM     10  F   UNL     1      -1.812  12.055  19.756  0.00  0.00    +0.000 F 
ATOM     11  C   UNL     1      -0.527  11.080  21.499  0.00  0.00    +0.000 C 
BRANCH   5  13
ATOM     12  C   UNL     1      -1.182  13.597  23.127  0.00  0.00    +0.000 C 
ATOM     13  C   UNL     1      -0.311  13.531  21.857  0.00  0.00    +0.000 C 
ATOM     14  C   UNL     1       0.678  14.708  21.945  0.00  0.00    +0.000 C 
ENDBRANCH   5  13
ENDBRANCH   1   8
BRANCH   2  15
ATOM     15  C   UNL     1       2.449   7.844  18.537  0.00  0.00    +0.000 A 
ATOM     16  C   UNL     1       3.301   7.398  17.510  0.00  0.00    +0.000 A 
ATOM     17  C   UNL     1       3.954   6.165  17.594  0.00  0.00    +0.000 A 
ATOM     18  C   UNL     1       3.778   5.348  18.715  0.00  0.00    +0.000 A 
ATOM     19  C   UNL     1       2.924   5.787  19.740  0.00  0.00    +0.000 A 
ATOM     20  C   UNL     1       2.261   7.023  19.656  0.00  0.00    +0.000 A 
ATOM     21 CL   UNL     1       1.262   7.445  21.003  0.00  0.00    +0.000 Cl
BRANCH  18  22
ATOM     22  C   UNL     1       4.496   4.024  18.840  0.00  0.00    +0.000 C 
ATOM     23  F   UNL     1       5.851   4.141  18.887  0.00  0.00    +0.000 F 
ATOM     24  F   UNL     1       4.137   3.347  19.965  0.00  0.00    +0.000 F 
ATOM     25  F   UNL     1       4.226   3.190  17.798  0.00  0.00    +0.000 F 
ENDBRANCH  18  22
ENDBRANCH   2  15
TORSDOF 4
ENDMDL
MODEL 8
REMARK VINA RESULT:      -6.6      1.937      2.709
REMARK  Name = 
REMARK  6 active torsions:
REMARK  status: ('A' for Active; 'I' for Inactive)
REMARK    1  A    between atoms: C_1  and  C_2
REMARK    2  A    between atoms: C_2  and  C_3
REMARK    3  A    between atoms: C_2  and  N_4
REMARK    4  A    between atoms: C_7  and  N_8
REMARK    5  A    between atoms: C_9  and  C_11
REMARK    6  A    between atoms: C_14  and  C_15
REMARK                            x       y       z     vdW  Elec       q    Type
REMARK                         _______ _______ _______ _____ _____    ______ ____
ROOT
ATOM      1  N   UNL     1       4.874   5.139  18.277  0.00  0.00    +0.000 N 
ATOM      2  C   UNL     1       3.614   4.845  18.734  0.00  0.00    +0.000 C 
ATOM      3  O   UNL     1       3.111   3.735  18.615  0.00  0.00    +0.000 OA
ATOM      4  H   UNL     1       5.244   6.068  18.445  0.00  0.00    +0.000 HD
ENDROOT
BRANCH   1   8
ATOM      5  N   UNL     1       6.331   5.515  14.948  0.00  0.00    +0.000 NA
ATOM      6  C   UNL     1       6.985   5.907  16.211  0.00  0.00    +0.000 C 
ATOM      7  C   UNL     1       7.097   4.793  17.264  0.00  0.00    +0.000 C 
ATOM      8  C   UNL     1       5.725   4.170  17.568  0.00  0.00    +0.000 C 
ATOM      9  C   UNL     1       5.119   3.680  16.244  0.00  0.00    +0.000 C 
ATOM     10  F   UNL     1       5.914   2.691  15.733  0.00  0.00    +0.000 F 
ATOM     11  C   UNL     1       5.041   4.845  15.247  0.00  0.00    +0.000 C 
BRANCH   5  13
ATOM     12  C   UNL     1       6.374   3.934  13.003  0.00  0.00    +0.000 C 
ATOM     13  C   UNL     1       7.199   4.751  14.017  0.00  0.00    +0.000 C 
ATOM     14  C   UNL     1       8.114   5.675  13.192  0.00  0.00    +0.000 C 
ENDBRANCH   5  13
ENDBRANCH   1   8
BRANCH   2  15
ATOM     15  C   UNL     1       2.805   5.961  19.316  0.00  0.00    +0.000 A 
ATOM     16  C   UNL     1       2.128   5.665  20.514  0.00  0.00    +0.000 A 
ATOM     17  C   UNL     1       1.345   6.625  21.161  0.00  0.00    +0.000 A 
ATOM     18  C   UNL     1       1.226   7.913  20.630  0.00  0.00    +0.000 A 
ATOM     19  C   UNL     1       1.896   8.212  19.433  0.00  0.00    +0.000 A 
ATOM     20  C   UNL     1       2.679   7.248  18.776  0.00  0.00    +0.000 A 
ATOM     21 CL   UNL     1       3.466   7.764  17.326  0.00  0.00    +0.000 Cl
BRANCH  18  22
ATOM     22  C   UNL     1       0.408   8.975  21.327  0.00  0.00    +0.000 C 
ATOM     23  F   UNL     1      -0.055   9.943  20.491  0.00  0.00    +0.000 F 
ATOM     24  F   UNL     1      -0.689   8.457  21.946  0.00  0.00    +0.000 F 
ATOM     25  F   UNL     1       1.115   9.620  22.295  0.00  0.00    +0.000 F 
ENDBRANCH  18  22
ENDBRANCH   2  15
TORSDOF 4
ENDMDL
MODEL 9
REMARK VINA RESULT:      -6.6      3.002      8.055
REMARK  Name = 
REMARK  6 active torsions:
REMARK  status: ('A' for Active; 'I' for Inactive)
REMARK    1  A    between atoms: C_1  and  C_2
REMARK    2  A    between atoms: C_2  and  C_3
REMARK    3  A    between atoms: C_2  and  N_4
REMARK    4  A    between atoms: C_7  and  N_8
REMARK    5  A    between atoms: C_9  and  C_11
REMARK    6  A    between atoms: C_14  and  C_15
REMARK                            x       y       z     vdW  Elec       q    Type
REMARK                         _______ _______ _______ _____ _____    ______ ____
ROOT
ATOM      1  N   UNL     1       1.408   8.974  18.957  0.00  0.00    +0.000 N 
ATOM      2  C   UNL     1       2.299   8.177  18.283  0.00  0.00    +0.000 C 
ATOM      3  O   UNL     1       2.825   8.517  17.230  0.00  0.00    +0.000 OA
ATOM      4  H   UNL     1       1.043   8.647  19.843  0.00  0.00    +0.000 HD
ENDROOT
BRANCH   1   8
ATOM      5  N   UNL     1      -0.547  11.460  20.785  0.00  0.00    +0.000 NA
ATOM      6  C   UNL     1       0.927  11.395  20.751  0.00  0.00    +0.000 C 
ATOM      7  C   UNL     1       1.550  11.406  19.347  0.00  0.00    +0.000 C 
ATOM      8  C   UNL     1       0.968  10.290  18.466  0.00  0.00    +0.000 C 
ATOM      9  C   UNL     1      -0.560  10.451  18.440  0.00  0.00    +0.000 C 
ATOM     10  F   UNL     1      -0.869  11.644  17.848  0.00  0.00    +0.000 F 
ATOM     11  C   UNL     1      -1.107  10.430  19.874  0.00  0.00    +0.000 C 
BRANCH   5  13
ATOM     12  C   UNL     1      -2.649  12.804  20.539  0.00  0.00    +0.000 C 
ATOM     13  C   UNL     1      -1.108  12.817  20.569  0.00  0.00    +0.000 C 
ATOM     14  C   UNL     1      -0.702  13.794  21.690  0.00  0.00    +0.000 C 
ENDBRANCH   5  13
ENDBRANCH   1   8
BRANCH   2  15
ATOM     15  C   UNL     1       2.556   6.806  18.825  0.00  0.00    +0.000 A 
ATOM     16  C   UNL     1       1.839   6.465  19.987  0.00  0.00    +0.000 A 
ATOM     17  C   UNL     1       1.985   5.211  20.587  0.00  0.00    +0.000 A 
ATOM     18  C   UNL     1       2.848   4.260  20.034  0.00  0.00    +0.000 A 
ATOM     19  C   UNL     1       3.570   4.598  18.877  0.00  0.00    +0.000 A 
ATOM     20  C   UNL     1       3.431   5.860  18.275  0.00  0.00    +0.000 A 
ATOM     21 CL   UNL     1       4.361   6.127  16.842  0.00  0.00    +0.000 Cl
BRANCH  18  22
ATOM     22  C   UNL     1       3.001   2.889  20.650  0.00  0.00    +0.000 C 
ATOM     23  F   UNL     1       2.659   2.842  21.966  0.00  0.00    +0.000 F 
ATOM     24  F   UNL     1       2.228   1.956  20.028  0.00  0.00    +0.000 F 
ATOM     25  F   UNL     1       4.279   2.428  20.576  0.00  0.00    +0.000 F 
ENDBRANCH  18  22
ENDBRANCH   2  15
TORSDOF 4
ENDMDL
