MODEL 1
REMARK VINA RESULT:      -7.7      0.000      0.000
REMARK  Name = 
REMARK  8 active torsions:
REMARK  status: ('A' for Active; 'I' for Inactive)
REMARK    1  A    between atoms: C_2  and  C_3
REMARK    2  A    between atoms: C_3  and  N_4
REMARK    3  A    between atoms: C_5  and  S_6
REMARK    4  A    between atoms: S_6  and  C_7
REMARK    5  A    between atoms: C_7  and  C_8
REMARK    6  A    between atoms: N_10  and  C_11
REMARK    7  A    between atoms: C_21  and  C_22
REMARK    8  A    between atoms: C_22  and  O_24
REMARK                            x       y       z     vdW  Elec       q    Type
REMARK                         _______ _______ _______ _____ _____    ______ ____
ROOT
ATOM      1  N   UNL     1      -1.000  11.313  19.931  0.00  0.00    +0.000 N 
ATOM      2  C   UNL     1      -0.262  10.371  19.225  0.00  0.00    +0.000 A 
ATOM      3  N   UNL     1      -0.605   9.914  18.062  0.00  0.00    +0.000 NA
ATOM      4  C   UNL     1      -1.773  10.390  17.456  0.00  0.00    +0.000 A 
ATOM      5  C   UNL     1      -2.111   9.958  16.172  0.00  0.00    +0.000 A 
ATOM      6  C   UNL     1      -3.278  10.431  15.539  0.00  0.00    +0.000 A 
ATOM      7  C   UNL     1      -4.106  11.349  16.193  0.00  0.00    +0.000 A 
ATOM      8  C   UNL     1      -3.779  11.770  17.481  0.00  0.00    +0.000 A 
ATOM      9  C   UNL     1      -2.615  11.291  18.097  0.00  0.00    +0.000 A 
ATOM     10  C   UNL     1      -2.222  11.764  19.431  0.00  0.00    +0.000 A 
ATOM     11  O   UNL     1      -2.983  12.526  20.024  0.00  0.00    +0.000 OA
ENDROOT
BRANCH   6  12
ATOM     12  C   UNL     1      -3.553   9.979  14.151  0.00  0.00    +0.000 C 
ATOM     13  O   UNL     1      -4.678   9.725  13.760  0.00  0.00    +0.000 OA
BRANCH  12  14
ATOM     14  O   UNL     1      -2.464   9.884  13.362  0.00  0.00    +0.000 OA
ATOM     15  H   UNL     1      -2.095   8.990  13.246  0.00  0.00    +0.000 HD
ENDBRANCH  12  14
ENDBRANCH   6  12
BRANCH   1  16
ATOM     16  C   UNL     1      -0.598  11.899  21.209  0.00  0.00    +0.000 C 
BRANCH  16  18
ATOM     17  C   UNL     1      -1.966  11.476  23.280  0.00  0.00    +0.000 C 
ATOM     18  C   UNL     1      -1.121  11.045  22.334  0.00  0.00    +0.000 C 
ENDBRANCH  16  18
ENDBRANCH   1  16
BRANCH   2  19
ATOM     19  S   UNL     1       1.226   9.743  19.953  0.00  0.00    +0.000 S 
BRANCH  19  20
ATOM     20  C   UNL     1       1.881   8.774  18.563  0.00  0.00    +0.000 C 
BRANCH  20  21
ATOM     21  C   UNL     1       2.198   7.317  18.870  0.00  0.00    +0.000 C 
ATOM     22  O   UNL     1       2.242   6.960  20.048  0.00  0.00    +0.000 OA
ATOM     23  N   UNL     1       2.366   6.470  17.787  0.00  0.00    +0.000 N 
ATOM     24  H   UNL     1       2.531   6.921  16.893  0.00  0.00    +0.000 HD
BRANCH  23  25
ATOM     25  C   UNL     1       2.608   5.077  17.867  0.00  0.00    +0.000 A 
ATOM     26  C   UNL     1       1.584   4.121  17.877  0.00  0.00    +0.000 A 
ATOM     27  C   UNL     1       1.868   2.767  18.074  0.00  0.00    +0.000 A 
ATOM     28  C   UNL     1       3.183   2.364  18.245  0.00  0.00    +0.000 A 
ATOM     29  F   UNL     1       3.454   1.076  18.490  0.00  0.00    +0.000 F 
ATOM     30  C   UNL     1       4.222   3.284  18.169  0.00  0.00    +0.000 A 
ATOM     31  C   UNL     1       3.937   4.640  17.963  0.00  0.00    +0.000 A 
ENDBRANCH  23  25
ENDBRANCH  20  21
ENDBRANCH  19  20
ENDBRANCH   2  19
TORSDOF 8
ENDMDL
MODEL 2
REMARK VINA RESULT:      -7.6      0.940      1.157
REMARK  Name = 
REMARK  8 active torsions:
REMARK  status: ('A' for Active; 'I' for Inactive)
REMARK    1  A    between atoms: C_2  and  C_3
REMARK    2  A    between atoms: C_3  and  N_4
REMARK    3  A    between atoms: C_5  and  S_6
REMARK    4  A    between atoms: S_6  and  C_7
REMARK    5  A    between atoms: C_7  and  C_8
REMARK    6  A    between atoms: N_10  and  C_11
REMARK    7  A    between atoms: C_21  and  C_22
REMARK    8  A    between atoms: C_22  and  O_24
REMARK                            x       y       z     vdW  Elec       q    Type
REMARK                         _______ _______ _______ _____ _____    ______ ____
ROOT
ATOM      1  N   UNL     1      -0.660  10.838  19.962  0.00  0.00    +0.000 N 
ATOM      2  C   UNL     1      -0.023   9.880  19.182  0.00  0.00    +0.000 A 
ATOM      3  N   UNL     1      -0.439   9.515  18.011  0.00  0.00    +0.000 NA
ATOM      4  C   UNL     1      -1.585  10.112  17.474  0.00  0.00    +0.000 A 
ATOM      5  C   UNL     1      -1.999   9.778  16.183  0.00  0.00    +0.000 A 
ATOM      6  C   UNL     1      -3.145  10.374  15.619  0.00  0.00    +0.000 A 
ATOM      7  C   UNL     1      -3.875  11.318  16.350  0.00  0.00    +0.000 A 
ATOM      8  C   UNL     1      -3.473  11.642  17.645  0.00  0.00    +0.000 A 
ATOM      9  C   UNL     1      -2.331  11.041  18.191  0.00  0.00    +0.000 A 
ATOM     10  C   UNL     1      -1.858  11.408  19.532  0.00  0.00    +0.000 A 
ATOM     11  O   UNL     1      -2.536  12.194  20.192  0.00  0.00    +0.000 OA
ENDROOT
BRANCH   6  12
ATOM     12  C   UNL     1      -3.501  10.021  14.221  0.00  0.00    +0.000 C 
ATOM     13  O   UNL     1      -2.661   9.879  13.351  0.00  0.00    +0.000 OA
BRANCH  12  14
ATOM     14  O   UNL     1      -4.821   9.859  13.999  0.00  0.00    +0.000 OA
ATOM     15  H   UNL     1      -5.327  10.670  13.814  0.00  0.00    +0.000 HD
ENDBRANCH  12  14
ENDBRANCH   6  12
BRANCH   1  16
ATOM     16  C   UNL     1      -0.170  11.320  21.253  0.00  0.00    +0.000 C 
BRANCH  16  18
ATOM     17  C   UNL     1      -0.144   9.675  23.159  0.00  0.00    +0.000 C 
ATOM     18  C   UNL     1      -0.808  10.519  22.358  0.00  0.00    +0.000 C 
ENDBRANCH  16  18
ENDBRANCH   1  16
BRANCH   2  19
ATOM     19  S   UNL     1       1.433   9.100  19.820  0.00  0.00    +0.000 S 
BRANCH  19  20
ATOM     20  C   UNL     1       2.398   8.918  18.292  0.00  0.00    +0.000 C 
BRANCH  20  21
ATOM     21  C   UNL     1       2.910   7.514  18.002  0.00  0.00    +0.000 C 
ATOM     22  O   UNL     1       3.880   7.384  17.254  0.00  0.00    +0.000 OA
ATOM     23  N   UNL     1       2.274   6.468  18.650  0.00  0.00    +0.000 N 
ATOM     24  H   UNL     1       1.365   6.680  19.048  0.00  0.00    +0.000 HD
BRANCH  23  25
ATOM     25  C   UNL     1       2.640   5.102  18.555  0.00  0.00    +0.000 A 
ATOM     26  C   UNL     1       2.072   4.222  17.626  0.00  0.00    +0.000 A 
ATOM     27  C   UNL     1       2.380   2.859  17.647  0.00  0.00    +0.000 A 
ATOM     28  C   UNL     1       3.273   2.377  18.591  0.00  0.00    +0.000 A 
ATOM     29  F   UNL     1       3.529   1.064  18.651  0.00  0.00    +0.000 F 
ATOM     30  C   UNL     1       3.903   3.242  19.478  0.00  0.00    +0.000 A 
ATOM     31  C   UNL     1       3.600   4.609  19.450  0.00  0.00    +0.000 A 
ENDBRANCH  23  25
ENDBRANCH  20  21
ENDBRANCH  19  20
ENDBRANCH   2  19
TORSDOF 8
ENDMDL
MODEL 3
REMARK VINA RESULT:      -7.5      0.785      1.214
REMARK  Name = 
REMARK  8 active torsions:
REMARK  status: ('A' for Active; 'I' for Inactive)
REMARK    1  A    between atoms: C_2  and  C_3
REMARK    2  A    between atoms: C_3  and  N_4
REMARK    3  A    between atoms: C_5  and  S_6
REMARK    4  A    between atoms: S_6  and  C_7
REMARK    5  A    between atoms: C_7  and  C_8
REMARK    6  A    between atoms: N_10  and  C_11
REMARK    7  A    between atoms: C_21  and  C_22
REMARK    8  A    between atoms: C_22  and  O_24
REMARK                            x       y       z     vdW  Elec       q    Type
REMARK                         _______ _______ _______ _____ _____    ______ ____
ROOT
ATOM      1  N   UNL     1      -1.530  11.506  20.110  0.00  0.00    +0.000 N 
ATOM      2  C   UNL     1      -0.669  10.624  19.469  0.00  0.00    +0.000 A 
ATOM      3  N   UNL     1      -0.886  10.141  18.286  0.00  0.00    +0.000 NA
ATOM      4  C   UNL     1      -2.037  10.524  17.590  0.00  0.00    +0.000 A 
ATOM      5  C   UNL     1      -2.243  10.067  16.287  0.00  0.00    +0.000 A 
ATOM      6  C   UNL     1      -3.391  10.447  15.564  0.00  0.00    +0.000 A 
ATOM      7  C   UNL     1      -4.335  11.299  16.147  0.00  0.00    +0.000 A 
ATOM      8  C   UNL     1      -4.141  11.744  17.454  0.00  0.00    +0.000 A 
ATOM      9  C   UNL     1      -2.993  11.358  18.160  0.00  0.00    +0.000 A 
ATOM     10  C   UNL     1      -2.741  11.860  19.516  0.00  0.00    +0.000 A 
ATOM     11  O   UNL     1      -3.602  12.560  20.045  0.00  0.00    +0.000 OA
ENDROOT
BRANCH   6  12
ATOM     12  C   UNL     1      -3.524   9.975  14.162  0.00  0.00    +0.000 C 
ATOM     13  O   UNL     1      -2.562   9.832  13.429  0.00  0.00    +0.000 OA
BRANCH  12  14
ATOM     14  O   UNL     1      -4.786   9.706  13.774  0.00  0.00    +0.000 OA
ATOM     15  H   UNL     1      -5.081   8.784  13.882  0.00  0.00    +0.000 HD
ENDBRANCH  12  14
ENDBRANCH   6  12
BRANCH   1  16
ATOM     16  C   UNL     1      -1.273  12.122  21.412  0.00  0.00    +0.000 C 
BRANCH  16  18
ATOM     17  C   UNL     1       0.588  13.809  21.575  0.00  0.00    +0.000 C 
ATOM     18  C   UNL     1      -0.658  13.481  21.208  0.00  0.00    +0.000 C 
ENDBRANCH  16  18
ENDBRANCH   1  16
BRANCH   2  19
ATOM     19  S   UNL     1       0.803  10.114  20.311  0.00  0.00    +0.000 S 
BRANCH  19  20
ATOM     20  C   UNL     1       1.663   9.251  18.964  0.00  0.00    +0.000 C 
BRANCH  20  21
ATOM     21  C   UNL     1       2.031   7.800  19.243  0.00  0.00    +0.000 C 
ATOM     22  O   UNL     1       1.800   7.339  20.362  0.00  0.00    +0.000 OA
ATOM     23  N   UNL     1       2.559   7.073  18.189  0.00  0.00    +0.000 N 
ATOM     24  H   UNL     1       2.907   7.616  17.406  0.00  0.00    +0.000 HD
BRANCH  23  25
ATOM     25  C   UNL     1       2.908   5.700  18.235  0.00  0.00    +0.000 A 
ATOM     26  C   UNL     1       2.038   4.677  17.841  0.00  0.00    +0.000 A 
ATOM     27  C   UNL     1       2.385   3.333  18.013  0.00  0.00    +0.000 A 
ATOM     28  C   UNL     1       3.614   3.013  18.566  0.00  0.00    +0.000 A 
ATOM     29  F   UNL     1       3.928   1.730  18.785  0.00  0.00    +0.000 F 
ATOM     30  C   UNL     1       4.523   4.010  18.900  0.00  0.00    +0.000 A 
ATOM     31  C   UNL     1       4.178   5.356  18.719  0.00  0.00    +0.000 A 
ENDBRANCH  23  25
ENDBRANCH  20  21
ENDBRANCH  19  20
ENDBRANCH   2  19
TORSDOF 8
ENDMDL
MODEL 4
REMARK VINA RESULT:      -7.5      5.064      9.488
REMARK  Name = 
REMARK  8 active torsions:
REMARK  status: ('A' for Active; 'I' for Inactive)
REMARK    1  A    between atoms: C_2  and  C_3
REMARK    2  A    between atoms: C_3  and  N_4
REMARK    3  A    between atoms: C_5  and  S_6
REMARK    4  A    between atoms: S_6  and  C_7
REMARK    5  A    between atoms: C_7  and  C_8
REMARK    6  A    between atoms: N_10  and  C_11
REMARK    7  A    between atoms: C_21  and  C_22
REMARK    8  A    between atoms: C_22  and  O_24
REMARK                            x       y       z     vdW  Elec       q    Type
REMARK                         _______ _______ _______ _____ _____    ______ ____
ROOT
ATOM      1  N   UNL     1       6.413   5.329  17.653  0.00  0.00    +0.000 N 
ATOM      2  C   UNL     1       5.530   4.256  17.635  0.00  0.00    +0.000 A 
ATOM      3  N   UNL     1       5.235   3.587  16.565  0.00  0.00    +0.000 NA
ATOM      4  C   UNL     1       5.835   3.937  15.350  0.00  0.00    +0.000 A 
ATOM      5  C   UNL     1       5.580   3.176  14.208  0.00  0.00    +0.000 A 
ATOM      6  C   UNL     1       6.181   3.505  12.976  0.00  0.00    +0.000 A 
ATOM      7  C   UNL     1       7.050   4.597  12.891  0.00  0.00    +0.000 A 
ATOM      8  C   UNL     1       7.295   5.369  14.026  0.00  0.00    +0.000 A 
ATOM      9  C   UNL     1       6.690   5.028  15.244  0.00  0.00    +0.000 A 
ATOM     10  C   UNL     1       6.977   5.793  16.464  0.00  0.00    +0.000 A 
ATOM     11  O   UNL     1       7.696   6.786  16.372  0.00  0.00    +0.000 OA
ENDROOT
BRANCH   6  12
ATOM     12  C   UNL     1       5.915   2.623  11.811  0.00  0.00    +0.000 C 
ATOM     13  O   UNL     1       4.826   2.569  11.270  0.00  0.00    +0.000 OA
BRANCH  12  14
ATOM     14  O   UNL     1       6.976   1.901  11.396  0.00  0.00    +0.000 OA
ATOM     15  H   UNL     1       7.158   1.084  11.893  0.00  0.00    +0.000 HD
ENDBRANCH  12  14
ENDBRANCH   6  12
BRANCH   1  16
ATOM     16  C   UNL     1       6.818   6.054  18.857  0.00  0.00    +0.000 C 
BRANCH  16  18
ATOM     17  C   UNL     1       8.511   5.231  20.529  0.00  0.00    +0.000 C 
ATOM     18  C   UNL     1       8.187   5.591  19.280  0.00  0.00    +0.000 C 
ENDBRANCH  16  18
ENDBRANCH   1  16
BRANCH   2  19
ATOM     19  S   UNL     1       4.749   3.776  19.150  0.00  0.00    +0.000 S 
BRANCH  19  20
ATOM     20  C   UNL     1       3.018   3.689  18.607  0.00  0.00    +0.000 C 
BRANCH  20  21
ATOM     21  C   UNL     1       2.318   5.028  18.425  0.00  0.00    +0.000 C 
ATOM     22  O   UNL     1       1.299   5.071  17.733  0.00  0.00    +0.000 OA
ATOM     23  N   UNL     1       2.853   6.112  19.101  0.00  0.00    +0.000 N 
ATOM     24  H   UNL     1       3.801   5.999  19.441  0.00  0.00    +0.000 HD
BRANCH  23  25
ATOM     25  C   UNL     1       2.314   7.423  19.104  0.00  0.00    +0.000 A 
ATOM     26  C   UNL     1       1.622   7.963  20.195  0.00  0.00    +0.000 A 
ATOM     27  C   UNL     1       1.009   9.216  20.108  0.00  0.00    +0.000 A 
ATOM     28  C   UNL     1       1.102   9.939  18.930  0.00  0.00    +0.000 A 
ATOM     29  F   UNL     1       0.470  11.115  18.823  0.00  0.00    +0.000 F 
ATOM     30  C   UNL     1       1.842   9.455  17.857  0.00  0.00    +0.000 A 
ATOM     31  C   UNL     1       2.463   8.203  17.949  0.00  0.00    +0.000 A 
ENDBRANCH  23  25
ENDBRANCH  20  21
ENDBRANCH  19  20
ENDBRANCH   2  19
TORSDOF 8
ENDMDL
MODEL 5
REMARK VINA RESULT:      -7.5      1.265      1.779
REMARK  Name = 
REMARK  8 active torsions:
REMARK  status: ('A' for Active; 'I' for Inactive)
REMARK    1  A    between atoms: C_2  and  C_3
REMARK    2  A    between atoms: C_3  and  N_4
REMARK    3  A    between atoms: C_5  and  S_6
REMARK    4  A    between atoms: S_6  and  C_7
REMARK    5  A    between atoms: C_7  and  C_8
REMARK    6  A    between atoms: N_10  and  C_11
REMARK    7  A    between atoms: C_21  and  C_22
REMARK    8  A    between atoms: C_22  and  O_24
REMARK                            x       y       z     vdW  Elec       q    Type
REMARK                         _______ _______ _______ _____ _____    ______ ____
ROOT
ATOM      1  N   UNL     1      -1.345  11.772  20.087  0.00  0.00    +0.000 N 
ATOM      2  C   UNL     1      -0.423  11.010  19.380  0.00  0.00    +0.000 A 
ATOM      3  N   UNL     1      -0.656  10.505  18.209  0.00  0.00    +0.000 NA
ATOM      4  C   UNL     1      -1.893  10.736  17.597  0.00  0.00    +0.000 A 
ATOM      5  C   UNL     1      -2.125  10.258  16.305  0.00  0.00    +0.000 A 
ATOM      6  C   UNL     1      -3.360  10.488  15.666  0.00  0.00    +0.000 A 
ATOM      7  C   UNL     1      -4.364  11.208  16.321  0.00  0.00    +0.000 A 
ATOM      8  C   UNL     1      -4.141  11.673  17.616  0.00  0.00    +0.000 A 
ATOM      9  C   UNL     1      -2.907  11.438  18.238  0.00  0.00    +0.000 A 
ATOM     10  C   UNL     1      -2.630  11.966  19.580  0.00  0.00    +0.000 A 
ATOM     11  O   UNL     1      -3.536  12.548  20.173  0.00  0.00    +0.000 OA
ENDROOT
BRANCH   6  12
ATOM     12  C   UNL     1      -3.526  10.004  14.271  0.00  0.00    +0.000 C 
ATOM     13  O   UNL     1      -2.579   9.817  13.530  0.00  0.00    +0.000 OA
BRANCH  12  14
ATOM     14  O   UNL     1      -4.802   9.779  13.900  0.00  0.00    +0.000 OA
ATOM     15  H   UNL     1      -5.488  10.209  14.442  0.00  0.00    +0.000 HD
ENDBRANCH  12  14
ENDBRANCH   6  12
BRANCH   1  16
ATOM     16  C   UNL     1      -1.082  12.413  21.375  0.00  0.00    +0.000 C 
BRANCH  16  18
ATOM     17  C   UNL     1      -0.962  10.613  23.131  0.00  0.00    +0.000 C 
ATOM     18  C   UNL     1      -1.649  11.562  22.480  0.00  0.00    +0.000 C 
ENDBRANCH  16  18
ENDBRANCH   1  16
BRANCH   2  19
ATOM     19  S   UNL     1       1.156  10.694  20.115  0.00  0.00    +0.000 S 
BRANCH  19  20
ATOM     20  C   UNL     1       1.090   8.884  20.257  0.00  0.00    +0.000 C 
BRANCH  20  21
ATOM     21  C   UNL     1       1.818   8.112  19.165  0.00  0.00    +0.000 C 
ATOM     22  O   UNL     1       1.953   8.641  18.061  0.00  0.00    +0.000 OA
ATOM     23  N   UNL     1       2.330   6.872  19.509  0.00  0.00    +0.000 N 
ATOM     24  H   UNL     1       1.960   6.459  20.358  0.00  0.00    +0.000 HD
BRANCH  23  25
ATOM     25  C   UNL     1       3.083   6.032  18.653  0.00  0.00    +0.000 A 
ATOM     26  C   UNL     1       4.346   6.380  18.157  0.00  0.00    +0.000 A 
ATOM     27  C   UNL     1       4.999   5.570  17.223  0.00  0.00    +0.000 A 
ATOM     28  C   UNL     1       4.395   4.398  16.798  0.00  0.00    +0.000 A 
ATOM     29  F   UNL     1       4.991   3.647  15.862  0.00  0.00    +0.000 F 
ATOM     30  C   UNL     1       3.175   3.996  17.328  0.00  0.00    +0.000 A 
ATOM     31  C   UNL     1       2.525   4.804  18.269  0.00  0.00    +0.000 A 
ENDBRANCH  23  25
ENDBRANCH  20  21
ENDBRANCH  19  20
ENDBRANCH   2  19
TORSDOF 8
ENDMDL
MODEL 6
REMARK VINA RESULT:      -7.2      5.323      9.472
REMARK  Name = 
REMARK  8 active torsions:
REMARK  status: ('A' for Active; 'I' for Inactive)
REMARK    1  A    between atoms: C_2  and  C_3
REMARK    2  A    between atoms: C_3  and  N_4
REMARK    3  A    between atoms: C_5  and  S_6
REMARK    4  A    between atoms: S_6  and  C_7
REMARK    5  A    between atoms: C_7  and  C_8
REMARK    6  A    between atoms: N_10  and  C_11
REMARK    7  A    between atoms: C_21  and  C_22
REMARK    8  A    between atoms: C_22  and  O_24
REMARK                            x       y       z     vdW  Elec       q    Type
REMARK                         _______ _______ _______ _____ _____    ______ ____
ROOT
ATOM      1  N   UNL     1       2.005   4.237  19.350  0.00  0.00    +0.000 N 
ATOM      2  C   UNL     1       2.514   5.469  19.740  0.00  0.00    +0.000 A 
ATOM      3  N   UNL     1       3.575   6.005  19.222  0.00  0.00    +0.000 NA
ATOM      4  C   UNL     1       4.255   5.330  18.202  0.00  0.00    +0.000 A 
ATOM      5  C   UNL     1       5.355   5.932  17.588  0.00  0.00    +0.000 A 
ATOM      6  C   UNL     1       6.049   5.274  16.553  0.00  0.00    +0.000 A 
ATOM      7  C   UNL     1       5.633   4.009  16.125  0.00  0.00    +0.000 A 
ATOM      8  C   UNL     1       4.545   3.398  16.747  0.00  0.00    +0.000 A 
ATOM      9  C   UNL     1       3.864   4.066  17.774  0.00  0.00    +0.000 A 
ATOM     10  C   UNL     1       2.682   3.466  18.405  0.00  0.00    +0.000 A 
ATOM     11  O   UNL     1       2.356   2.330  18.065  0.00  0.00    +0.000 OA
ENDROOT
BRANCH   6  12
ATOM     12  C   UNL     1       7.175   5.990  15.900  0.00  0.00    +0.000 C 
ATOM     13  O   UNL     1       7.638   5.638  14.830  0.00  0.00    +0.000 OA
BRANCH  12  14
ATOM     14  O   UNL     1       7.631   7.062  16.579  0.00  0.00    +0.000 OA
ATOM     15  H   UNL     1       8.548   7.330  16.390  0.00  0.00    +0.000 HD
ENDBRANCH  12  14
ENDBRANCH   6  12
BRANCH   1  16
ATOM     16  C   UNL     1       0.771   3.645  19.866  0.00  0.00    +0.000 C 
BRANCH  16  18
ATOM     17  C   UNL     1       2.276   2.584  21.583  0.00  0.00    +0.000 C 
ATOM     18  C   UNL     1       1.056   2.964  21.179  0.00  0.00    +0.000 C 
ENDBRANCH  16  18
ENDBRANCH   1  16
BRANCH   2  19
ATOM     19  S   UNL     1       1.684   6.361  21.025  0.00  0.00    +0.000 S 
BRANCH  19  20
ATOM     20  C   UNL     1       1.660   8.026  20.299  0.00  0.00    +0.000 C 
BRANCH  20  21
ATOM     21  C   UNL     1       1.281   9.152  21.251  0.00  0.00    +0.000 C 
ATOM     22  O   UNL     1       1.821   9.195  22.358  0.00  0.00    +0.000 OA
ATOM     23  N   UNL     1       0.380  10.094  20.781  0.00  0.00    +0.000 N 
ATOM     24  H   UNL     1      -0.155   9.825  19.962  0.00  0.00    +0.000 HD
BRANCH  23  25
ATOM     25  C   UNL     1      -0.051  11.241  21.493  0.00  0.00    +0.000 A 
ATOM     26  C   UNL     1      -1.030  11.197  22.493  0.00  0.00    +0.000 A 
ATOM     27  C   UNL     1      -1.505  12.371  23.085  0.00  0.00    +0.000 A 
ATOM     28  C   UNL     1      -0.985  13.592  22.687  0.00  0.00    +0.000 A 
ATOM     29  F   UNL     1      -1.476  14.723  23.211  0.00  0.00    +0.000 F 
ATOM     30  C   UNL     1       0.036  13.656  21.747  0.00  0.00    +0.000 A 
ATOM     31  C   UNL     1       0.517  12.479  21.161  0.00  0.00    +0.000 A 
ENDBRANCH  23  25
ENDBRANCH  20  21
ENDBRANCH  19  20
ENDBRANCH   2  19
TORSDOF 8
ENDMDL
MODEL 7
REMARK VINA RESULT:      -7.2      4.288      9.351
REMARK  Name = 
REMARK  8 active torsions:
REMARK  status: ('A' for Active; 'I' for Inactive)
REMARK    1  A    between atoms: C_2  and  C_3
REMARK    2  A    between atoms: C_3  and  N_4
REMARK    3  A    between atoms: C_5  and  S_6
REMARK    4  A    between atoms: S_6  and  C_7
REMARK    5  A    between atoms: C_7  and  C_8
REMARK    6  A    between atoms: N_10  and  C_11
REMARK    7  A    between atoms: C_21  and  C_22
REMARK    8  A    between atoms: C_22  and  O_24
REMARK                            x       y       z     vdW  Elec       q    Type
REMARK                         _______ _______ _______ _____ _____    ______ ____
ROOT
ATOM      1  N   UNL     1       2.008   4.121  19.269  0.00  0.00    +0.000 N 
ATOM      2  C   UNL     1       2.492   5.377  19.615  0.00  0.00    +0.000 A 
ATOM      3  N   UNL     1       3.540   5.916  19.077  0.00  0.00    +0.000 NA
ATOM      4  C   UNL     1       4.234   5.220  18.081  0.00  0.00    +0.000 A 
ATOM      5  C   UNL     1       5.320   5.823  17.444  0.00  0.00    +0.000 A 
ATOM      6  C   UNL     1       6.027   5.144  16.432  0.00  0.00    +0.000 A 
ATOM      7  C   UNL     1       5.638   3.857  16.049  0.00  0.00    +0.000 A 
ATOM      8  C   UNL     1       4.563   3.245  16.693  0.00  0.00    +0.000 A 
ATOM      9  C   UNL     1       3.870   3.934  17.698  0.00  0.00    +0.000 A 
ATOM     10  C   UNL     1       2.701   3.331  18.351  0.00  0.00    +0.000 A 
ATOM     11  O   UNL     1       2.399   2.178  18.052  0.00  0.00    +0.000 OA
ENDROOT
BRANCH   6  12
ATOM     12  C   UNL     1       7.137   5.861  15.752  0.00  0.00    +0.000 C 
ATOM     13  O   UNL     1       7.528   5.552  14.642  0.00  0.00    +0.000 OA
BRANCH  12  14
ATOM     14  O   UNL     1       7.663   6.883  16.456  0.00  0.00    +0.000 OA
ATOM     15  H   UNL     1       7.619   7.761  16.036  0.00  0.00    +0.000 HD
ENDBRANCH  12  14
ENDBRANCH   6  12
BRANCH   1  16
ATOM     16  C   UNL     1       0.788   3.521  19.808  0.00  0.00    +0.000 C 
BRANCH  16  18
ATOM     17  C   UNL     1       2.285   2.549  21.584  0.00  0.00    +0.000 C 
ATOM     18  C   UNL     1       1.074   2.948  21.171  0.00  0.00    +0.000 C 
ENDBRANCH  16  18
ENDBRANCH   1  16
BRANCH   2  19
ATOM     19  S   UNL     1       1.644   6.295  20.870  0.00  0.00    +0.000 S 
BRANCH  19  20
ATOM     20  C   UNL     1       1.834   7.980  20.220  0.00  0.00    +0.000 C 
BRANCH  20  21
ATOM     21  C   UNL     1       0.686   8.934  20.523  0.00  0.00    +0.000 C 
ATOM     22  O   UNL     1      -0.054   8.681  21.474  0.00  0.00    +0.000 OA
ATOM     23  N   UNL     1       0.585  10.065  19.729  0.00  0.00    +0.000 N 
ATOM     24  H   UNL     1       1.100  10.041  18.856  0.00  0.00    +0.000 HD
BRANCH  23  25
ATOM     25  C   UNL     1      -0.376  11.094  19.890  0.00  0.00    +0.000 A 
ATOM     26  C   UNL     1      -0.272  12.091  20.868  0.00  0.00    +0.000 A 
ATOM     27  C   UNL     1      -1.302  13.016  21.063  0.00  0.00    +0.000 A 
ATOM     28  C   UNL     1      -2.432  12.954  20.264  0.00  0.00    +0.000 A 
ATOM     29  F   UNL     1      -3.445  13.803  20.483  0.00  0.00    +0.000 F 
ATOM     30  C   UNL     1      -2.528  12.019  19.241  0.00  0.00    +0.000 A 
ATOM     31  C   UNL     1      -1.491  11.098  19.041  0.00  0.00    +0.000 A 
ENDBRANCH  23  25
ENDBRANCH  20  21
ENDBRANCH  19  20
ENDBRANCH   2  19
TORSDOF 8
ENDMDL
MODEL 8
REMARK VINA RESULT:      -7.2      4.250      9.325
REMARK  Name = 
REMARK  8 active torsions:
REMARK  status: ('A' for Active; 'I' for Inactive)
REMARK    1  A    between atoms: C_2  and  C_3
REMARK    2  A    between atoms: C_3  and  N_4
REMARK    3  A    between atoms: C_5  and  S_6
REMARK    4  A    between atoms: S_6  and  C_7
REMARK    5  A    between atoms: C_7  and  C_8
REMARK    6  A    between atoms: N_10  and  C_11
REMARK    7  A    between atoms: C_21  and  C_22
REMARK    8  A    between atoms: C_22  and  O_24
REMARK                            x       y       z     vdW  Elec       q    Type
REMARK                         _______ _______ _______ _____ _____    ______ ____
ROOT
ATOM      1  N   UNL     1       2.765   4.750  18.530  0.00  0.00    +0.000 N 
ATOM      2  C   UNL     1       3.211   6.045  18.297  0.00  0.00    +0.000 A 
ATOM      3  N   UNL     1       4.141   6.343  17.446  0.00  0.00    +0.000 NA
ATOM      4  C   UNL     1       4.737   5.322  16.697  0.00  0.00    +0.000 A 
ATOM      5  C   UNL     1       5.688   5.641  15.726  0.00  0.00    +0.000 A 
ATOM      6  C   UNL     1       6.294   4.629  14.954  0.00  0.00    +0.000 A 
ATOM      7  C   UNL     1       5.938   3.291  15.150  0.00  0.00    +0.000 A 
ATOM      8  C   UNL     1       5.001   2.967  16.130  0.00  0.00    +0.000 A 
ATOM      9  C   UNL     1       4.406   3.985  16.889  0.00  0.00    +0.000 A 
ATOM     10  C   UNL     1       3.376   3.672  17.888  0.00  0.00    +0.000 A 
ATOM     11  O   UNL     1       3.110   2.491  18.097  0.00  0.00    +0.000 OA
ENDROOT
BRANCH   6  12
ATOM     12  C   UNL     1       7.255   5.037  13.897  0.00  0.00    +0.000 C 
ATOM     13  O   UNL     1       8.212   5.753  14.128  0.00  0.00    +0.000 OA
BRANCH  12  14
ATOM     14  O   UNL     1       6.990   4.542  12.672  0.00  0.00    +0.000 OA
ATOM     15  H   UNL     1       7.661   3.944  12.297  0.00  0.00    +0.000 HD
ENDBRANCH  12  14
ENDBRANCH   6  12
BRANCH   1  16
ATOM     16  C   UNL     1       1.668   4.395  19.430  0.00  0.00    +0.000 C 
BRANCH  16  18
ATOM     17  C   UNL     1       1.791   3.092  21.580  0.00  0.00    +0.000 C 
ATOM     18  C   UNL     1       2.224   4.087  20.795  0.00  0.00    +0.000 C 
ENDBRANCH  16  18
ENDBRANCH   1  16
BRANCH   2  19
ATOM     19  S   UNL     1       2.483   7.369  19.220  0.00  0.00    +0.000 S 
BRANCH  19  20
ATOM     20  C   UNL     1       2.343   8.630  17.920  0.00  0.00    +0.000 C 
BRANCH  20  21
ATOM     21  C   UNL     1       1.496   9.845  18.272  0.00  0.00    +0.000 C 
ATOM     22  O   UNL     1       1.964  10.967  18.071  0.00  0.00    +0.000 OA
ATOM     23  N   UNL     1       0.220   9.602  18.752  0.00  0.00    +0.000 N 
ATOM     24  H   UNL     1       0.043   8.660  19.082  0.00  0.00    +0.000 HD
BRANCH  23  25
ATOM     25  C   UNL     1      -0.735  10.596  19.078  0.00  0.00    +0.000 A 
ATOM     26  C   UNL     1      -0.734  11.286  20.297  0.00  0.00    +0.000 A 
ATOM     27  C   UNL     1      -1.764  12.174  20.620  0.00  0.00    +0.000 A 
ATOM     28  C   UNL     1      -2.790  12.386  19.713  0.00  0.00    +0.000 A 
ATOM     29  F   UNL     1      -3.808  13.193  20.041  0.00  0.00    +0.000 F 
ATOM     30  C   UNL     1      -2.777  11.767  18.469  0.00  0.00    +0.000 A 
ATOM     31  C   UNL     1      -1.739  10.884  18.143  0.00  0.00    +0.000 A 
ENDBRANCH  23  25
ENDBRANCH  20  21
ENDBRANCH  19  20
ENDBRANCH   2  19
TORSDOF 8
ENDMDL
MODEL 9
REMARK VINA RESULT:      -7.2      1.361      1.394
REMARK  Name = 
REMARK  8 active torsions:
REMARK  status: ('A' for Active; 'I' for Inactive)
REMARK    1  A    between atoms: C_2  and  C_3
REMARK    2  A    between atoms: C_3  and  N_4
REMARK    3  A    between atoms: C_5  and  S_6
REMARK    4  A    between atoms: S_6  and  C_7
REMARK    5  A    between atoms: C_7  and  C_8
REMARK    6  A    between atoms: N_10  and  C_11
REMARK    7  A    between atoms: C_21  and  C_22
REMARK    8  A    between atoms: C_22  and  O_24
REMARK                            x       y       z     vdW  Elec       q    Type
REMARK                         _______ _______ _______ _____ _____    ______ ____
ROOT
ATOM      1  N   UNL     1      -1.412  11.604  19.889  0.00  0.00    +0.000 N 
ATOM      2  C   UNL     1      -0.549  10.741  19.224  0.00  0.00    +0.000 A 
ATOM      3  N   UNL     1      -0.798  10.235  18.057  0.00  0.00    +0.000 NA
ATOM      4  C   UNL     1      -1.990  10.570  17.405  0.00  0.00    +0.000 A 
ATOM      5  C   UNL     1      -2.233  10.088  16.117  0.00  0.00    +0.000 A 
ATOM      6  C   UNL     1      -3.423  10.420  15.438  0.00  0.00    +0.000 A 
ATOM      7  C   UNL     1      -4.370  11.248  16.050  0.00  0.00    +0.000 A 
ATOM      8  C   UNL     1      -4.137  11.718  17.341  0.00  0.00    +0.000 A 
ATOM      9  C   UNL     1      -2.949  11.380  18.003  0.00  0.00    +0.000 A 
ATOM     10  C   UNL     1      -2.658  11.909  19.342  0.00  0.00    +0.000 A 
ATOM     11  O   UNL     1      -3.519  12.588  19.897  0.00  0.00    +0.000 OA
ENDROOT
BRANCH   6  12
ATOM     12  C   UNL     1      -3.597   9.924  14.049  0.00  0.00    +0.000 C 
ATOM     13  O   UNL     1      -4.688   9.633  13.594  0.00  0.00    +0.000 OA
BRANCH  12  14
ATOM     14  O   UNL     1      -2.458   9.835  13.334  0.00  0.00    +0.000 OA
ATOM     15  H   UNL     1      -1.880  10.619  13.350  0.00  0.00    +0.000 HD
ENDBRANCH  12  14
ENDBRANCH   6  12
BRANCH   1  16
ATOM     16  C   UNL     1      -1.123  12.245  21.171  0.00  0.00    +0.000 C 
BRANCH  16  18
ATOM     17  C   UNL     1      -1.036  10.728  23.179  0.00  0.00    +0.000 C 
ATOM     18  C   UNL     1      -1.737  11.436  22.283  0.00  0.00    +0.000 C 
ENDBRANCH  16  18
ENDBRANCH   1  16
BRANCH   2  19
ATOM     19  S   UNL     1       0.972  10.292  20.010  0.00  0.00    +0.000 S 
BRANCH  19  20
ATOM     20  C   UNL     1       1.880   9.611  18.592  0.00  0.00    +0.000 C 
BRANCH  20  21
ATOM     21  C   UNL     1       1.996   8.093  18.554  0.00  0.00    +0.000 C 
ATOM     22  O   UNL     1       1.845   7.518  17.475  0.00  0.00    +0.000 OA
ATOM     23  N   UNL     1       2.319   7.459  19.742  0.00  0.00    +0.000 N 
ATOM     24  H   UNL     1       2.191   8.007  20.586  0.00  0.00    +0.000 HD
BRANCH  23  25
ATOM     25  C   UNL     1       2.526   6.066  19.897  0.00  0.00    +0.000 A 
ATOM     26  C   UNL     1       1.576   5.210  20.468  0.00  0.00    +0.000 A 
ATOM     27  C   UNL     1       1.873   3.864  20.705  0.00  0.00    +0.000 A 
ATOM     28  C   UNL     1       3.118   3.369  20.353  0.00  0.00    +0.000 A 
ATOM     29  F   UNL     1       3.426   2.095  20.629  0.00  0.00    +0.000 F 
ATOM     30  C   UNL     1       4.052   4.182  19.721  0.00  0.00    +0.000 A 
ATOM     31  C   UNL     1       3.751   5.528  19.476  0.00  0.00    +0.000 A 
ENDBRANCH  23  25
ENDBRANCH  20  21
ENDBRANCH  19  20
ENDBRANCH   2  19
TORSDOF 8
ENDMDL
