MODEL 1
REMARK VINA RESULT:      -7.6      0.000      0.000
REMARK  Name = 
REMARK  10 active torsions:
REMARK  status: ('A' for Active; 'I' for Inactive)
REMARK    1  A    between atoms: C_1  and  C_2
REMARK    2  A    between atoms: C_2  and  C_3
REMARK    3  A    between atoms: C_3  and  N_4
REMARK    4  A    between atoms: N_4  and  C_5
REMARK    5  A    between atoms: N_4  and  C_8
REMARK    6  A    between atoms: C_5  and  C_6
REMARK    7  A    between atoms: C_6  and  C_7
REMARK    8  A    between atoms: C_8  and  C_9
REMARK    9  A    between atoms: C_16  and  C_17
REMARK   10  A    between atoms: C_19  and  C_20
REMARK                            x       y       z     vdW  Elec       q    Type
REMARK                         _______ _______ _______ _____ _____    ______ ____
ROOT
ATOM      1  C   UNL     1       4.021   4.975  17.369  0.00  0.00    +0.000 A 
ATOM      2  C   UNL     1       3.909   6.314  17.289  0.00  0.00    +0.000 A 
ATOM      3  C   UNL     1       3.104   7.145  18.179  0.00  0.00    +0.000 A 
ATOM      4  O   UNL     1       2.971   8.345  17.976  0.00  0.00    +0.000 OA
ATOM      5  O   UNL     1       2.539   6.502  19.253  0.00  0.00    +0.000 OA
ATOM      6  C   UNL     1       2.634   5.100  19.401  0.00  0.00    +0.000 A 
ATOM      7  C   UNL     1       1.964   4.623  20.533  0.00  0.00    +0.000 A 
ATOM      8  C   UNL     1       1.938   3.263  20.794  0.00  0.00    +0.000 A 
ATOM      9  C   UNL     1       1.215   2.714  21.987  0.00  0.00    +0.000 C 
ATOM     10  C   UNL     1       2.580   2.409  19.895  0.00  0.00    +0.000 A 
ATOM     11  C   UNL     1       3.258   2.885  18.741  0.00  0.00    +0.000 A 
ATOM     12  C   UNL     1       3.851   1.817  17.862  0.00  0.00    +0.000 C 
ATOM     13  C   UNL     1       3.317   4.275  18.481  0.00  0.00    +0.000 A 
ENDROOT
BRANCH   1  14
ATOM     14  C   UNL     1       4.961   4.315  16.374  0.00  0.00    +0.000 C 
BRANCH  14  15
ATOM     15  N   UNL     1       6.257   5.001  16.132  0.00  0.00    +0.000 NA
BRANCH  15  16
ATOM     16  C   UNL     1       7.219   4.656  17.211  0.00  0.00    +0.000 C 
BRANCH  16  18
ATOM     17  C   UNL     1       7.548   7.148  17.655  0.00  0.00    +0.000 C 
ATOM     18  C   UNL     1       7.571   5.743  18.237  0.00  0.00    +0.000 C 
ENDBRANCH  16  18
ENDBRANCH  15  16
BRANCH  15  19
ATOM     19  C   UNL     1       6.810   4.605  14.812  0.00  0.00    +0.000 C 
BRANCH  19  20
ATOM     20  C   UNL     1       5.783   4.050  13.811  0.00  0.00    +0.000 C 
ATOM     21  C   UNL     1       6.456   3.613  12.519  0.00  0.00    +0.000 C 
ENDBRANCH  19  20
ENDBRANCH  15  19
ENDBRANCH  14  15
ENDBRANCH   1  14
TORSDOF 6
ENDMDL
MODEL 2
REMARK VINA RESULT:      -7.2      0.851      2.664
REMARK  Name = 
REMARK  10 active torsions:
REMARK  status: ('A' for Active; 'I' for Inactive)
REMARK    1  A    between atoms: C_1  and  C_2
REMARK    2  A    between atoms: C_2  and  C_3
REMARK    3  A    between atoms: C_3  and  N_4
REMARK    4  A    between atoms: N_4  and  C_5
REMARK    5  A    between atoms: N_4  and  C_8
REMARK    6  A    between atoms: C_5  and  C_6
REMARK    7  A    between atoms: C_6  and  C_7
REMARK    8  A    between atoms: C_8  and  C_9
REMARK    9  A    between atoms: C_16  and  C_17
REMARK   10  A    between atoms: C_19  and  C_20
REMARK                            x       y       z     vdW  Elec       q    Type
REMARK                         _______ _______ _______ _____ _____    ______ ____
ROOT
ATOM      1  C   UNL     1       3.775   5.957  17.524  0.00  0.00    +0.000 A 
ATOM      2  C   UNL     1       3.460   7.264  17.609  0.00  0.00    +0.000 A 
ATOM      3  C   UNL     1       2.543   7.845  18.584  0.00  0.00    +0.000 A 
ATOM      4  O   UNL     1       2.228   9.027  18.530  0.00  0.00    +0.000 OA
ATOM      5  O   UNL     1       2.090   6.995  19.564  0.00  0.00    +0.000 OA
ATOM      6  C   UNL     1       2.399   5.616  19.539  0.00  0.00    +0.000 A 
ATOM      7  C   UNL     1       1.817   4.907  20.595  0.00  0.00    +0.000 A 
ATOM      8  C   UNL     1       2.000   3.537  20.686  0.00  0.00    +0.000 A 
ATOM      9  C   UNL     1       1.378   2.741  21.793  0.00  0.00    +0.000 C 
ATOM     10  C   UNL     1       2.759   2.908  19.696  0.00  0.00    +0.000 A 
ATOM     11  C   UNL     1       3.349   3.622  18.618  0.00  0.00    +0.000 A 
ATOM     12  C   UNL     1       4.092   2.774  17.621  0.00  0.00    +0.000 C 
ATOM     13  C   UNL     1       3.193   5.026  18.532  0.00  0.00    +0.000 A 
ENDROOT
BRANCH   1  14
ATOM     14  C   UNL     1       4.798   5.577  16.467  0.00  0.00    +0.000 C 
BRANCH  14  15
ATOM     15  N   UNL     1       6.200   5.410  16.931  0.00  0.00    +0.000 NA
BRANCH  15  16
ATOM     16  C   UNL     1       6.946   4.545  15.980  0.00  0.00    +0.000 C 
BRANCH  16  18
ATOM     17  C   UNL     1       6.561   4.217  13.478  0.00  0.00    +0.000 C 
ATOM     18  C   UNL     1       6.146   3.822  14.886  0.00  0.00    +0.000 C 
ENDBRANCH  16  18
ENDBRANCH  15  16
BRANCH  15  19
ATOM     19  C   UNL     1       6.865   6.732  17.044  0.00  0.00    +0.000 C 
BRANCH  19  20
ATOM     20  C   UNL     1       7.787   6.900  18.263  0.00  0.00    +0.000 C 
ATOM     21  C   UNL     1       7.593   5.766  19.259  0.00  0.00    +0.000 C 
ENDBRANCH  19  20
ENDBRANCH  15  19
ENDBRANCH  14  15
ENDBRANCH   1  14
TORSDOF 6
ENDMDL
MODEL 3
REMARK VINA RESULT:      -7.2      1.828      4.214
REMARK  Name = 
REMARK  10 active torsions:
REMARK  status: ('A' for Active; 'I' for Inactive)
REMARK    1  A    between atoms: C_1  and  C_2
REMARK    2  A    between atoms: C_2  and  C_3
REMARK    3  A    between atoms: C_3  and  N_4
REMARK    4  A    between atoms: N_4  and  C_5
REMARK    5  A    between atoms: N_4  and  C_8
REMARK    6  A    between atoms: C_5  and  C_6
REMARK    7  A    between atoms: C_6  and  C_7
REMARK    8  A    between atoms: C_8  and  C_9
REMARK    9  A    between atoms: C_16  and  C_17
REMARK   10  A    between atoms: C_19  and  C_20
REMARK                            x       y       z     vdW  Elec       q    Type
REMARK                         _______ _______ _______ _____ _____    ______ ____
ROOT
ATOM      1  C   UNL     1       4.136   4.184  17.157  0.00  0.00    +0.000 A 
ATOM      2  C   UNL     1       4.027   2.870  17.430  0.00  0.00    +0.000 A 
ATOM      3  C   UNL     1       3.371   2.307  18.605  0.00  0.00    +0.000 A 
ATOM      4  O   UNL     1       3.406   1.104  18.834  0.00  0.00    +0.000 OA
ATOM      5  O   UNL     1       2.702   3.201  19.406  0.00  0.00    +0.000 OA
ATOM      6  C   UNL     1       2.764   4.591  19.163  0.00  0.00    +0.000 A 
ATOM      7  C   UNL     1       2.053   5.343  20.105  0.00  0.00    +0.000 A 
ATOM      8  C   UNL     1       2.049   6.725  20.019  0.00  0.00    +0.000 A 
ATOM      9  C   UNL     1       1.314   7.564  21.021  0.00  0.00    +0.000 C 
ATOM     10  C   UNL     1       2.778   7.322  18.988  0.00  0.00    +0.000 A 
ATOM     11  C   UNL     1       3.506   6.566  18.031  0.00  0.00    +0.000 A 
ATOM     12  C   UNL     1       4.270   7.379  17.021  0.00  0.00    +0.000 C 
ATOM     13  C   UNL     1       3.492   5.151  18.091  0.00  0.00    +0.000 A 
ENDROOT
BRANCH   1  14
ATOM     14  C   UNL     1       4.810   4.548  15.845  0.00  0.00    +0.000 C 
BRANCH  14  15
ATOM     15  N   UNL     1       6.235   4.152  15.700  0.00  0.00    +0.000 NA
BRANCH  15  16
ATOM     16  C   UNL     1       6.592   4.076  14.259  0.00  0.00    +0.000 C 
BRANCH  16  18
ATOM     17  C   UNL     1       5.842   3.034  12.053  0.00  0.00    +0.000 C 
ATOM     18  C   UNL     1       5.454   3.895  13.244  0.00  0.00    +0.000 C 
ENDBRANCH  16  18
ENDBRANCH  15  16
BRANCH  15  19
ATOM     19  C   UNL     1       7.113   5.128  16.391  0.00  0.00    +0.000 C 
BRANCH  19  20
ATOM     20  C   UNL     1       7.650   4.675  17.759  0.00  0.00    +0.000 C 
ATOM     21  C   UNL     1       7.595   5.808  18.773  0.00  0.00    +0.000 C 
ENDBRANCH  19  20
ENDBRANCH  15  19
ENDBRANCH  14  15
ENDBRANCH   1  14
TORSDOF 6
ENDMDL
MODEL 4
REMARK VINA RESULT:      -7.1      2.233      5.856
REMARK  Name = 
REMARK  10 active torsions:
REMARK  status: ('A' for Active; 'I' for Inactive)
REMARK    1  A    between atoms: C_1  and  C_2
REMARK    2  A    between atoms: C_2  and  C_3
REMARK    3  A    between atoms: C_3  and  N_4
REMARK    4  A    between atoms: N_4  and  C_5
REMARK    5  A    between atoms: N_4  and  C_8
REMARK    6  A    between atoms: C_5  and  C_6
REMARK    7  A    between atoms: C_6  and  C_7
REMARK    8  A    between atoms: C_8  and  C_9
REMARK    9  A    between atoms: C_16  and  C_17
REMARK   10  A    between atoms: C_19  and  C_20
REMARK                            x       y       z     vdW  Elec       q    Type
REMARK                         _______ _______ _______ _____ _____    ______ ____
ROOT
ATOM      1  C   UNL     1       5.538   5.278  18.406  0.00  0.00    +0.000 A 
ATOM      2  C   UNL     1       6.422   6.201  18.830  0.00  0.00    +0.000 A 
ATOM      3  C   UNL     1       7.542   6.714  18.047  0.00  0.00    +0.000 A 
ATOM      4  O   UNL     1       8.363   7.476  18.542  0.00  0.00    +0.000 OA
ATOM      5  O   UNL     1       7.591   6.312  16.735  0.00  0.00    +0.000 OA
ATOM      6  C   UNL     1       6.682   5.357  16.225  0.00  0.00    +0.000 A 
ATOM      7  C   UNL     1       6.913   5.045  14.881  0.00  0.00    +0.000 A 
ATOM      8  C   UNL     1       6.124   4.098  14.251  0.00  0.00    +0.000 A 
ATOM      9  C   UNL     1       6.354   3.724  12.818  0.00  0.00    +0.000 C 
ATOM     10  C   UNL     1       5.122   3.474  14.998  0.00  0.00    +0.000 A 
ATOM     11  C   UNL     1       4.884   3.783  16.364  0.00  0.00    +0.000 A 
ATOM     12  C   UNL     1       3.795   2.978  17.021  0.00  0.00    +0.000 C 
ATOM     13  C   UNL     1       5.666   4.771  17.010  0.00  0.00    +0.000 A 
ENDROOT
BRANCH   1  14
ATOM     14  C   UNL     1       4.413   4.929  19.366  0.00  0.00    +0.000 C 
BRANCH  14  15
ATOM     15  N   UNL     1       3.367   5.965  19.566  0.00  0.00    +0.000 NA
BRANCH  15  16
ATOM     16  C   UNL     1       2.782   6.350  18.255  0.00  0.00    +0.000 C 
BRANCH  16  18
ATOM     17  C   UNL     1       1.837   8.698  17.921  0.00  0.00    +0.000 C 
ATOM     18  C   UNL     1       3.034   7.777  17.746  0.00  0.00    +0.000 C 
ENDBRANCH  16  18
ENDBRANCH  15  16
BRANCH  15  19
ATOM     19  C   UNL     1       2.304   5.455  20.467  0.00  0.00    +0.000 C 
BRANCH  19  20
ATOM     20  C   UNL     1       1.423   4.340  19.878  0.00  0.00    +0.000 C 
ATOM     21  C   UNL     1       1.287   3.176  20.848  0.00  0.00    +0.000 C 
ENDBRANCH  19  20
ENDBRANCH  15  19
ENDBRANCH  14  15
ENDBRANCH   1  14
TORSDOF 6
ENDMDL
MODEL 5
REMARK VINA RESULT:      -6.9      1.191      2.923
REMARK  Name = 
REMARK  10 active torsions:
REMARK  status: ('A' for Active; 'I' for Inactive)
REMARK    1  A    between atoms: C_1  and  C_2
REMARK    2  A    between atoms: C_2  and  C_3
REMARK    3  A    between atoms: C_3  and  N_4
REMARK    4  A    between atoms: N_4  and  C_5
REMARK    5  A    between atoms: N_4  and  C_8
REMARK    6  A    between atoms: C_5  and  C_6
REMARK    7  A    between atoms: C_6  and  C_7
REMARK    8  A    between atoms: C_8  and  C_9
REMARK    9  A    between atoms: C_16  and  C_17
REMARK   10  A    between atoms: C_19  and  C_20
REMARK                            x       y       z     vdW  Elec       q    Type
REMARK                         _______ _______ _______ _____ _____    ______ ____
ROOT
ATOM      1  C   UNL     1       3.379   6.402  17.821  0.00  0.00    +0.000 A 
ATOM      2  C   UNL     1       2.940   7.652  18.067  0.00  0.00    +0.000 A 
ATOM      3  C   UNL     1       2.015   8.023  19.132  0.00  0.00    +0.000 A 
ATOM      4  O   UNL     1       1.583   9.166  19.225  0.00  0.00    +0.000 OA
ATOM      5  O   UNL     1       1.692   7.028  20.022  0.00  0.00    +0.000 OA
ATOM      6  C   UNL     1       2.134   5.700  19.828  0.00  0.00    +0.000 A 
ATOM      7  C   UNL     1       1.672   4.820  20.814  0.00  0.00    +0.000 A 
ATOM      8  C   UNL     1       1.994   3.475  20.740  0.00  0.00    +0.000 A 
ATOM      9  C   UNL     1       1.503   2.502  21.767  0.00  0.00    +0.000 C 
ATOM     10  C   UNL     1       2.766   3.043  19.660  0.00  0.00    +0.000 A 
ATOM     11  C   UNL     1       3.234   3.928  18.652  0.00  0.00    +0.000 A 
ATOM     12  C   UNL     1       4.012   3.278  17.540  0.00  0.00    +0.000 C 
ATOM     13  C   UNL     1       2.937   5.310  18.734  0.00  0.00    +0.000 A 
ENDROOT
BRANCH   1  14
ATOM     14  C   UNL     1       4.386   6.250  16.694  0.00  0.00    +0.000 C 
BRANCH  14  15
ATOM     15  N   UNL     1       5.815   6.153  17.091  0.00  0.00    +0.000 NA
BRANCH  15  16
ATOM     16  C   UNL     1       6.581   5.431  16.041  0.00  0.00    +0.000 C 
BRANCH  16  18
ATOM     17  C   UNL     1       6.577   3.986  13.937  0.00  0.00    +0.000 C 
ATOM     18  C   UNL     1       5.843   5.037  14.753  0.00  0.00    +0.000 C 
ENDBRANCH  16  18
ENDBRANCH  15  16
BRANCH  15  19
ATOM     19  C   UNL     1       6.385   7.507  17.295  0.00  0.00    +0.000 C 
BRANCH  19  20
ATOM     20  C   UNL     1       7.867   7.540  17.707  0.00  0.00    +0.000 C 
ATOM     21  C   UNL     1       8.310   8.955  18.052  0.00  0.00    +0.000 C 
ENDBRANCH  19  20
ENDBRANCH  15  19
ENDBRANCH  14  15
ENDBRANCH   1  14
TORSDOF 6
ENDMDL
MODEL 6
REMARK VINA RESULT:      -6.8      1.840      4.148
REMARK  Name = 
REMARK  10 active torsions:
REMARK  status: ('A' for Active; 'I' for Inactive)
REMARK    1  A    between atoms: C_1  and  C_2
REMARK    2  A    between atoms: C_2  and  C_3
REMARK    3  A    between atoms: C_3  and  N_4
REMARK    4  A    between atoms: N_4  and  C_5
REMARK    5  A    between atoms: N_4  and  C_8
REMARK    6  A    between atoms: C_5  and  C_6
REMARK    7  A    between atoms: C_6  and  C_7
REMARK    8  A    between atoms: C_8  and  C_9
REMARK    9  A    between atoms: C_16  and  C_17
REMARK   10  A    between atoms: C_19  and  C_20
REMARK                            x       y       z     vdW  Elec       q    Type
REMARK                         _______ _______ _______ _____ _____    ______ ____
ROOT
ATOM      1  C   UNL     1       4.149   4.730  18.074  0.00  0.00    +0.000 A 
ATOM      2  C   UNL     1       4.339   3.505  18.598  0.00  0.00    +0.000 A 
ATOM      3  C   UNL     1       3.823   3.052  19.886  0.00  0.00    +0.000 A 
ATOM      4  O   UNL     1       4.128   1.956  20.339  0.00  0.00    +0.000 OA
ATOM      5  O   UNL     1       2.966   3.914  20.526  0.00  0.00    +0.000 OA
ATOM      6  C   UNL     1       2.713   5.208  20.018  0.00  0.00    +0.000 A 
ATOM      7  C   UNL     1       1.847   5.953  20.827  0.00  0.00    +0.000 A 
ATOM      8  C   UNL     1       1.532   7.255  20.478  0.00  0.00    +0.000 A 
ATOM      9  C   UNL     1       0.623   8.089  21.329  0.00  0.00    +0.000 C 
ATOM     10  C   UNL     1       2.111   7.785  19.323  0.00  0.00    +0.000 A 
ATOM     11  C   UNL     1       2.994   7.037  18.500  0.00  0.00    +0.000 A 
ATOM     12  C   UNL     1       3.559   7.785  17.322  0.00  0.00    +0.000 C 
ATOM     13  C   UNL     1       3.300   5.694  18.830  0.00  0.00    +0.000 A 
ENDROOT
BRANCH   1  14
ATOM     14  C   UNL     1       4.729   4.971  16.690  0.00  0.00    +0.000 C 
BRANCH  14  15
ATOM     15  N   UNL     1       6.120   4.501  16.464  0.00  0.00    +0.000 NA
BRANCH  15  16
ATOM     16  C   UNL     1       6.169   3.635  15.257  0.00  0.00    +0.000 C 
BRANCH  16  18
ATOM     17  C   UNL     1       6.235   3.547  12.707  0.00  0.00    +0.000 C 
ATOM     18  C   UNL     1       5.634   4.208  13.937  0.00  0.00    +0.000 C 
ENDBRANCH  16  18
ENDBRANCH  15  16
BRANCH  15  19
ATOM     19  C   UNL     1       7.033   5.659  16.295  0.00  0.00    +0.000 C 
BRANCH  19  20
ATOM     20  C   UNL     1       7.045   6.660  17.464  0.00  0.00    +0.000 C 
ATOM     21  C   UNL     1       7.705   6.057  18.696  0.00  0.00    +0.000 C 
ENDBRANCH  19  20
ENDBRANCH  15  19
ENDBRANCH  14  15
ENDBRANCH   1  14
TORSDOF 6
ENDMDL
MODEL 7
REMARK VINA RESULT:      -6.8      1.936      4.366
REMARK  Name = 
REMARK  10 active torsions:
REMARK  status: ('A' for Active; 'I' for Inactive)
REMARK    1  A    between atoms: C_1  and  C_2
REMARK    2  A    between atoms: C_2  and  C_3
REMARK    3  A    between atoms: C_3  and  N_4
REMARK    4  A    between atoms: N_4  and  C_5
REMARK    5  A    between atoms: N_4  and  C_8
REMARK    6  A    between atoms: C_5  and  C_6
REMARK    7  A    between atoms: C_6  and  C_7
REMARK    8  A    between atoms: C_8  and  C_9
REMARK    9  A    between atoms: C_16  and  C_17
REMARK   10  A    between atoms: C_19  and  C_20
REMARK                            x       y       z     vdW  Elec       q    Type
REMARK                         _______ _______ _______ _____ _____    ______ ____
ROOT
ATOM      1  C   UNL     1       3.560   4.547  19.025  0.00  0.00    +0.000 A 
ATOM      2  C   UNL     1       3.391   3.551  19.916  0.00  0.00    +0.000 A 
ATOM      3  C   UNL     1       2.652   3.661  21.169  0.00  0.00    +0.000 A 
ATOM      4  O   UNL     1       2.633   2.738  21.975  0.00  0.00    +0.000 OA
ATOM      5  O   UNL     1       1.971   4.837  21.364  0.00  0.00    +0.000 OA
ATOM      6  C   UNL     1       2.094   5.914  20.458  0.00  0.00    +0.000 A 
ATOM      7  C   UNL     1       1.357   7.040  20.843  0.00  0.00    +0.000 A 
ATOM      8  C   UNL     1       1.406   8.190  20.072  0.00  0.00    +0.000 A 
ATOM      9  C   UNL     1       0.645   9.420  20.464  0.00  0.00    +0.000 C 
ATOM     10  C   UNL     1       2.211   8.183  18.931  0.00  0.00    +0.000 A 
ATOM     11  C   UNL     1       2.965   7.045  18.536  0.00  0.00    +0.000 A 
ATOM     12  C   UNL     1       3.811   7.235  17.306  0.00  0.00    +0.000 C 
ATOM     13  C   UNL     1       2.899   5.855  19.300  0.00  0.00    +0.000 A 
ENDROOT
BRANCH   1  14
ATOM     14  C   UNL     1       4.318   4.197  17.756  0.00  0.00    +0.000 C 
BRANCH  14  15
ATOM     15  N   UNL     1       5.801   4.175  17.854  0.00  0.00    +0.000 NA
BRANCH  15  16
ATOM     16  C   UNL     1       6.398   4.377  16.509  0.00  0.00    +0.000 C 
BRANCH  16  18
ATOM     17  C   UNL     1       6.192   3.958  13.999  0.00  0.00    +0.000 C 
ATOM     18  C   UNL     1       5.467   4.303  15.290  0.00  0.00    +0.000 C 
ENDBRANCH  16  18
ENDBRANCH  15  16
BRANCH  15  19
ATOM     19  C   UNL     1       6.270   5.234  18.783  0.00  0.00    +0.000 C 
BRANCH  19  20
ATOM     20  C   UNL     1       7.739   5.656  18.608  0.00  0.00    +0.000 C 
ATOM     21  C   UNL     1       7.845   7.114  18.184  0.00  0.00    +0.000 C 
ENDBRANCH  19  20
ENDBRANCH  15  19
ENDBRANCH  14  15
ENDBRANCH   1  14
TORSDOF 6
ENDMDL
MODEL 8
REMARK VINA RESULT:      -6.7      1.633      3.396
REMARK  Name = 
REMARK  10 active torsions:
REMARK  status: ('A' for Active; 'I' for Inactive)
REMARK    1  A    between atoms: C_1  and  C_2
REMARK    2  A    between atoms: C_2  and  C_3
REMARK    3  A    between atoms: C_3  and  N_4
REMARK    4  A    between atoms: N_4  and  C_5
REMARK    5  A    between atoms: N_4  and  C_8
REMARK    6  A    between atoms: C_5  and  C_6
REMARK    7  A    between atoms: C_6  and  C_7
REMARK    8  A    between atoms: C_8  and  C_9
REMARK    9  A    between atoms: C_16  and  C_17
REMARK   10  A    between atoms: C_19  and  C_20
REMARK                            x       y       z     vdW  Elec       q    Type
REMARK                         _______ _______ _______ _____ _____    ______ ____
ROOT
ATOM      1  C   UNL     1       4.123   4.301  18.363  0.00  0.00    +0.000 A 
ATOM      2  C   UNL     1       3.998   3.309  19.264  0.00  0.00    +0.000 A 
ATOM      3  C   UNL     1       3.291   3.413  20.537  0.00  0.00    +0.000 A 
ATOM      4  O   UNL     1       3.312   2.496  21.349  0.00  0.00    +0.000 OA
ATOM      5  O   UNL     1       2.591   4.577  20.741  0.00  0.00    +0.000 OA
ATOM      6  C   UNL     1       2.669   5.650  19.825  0.00  0.00    +0.000 A 
ATOM      7  C   UNL     1       1.921   6.764  20.222  0.00  0.00    +0.000 A 
ATOM      8  C   UNL     1       1.925   7.908  19.442  0.00  0.00    +0.000 A 
ATOM      9  C   UNL     1       1.151   9.126  19.846  0.00  0.00    +0.000 C 
ATOM     10  C   UNL     1       2.700   7.909  18.280  0.00  0.00    +0.000 A 
ATOM     11  C   UNL     1       3.465   6.783  17.873  0.00  0.00    +0.000 A 
ATOM     12  C   UNL     1       4.275   6.981  16.619  0.00  0.00    +0.000 C 
ATOM     13  C   UNL     1       3.444   5.598  18.646  0.00  0.00    +0.000 A 
ENDROOT
BRANCH   1  14
ATOM     14  C   UNL     1       4.854   3.957  17.076  0.00  0.00    +0.000 C 
BRANCH  14  15
ATOM     15  N   UNL     1       6.085   4.736  16.784  0.00  0.00    +0.000 NA
BRANCH  15  16
ATOM     16  C   UNL     1       7.077   4.537  17.873  0.00  0.00    +0.000 C 
BRANCH  16  18
ATOM     17  C   UNL     1       7.667   7.021  17.874  0.00  0.00    +0.000 C 
ATOM     18  C   UNL     1       7.487   5.761  18.706  0.00  0.00    +0.000 C 
ENDBRANCH  16  18
ENDBRANCH  15  16
BRANCH  15  19
ATOM     19  C   UNL     1       6.665   4.314  15.485  0.00  0.00    +0.000 C 
BRANCH  19  20
ATOM     20  C   UNL     1       5.755   4.522  14.263  0.00  0.00    +0.000 C 
ATOM     21  C   UNL     1       6.187   3.640  13.100  0.00  0.00    +0.000 C 
ENDBRANCH  19  20
ENDBRANCH  15  19
ENDBRANCH  14  15
ENDBRANCH   1  14
TORSDOF 6
ENDMDL
MODEL 9
REMARK VINA RESULT:      -6.7      1.725      3.155
REMARK  Name = 
REMARK  10 active torsions:
REMARK  status: ('A' for Active; 'I' for Inactive)
REMARK    1  A    between atoms: C_1  and  C_2
REMARK    2  A    between atoms: C_2  and  C_3
REMARK    3  A    between atoms: C_3  and  N_4
REMARK    4  A    between atoms: N_4  and  C_5
REMARK    5  A    between atoms: N_4  and  C_8
REMARK    6  A    between atoms: C_5  and  C_6
REMARK    7  A    between atoms: C_6  and  C_7
REMARK    8  A    between atoms: C_8  and  C_9
REMARK    9  A    between atoms: C_16  and  C_17
REMARK   10  A    between atoms: C_19  and  C_20
REMARK                            x       y       z     vdW  Elec       q    Type
REMARK                         _______ _______ _______ _____ _____    ______ ____
ROOT
ATOM      1  C   UNL     1       4.124   4.511  17.195  0.00  0.00    +0.000 A 
ATOM      2  C   UNL     1       4.150   3.185  17.430  0.00  0.00    +0.000 A 
ATOM      3  C   UNL     1       3.575   2.528  18.599  0.00  0.00    +0.000 A 
ATOM      4  O   UNL     1       3.731   1.328  18.791  0.00  0.00    +0.000 OA
ATOM      5  O   UNL     1       2.838   3.329  19.437  0.00  0.00    +0.000 OA
ATOM      6  C   UNL     1       2.759   4.725  19.235  0.00  0.00    +0.000 A 
ATOM      7  C   UNL     1       1.997   5.377  20.211  0.00  0.00    +0.000 A 
ATOM      8  C   UNL     1       1.857   6.754  20.167  0.00  0.00    +0.000 A 
ATOM      9  C   UNL     1       1.063   7.487  21.205  0.00  0.00    +0.000 C 
ATOM     10  C   UNL     1       2.504   7.448  19.143  0.00  0.00    +0.000 A 
ATOM     11  C   UNL     1       3.283   6.794  18.151  0.00  0.00    +0.000 A 
ATOM     12  C   UNL     1       3.945   7.706  17.154  0.00  0.00    +0.000 C 
ATOM     13  C   UNL     1       3.408   5.384  18.169  0.00  0.00    +0.000 A 
ENDROOT
BRANCH   1  14
ATOM     14  C   UNL     1       4.735   4.977  15.884  0.00  0.00    +0.000 C 
BRANCH  14  15
ATOM     15  N   UNL     1       6.183   5.309  15.907  0.00  0.00    +0.000 NA
BRANCH  15  16
ATOM     16  C   UNL     1       6.772   4.901  17.209  0.00  0.00    +0.000 C 
BRANCH  16  18
ATOM     17  C   UNL     1       7.523   7.322  17.508  0.00  0.00    +0.000 C 
ATOM     18  C   UNL     1       7.185   6.007  18.191  0.00  0.00    +0.000 C 
ENDBRANCH  16  18
ENDBRANCH  15  16
BRANCH  15  19
ATOM     19  C   UNL     1       6.886   4.624  14.794  0.00  0.00    +0.000 C 
BRANCH  19  20
ATOM     20  C   UNL     1       5.991   3.769  13.881  0.00  0.00    +0.000 C 
ATOM     21  C   UNL     1       6.527   3.740  12.457  0.00  0.00    +0.000 C 
ENDBRANCH  19  20
ENDBRANCH  15  19
ENDBRANCH  14  15
ENDBRANCH   1  14
TORSDOF 6
ENDMDL
