MODEL 1
REMARK VINA RESULT:      -7.0      0.000      0.000
REMARK  Name = 
REMARK  8 active torsions:
REMARK  status: ('A' for Active; 'I' for Inactive)
REMARK    1  A    between atoms: C_1  and  O_2
REMARK    2  A    between atoms: O_2  and  C_3
REMARK    3  A    between atoms: C_6  and  N_7
REMARK    4  A    between atoms: N_7  and  C_11
REMARK    5  A    between atoms: C_8  and  C_9
REMARK    6  A    between atoms: C_11  and  C_12
REMARK    7  A    between atoms: C_11  and  C_13
REMARK    8  A    between atoms: C_13  and  O_15
REMARK                            x       y       z     vdW  Elec       q    Type
REMARK                         _______ _______ _______ _____ _____    ______ ____
ROOT
ATOM      1  N   UNL     1       4.815   4.862  16.509  0.00  0.00    +0.000 N 
ATOM      2  C   UNL     1       4.837   6.256  16.555  0.00  0.00    +0.000 C 
ATOM      3  C   UNL     1       3.911   6.987  17.502  0.00  0.00    +0.000 C 
ATOM      4  O   UNL     1       5.557   6.915  15.800  0.00  0.00    +0.000 OA
ENDROOT
BRANCH   1   8
ATOM      5  C   UNL     1       2.641   2.707  19.434  0.00  0.00    +0.000 A 
ATOM      6  C   UNL     1       2.053   3.074  18.226  0.00  0.00    +0.000 A 
ATOM      7  C   UNL     1       2.780   3.775  17.262  0.00  0.00    +0.000 A 
ATOM      8  C   UNL     1       4.121   4.097  17.485  0.00  0.00    +0.000 A 
ATOM      9  C   UNL     1       4.709   3.758  18.710  0.00  0.00    +0.000 A 
ATOM     10  C   UNL     1       3.969   3.067  19.686  0.00  0.00    +0.000 A 
BRANCH   5  12
ATOM     11  C   UNL     1       1.366   2.824  21.427  0.00  0.00    +0.000 C 
ATOM     12  O   UNL     1       1.807   2.067  20.306  0.00  0.00    +0.000 OA
ENDBRANCH   5  12
ENDBRANCH   1   8
BRANCH   1  13
ATOM     13  C   UNL     1       5.818   4.181  15.643  0.00  0.00    +0.000 C 
ATOM     14  C   UNL     1       5.466   4.191  14.155  0.00  0.00    +0.000 C 
BRANCH  13  15
ATOM     15  C   UNL     1       7.281   4.577  15.895  0.00  0.00    +0.000 C 
ATOM     16  O   UNL     1       7.888   4.385  16.940  0.00  0.00    +0.000 OA
BRANCH  15  17
ATOM     17  O   UNL     1       7.806   5.339  14.903  0.00  0.00    +0.000 OA
ATOM     18  H   UNL     1       7.165   5.454  14.176  0.00  0.00    +0.000 HD
ENDBRANCH  15  17
ENDBRANCH  13  15
ENDBRANCH   1  13
TORSDOF 5
ENDMDL
MODEL 2
REMARK VINA RESULT:      -6.9      0.219      1.190
REMARK  Name = 
REMARK  8 active torsions:
REMARK  status: ('A' for Active; 'I' for Inactive)
REMARK    1  A    between atoms: C_1  and  O_2
REMARK    2  A    between atoms: O_2  and  C_3
REMARK    3  A    between atoms: C_6  and  N_7
REMARK    4  A    between atoms: N_7  and  C_11
REMARK    5  A    between atoms: C_8  and  C_9
REMARK    6  A    between atoms: C_11  and  C_12
REMARK    7  A    between atoms: C_11  and  C_13
REMARK    8  A    between atoms: C_13  and  O_15
REMARK                            x       y       z     vdW  Elec       q    Type
REMARK                         _______ _______ _______ _____ _____    ______ ____
ROOT
ATOM      1  N   UNL     1       4.706   5.002  16.591  0.00  0.00    +0.000 N 
ATOM      2  C   UNL     1       4.813   6.393  16.603  0.00  0.00    +0.000 C 
ATOM      3  C   UNL     1       3.881   7.206  17.476  0.00  0.00    +0.000 C 
ATOM      4  O   UNL     1       5.616   6.985  15.878  0.00  0.00    +0.000 OA
ENDROOT
BRANCH   1   8
ATOM      5  C   UNL     1       2.438   2.813  19.416  0.00  0.00    +0.000 A 
ATOM      6  C   UNL     1       3.759   3.171  19.676  0.00  0.00    +0.000 A 
ATOM      7  C   UNL     1       4.496   3.902  18.743  0.00  0.00    +0.000 A 
ATOM      8  C   UNL     1       3.910   4.310  17.542  0.00  0.00    +0.000 A 
ATOM      9  C   UNL     1       2.592   3.927  17.263  0.00  0.00    +0.000 A 
ATOM     10  C   UNL     1       1.858   3.176  18.197  0.00  0.00    +0.000 A 
BRANCH   5  12
ATOM     11  C   UNL     1       1.579   2.719  21.622  0.00  0.00    +0.000 C 
ATOM     12  O   UNL     1       1.846   2.060  20.391  0.00  0.00    +0.000 OA
ENDBRANCH   5  12
ENDBRANCH   1   8
BRANCH   1  13
ATOM     13  C   UNL     1       5.714   4.237  15.803  0.00  0.00    +0.000 C 
ATOM     14  C   UNL     1       5.410   4.166  14.306  0.00  0.00    +0.000 C 
BRANCH  13  15
ATOM     15  C   UNL     1       7.180   4.601  16.081  0.00  0.00    +0.000 C 
ATOM     16  O   UNL     1       7.748   4.448  17.154  0.00  0.00    +0.000 OA
BRANCH  15  17
ATOM     17  O   UNL     1       7.760   5.291  15.067  0.00  0.00    +0.000 OA
ATOM     18  H   UNL     1       7.299   6.137  14.913  0.00  0.00    +0.000 HD
ENDBRANCH  15  17
ENDBRANCH  13  15
ENDBRANCH   1  13
TORSDOF 5
ENDMDL
MODEL 3
REMARK VINA RESULT:      -6.8      1.946      5.175
REMARK  Name = 
REMARK  8 active torsions:
REMARK  status: ('A' for Active; 'I' for Inactive)
REMARK    1  A    between atoms: C_1  and  O_2
REMARK    2  A    between atoms: O_2  and  C_3
REMARK    3  A    between atoms: C_6  and  N_7
REMARK    4  A    between atoms: N_7  and  C_11
REMARK    5  A    between atoms: C_8  and  C_9
REMARK    6  A    between atoms: C_11  and  C_12
REMARK    7  A    between atoms: C_11  and  C_13
REMARK    8  A    between atoms: C_13  and  O_15
REMARK                            x       y       z     vdW  Elec       q    Type
REMARK                         _______ _______ _______ _____ _____    ______ ____
ROOT
ATOM      1  N   UNL     1       3.439   4.104  19.241  0.00  0.00    +0.000 N 
ATOM      2  C   UNL     1       2.548   5.107  19.622  0.00  0.00    +0.000 C 
ATOM      3  C   UNL     1       2.844   6.547  19.262  0.00  0.00    +0.000 C 
ATOM      4  O   UNL     1       1.544   4.857  20.294  0.00  0.00    +0.000 OA
ENDROOT
BRANCH   1   8
ATOM      5  C   UNL     1       6.582   4.706  16.468  0.00  0.00    +0.000 A 
ATOM      6  C   UNL     1       5.308   4.335  16.043  0.00  0.00    +0.000 A 
ATOM      7  C   UNL     1       4.275   4.148  16.963  0.00  0.00    +0.000 A 
ATOM      8  C   UNL     1       4.497   4.358  18.327  0.00  0.00    +0.000 A 
ATOM      9  C   UNL     1       5.782   4.702  18.763  0.00  0.00    +0.000 A 
ATOM     10  C   UNL     1       6.825   4.872  17.835  0.00  0.00    +0.000 A 
BRANCH   5  12
ATOM     11  C   UNL     1       7.010   4.806  14.141  0.00  0.00    +0.000 C 
ATOM     12  O   UNL     1       7.511   4.809  15.472  0.00  0.00    +0.000 OA
ENDBRANCH   5  12
ENDBRANCH   1   8
BRANCH   1  13
ATOM     13  C   UNL     1       3.053   2.692  19.519  0.00  0.00    +0.000 C 
ATOM     14  C   UNL     1       1.958   2.153  18.598  0.00  0.00    +0.000 C 
BRANCH  13  15
ATOM     15  C   UNL     1       4.223   1.707  19.668  0.00  0.00    +0.000 C 
ATOM     16  O   UNL     1       5.082   1.765  20.537  0.00  0.00    +0.000 OA
BRANCH  15  17
ATOM     17  O   UNL     1       4.335   0.850  18.621  0.00  0.00    +0.000 OA
ATOM     18  H   UNL     1       5.212   0.421  18.615  0.00  0.00    +0.000 HD
ENDBRANCH  15  17
ENDBRANCH  13  15
ENDBRANCH   1  13
TORSDOF 5
ENDMDL
MODEL 4
REMARK VINA RESULT:      -6.7      1.059      1.738
REMARK  Name = 
REMARK  8 active torsions:
REMARK  status: ('A' for Active; 'I' for Inactive)
REMARK    1  A    between atoms: C_1  and  O_2
REMARK    2  A    between atoms: O_2  and  C_3
REMARK    3  A    between atoms: C_6  and  N_7
REMARK    4  A    between atoms: N_7  and  C_11
REMARK    5  A    between atoms: C_8  and  C_9
REMARK    6  A    between atoms: C_11  and  C_12
REMARK    7  A    between atoms: C_11  and  C_13
REMARK    8  A    between atoms: C_13  and  O_15
REMARK                            x       y       z     vdW  Elec       q    Type
REMARK                         _______ _______ _______ _____ _____    ______ ____
ROOT
ATOM      1  N   UNL     1       4.462   5.208  16.947  0.00  0.00    +0.000 N 
ATOM      2  C   UNL     1       4.703   6.573  16.787  0.00  0.00    +0.000 C 
ATOM      3  C   UNL     1       3.749   7.577  17.397  0.00  0.00    +0.000 C 
ATOM      4  O   UNL     1       5.649   6.987  16.112  0.00  0.00    +0.000 OA
ENDROOT
BRANCH   1   8
ATOM      5  C   UNL     1       1.656   3.676  19.722  0.00  0.00    +0.000 A 
ATOM      6  C   UNL     1       2.816   4.319  20.151  0.00  0.00    +0.000 A 
ATOM      7  C   UNL     1       3.731   4.830  19.230  0.00  0.00    +0.000 A 
ATOM      8  C   UNL     1       3.483   4.728  17.858  0.00  0.00    +0.000 A 
ATOM      9  C   UNL     1       2.335   4.057  17.421  0.00  0.00    +0.000 A 
ATOM     10  C   UNL     1       1.424   3.528  18.351  0.00  0.00    +0.000 A 
BRANCH   5  12
ATOM     11  C   UNL     1       1.548   2.530  21.792  0.00  0.00    +0.000 C 
ATOM     12  O   UNL     1       0.871   3.182  20.725  0.00  0.00    +0.000 OA
ENDBRANCH   5  12
ENDBRANCH   1   8
BRANCH   1  13
ATOM     13  C   UNL     1       5.485   4.258  16.424  0.00  0.00    +0.000 C 
ATOM     14  C   UNL     1       5.515   4.153  14.900  0.00  0.00    +0.000 C 
BRANCH  13  15
ATOM     15  C   UNL     1       6.892   4.412  17.023  0.00  0.00    +0.000 C 
ATOM     16  O   UNL     1       7.916   4.568  16.373  0.00  0.00    +0.000 OA
BRANCH  15  17
ATOM     17  O   UNL     1       6.932   4.172  18.358  0.00  0.00    +0.000 OA
ATOM     18  H   UNL     1       7.750   4.531  18.751  0.00  0.00    +0.000 HD
ENDBRANCH  15  17
ENDBRANCH  13  15
ENDBRANCH   1  13
TORSDOF 5
ENDMDL
MODEL 5
REMARK VINA RESULT:      -6.7      1.647      2.837
REMARK  Name = 
REMARK  8 active torsions:
REMARK  status: ('A' for Active; 'I' for Inactive)
REMARK    1  A    between atoms: C_1  and  O_2
REMARK    2  A    between atoms: O_2  and  C_3
REMARK    3  A    between atoms: C_6  and  N_7
REMARK    4  A    between atoms: N_7  and  C_11
REMARK    5  A    between atoms: C_8  and  C_9
REMARK    6  A    between atoms: C_11  and  C_12
REMARK    7  A    between atoms: C_11  and  C_13
REMARK    8  A    between atoms: C_13  and  O_15
REMARK                            x       y       z     vdW  Elec       q    Type
REMARK                         _______ _______ _______ _____ _____    ______ ____
ROOT
ATOM      1  N   UNL     1       6.232   5.084  16.327  0.00  0.00    +0.000 N 
ATOM      2  C   UNL     1       6.409   4.996  14.947  0.00  0.00    +0.000 C 
ATOM      3  C   UNL     1       5.321   4.383  14.091  0.00  0.00    +0.000 C 
ATOM      4  O   UNL     1       7.458   5.356  14.406  0.00  0.00    +0.000 OA
ENDROOT
BRANCH   1   8
ATOM      5  C   UNL     1       2.428   4.259  17.993  0.00  0.00    +0.000 A 
ATOM      6  C   UNL     1       3.298   3.230  17.639  0.00  0.00    +0.000 A 
ATOM      7  C   UNL     1       4.554   3.510  17.100  0.00  0.00    +0.000 A 
ATOM      8  C   UNL     1       4.971   4.834  16.932  0.00  0.00    +0.000 A 
ATOM      9  C   UNL     1       4.089   5.872  17.257  0.00  0.00    +0.000 A 
ATOM     10  C   UNL     1       2.818   5.586  17.783  0.00  0.00    +0.000 A 
BRANCH   5  12
ATOM     11  C   UNL     1       1.072   2.452  18.703  0.00  0.00    +0.000 C 
ATOM     12  O   UNL     1       1.214   3.847  18.464  0.00  0.00    +0.000 OA
ENDBRANCH   5  12
ENDBRANCH   1   8
BRANCH   1  13
ATOM     13  C   UNL     1       7.279   5.793  17.116  0.00  0.00    +0.000 C 
ATOM     14  C   UNL     1       6.938   7.248  17.438  0.00  0.00    +0.000 C 
BRANCH  13  15
ATOM     15  C   UNL     1       7.802   5.034  18.346  0.00  0.00    +0.000 C 
ATOM     16  O   UNL     1       7.707   5.424  19.501  0.00  0.00    +0.000 OA
BRANCH  15  17
ATOM     17  O   UNL     1       8.559   3.955  18.024  0.00  0.00    +0.000 OA
ATOM     18  H   UNL     1       8.851   3.999  17.094  0.00  0.00    +0.000 HD
ENDBRANCH  15  17
ENDBRANCH  13  15
ENDBRANCH   1  13
TORSDOF 5
ENDMDL
MODEL 6
REMARK VINA RESULT:      -6.7      2.303      5.545
REMARK  Name = 
REMARK  8 active torsions:
REMARK  status: ('A' for Active; 'I' for Inactive)
REMARK    1  A    between atoms: C_1  and  O_2
REMARK    2  A    between atoms: O_2  and  C_3
REMARK    3  A    between atoms: C_6  and  N_7
REMARK    4  A    between atoms: N_7  and  C_11
REMARK    5  A    between atoms: C_8  and  C_9
REMARK    6  A    between atoms: C_11  and  C_12
REMARK    7  A    between atoms: C_11  and  C_13
REMARK    8  A    between atoms: C_13  and  O_15
REMARK                            x       y       z     vdW  Elec       q    Type
REMARK                         _______ _______ _______ _____ _____    ______ ____
ROOT
ATOM      1  N   UNL     1       3.262   4.561  19.409  0.00  0.00    +0.000 N 
ATOM      2  C   UNL     1       2.182   5.259  19.949  0.00  0.00    +0.000 C 
ATOM      3  C   UNL     1       2.210   6.772  19.982  0.00  0.00    +0.000 C 
ATOM      4  O   UNL     1       1.221   4.672  20.453  0.00  0.00    +0.000 OA
ENDROOT
BRANCH   1   8
ATOM      5  C   UNL     1       6.330   6.636  17.357  0.00  0.00    +0.000 A 
ATOM      6  C   UNL     1       6.593   5.945  18.537  0.00  0.00    +0.000 A 
ATOM      7  C   UNL     1       5.579   5.255  19.202  0.00  0.00    +0.000 A 
ATOM      8  C   UNL     1       4.284   5.225  18.677  0.00  0.00    +0.000 A 
ATOM      9  C   UNL     1       4.006   5.942  17.507  0.00  0.00    +0.000 A 
ATOM     10  C   UNL     1       5.026   6.651  16.849  0.00  0.00    +0.000 A 
BRANCH   5  12
ATOM     11  C   UNL     1       7.953   8.337  17.643  0.00  0.00    +0.000 C 
ATOM     12  O   UNL     1       7.399   7.306  16.834  0.00  0.00    +0.000 OA
ENDBRANCH   5  12
ENDBRANCH   1   8
BRANCH   1  13
ATOM     13  C   UNL     1       3.144   3.080  19.297  0.00  0.00    +0.000 C 
ATOM     14  C   UNL     1       3.436   2.536  17.898  0.00  0.00    +0.000 C 
BRANCH  13  15
ATOM     15  C   UNL     1       3.862   2.278  20.393  0.00  0.00    +0.000 C 
ATOM     16  O   UNL     1       3.510   2.220  21.563  0.00  0.00    +0.000 OA
BRANCH  15  17
ATOM     17  O   UNL     1       5.054   1.771  19.988  0.00  0.00    +0.000 OA
ATOM     18  H   UNL     1       5.789   2.155  20.503  0.00  0.00    +0.000 HD
ENDBRANCH  15  17
ENDBRANCH  13  15
ENDBRANCH   1  13
TORSDOF 5
ENDMDL
MODEL 7
REMARK VINA RESULT:      -6.7      1.941      5.345
REMARK  Name = 
REMARK  8 active torsions:
REMARK  status: ('A' for Active; 'I' for Inactive)
REMARK    1  A    between atoms: C_1  and  O_2
REMARK    2  A    between atoms: O_2  and  C_3
REMARK    3  A    between atoms: C_6  and  N_7
REMARK    4  A    between atoms: N_7  and  C_11
REMARK    5  A    between atoms: C_8  and  C_9
REMARK    6  A    between atoms: C_11  and  C_12
REMARK    7  A    between atoms: C_11  and  C_13
REMARK    8  A    between atoms: C_13  and  O_15
REMARK                            x       y       z     vdW  Elec       q    Type
REMARK                         _______ _______ _______ _____ _____    ______ ____
ROOT
ATOM      1  N   UNL     1       3.511   4.053  19.210  0.00  0.00    +0.000 N 
ATOM      2  C   UNL     1       2.676   5.108  19.580  0.00  0.00    +0.000 C 
ATOM      3  C   UNL     1       2.976   6.507  19.086  0.00  0.00    +0.000 C 
ATOM      4  O   UNL     1       1.725   4.940  20.347  0.00  0.00    +0.000 OA
ENDROOT
BRANCH   1   8
ATOM      5  C   UNL     1       6.466   4.663  16.241  0.00  0.00    +0.000 A 
ATOM      6  C   UNL     1       6.764   4.810  17.594  0.00  0.00    +0.000 A 
ATOM      7  C   UNL     1       5.786   4.598  18.567  0.00  0.00    +0.000 A 
ATOM      8  C   UNL     1       4.496   4.206  18.199  0.00  0.00    +0.000 A 
ATOM      9  C   UNL     1       4.183   4.085  16.839  0.00  0.00    +0.000 A 
ATOM     10  C   UNL     1       5.165   4.317  15.861  0.00  0.00    +0.000 A 
BRANCH   5  12
ATOM     11  C   UNL     1       7.213   4.860  14.002  0.00  0.00    +0.000 C 
ATOM     12  O   UNL     1       7.499   4.946  15.392  0.00  0.00    +0.000 OA
ENDBRANCH   5  12
ENDBRANCH   1   8
BRANCH   1  13
ATOM     13  C   UNL     1       3.116   2.678  19.628  0.00  0.00    +0.000 C 
ATOM     14  C   UNL     1       1.932   2.106  18.847  0.00  0.00    +0.000 C 
BRANCH  13  15
ATOM     15  C   UNL     1       4.269   1.671  19.753  0.00  0.00    +0.000 C 
ATOM     16  O   UNL     1       5.156   1.723  20.594  0.00  0.00    +0.000 OA
BRANCH  15  17
ATOM     17  O   UNL     1       4.330   0.799  18.715  0.00  0.00    +0.000 OA
ATOM     18  H   UNL     1       5.197   0.352  18.687  0.00  0.00    +0.000 HD
ENDBRANCH  15  17
ENDBRANCH  13  15
ENDBRANCH   1  13
TORSDOF 5
ENDMDL
MODEL 8
REMARK VINA RESULT:      -6.6      1.817      5.386
REMARK  Name = 
REMARK  8 active torsions:
REMARK  status: ('A' for Active; 'I' for Inactive)
REMARK    1  A    between atoms: C_1  and  O_2
REMARK    2  A    between atoms: O_2  and  C_3
REMARK    3  A    between atoms: C_6  and  N_7
REMARK    4  A    between atoms: N_7  and  C_11
REMARK    5  A    between atoms: C_8  and  C_9
REMARK    6  A    between atoms: C_11  and  C_12
REMARK    7  A    between atoms: C_11  and  C_13
REMARK    8  A    between atoms: C_13  and  O_15
REMARK                            x       y       z     vdW  Elec       q    Type
REMARK                         _______ _______ _______ _____ _____    ______ ____
ROOT
ATOM      1  N   UNL     1       3.556   4.188  19.028  0.00  0.00    +0.000 N 
ATOM      2  C   UNL     1       2.594   5.164  19.290  0.00  0.00    +0.000 C 
ATOM      3  C   UNL     1       2.810   6.578  18.799  0.00  0.00    +0.000 C 
ATOM      4  O   UNL     1       1.589   4.915  19.962  0.00  0.00    +0.000 OA
ENDROOT
BRANCH   1   8
ATOM      5  C   UNL     1       6.702   4.734  16.248  0.00  0.00    +0.000 A 
ATOM      6  C   UNL     1       5.390   4.541  15.822  0.00  0.00    +0.000 A 
ATOM      7  C   UNL     1       4.357   4.372  16.745  0.00  0.00    +0.000 A 
ATOM      8  C   UNL     1       4.620   4.421  18.116  0.00  0.00    +0.000 A 
ATOM      9  C   UNL     1       5.941   4.585  18.551  0.00  0.00    +0.000 A 
ATOM     10  C   UNL     1       6.982   4.738  17.619  0.00  0.00    +0.000 A 
BRANCH   5  12
ATOM     11  C   UNL     1       7.113   4.794  13.916  0.00  0.00    +0.000 C 
ATOM     12  O   UNL     1       7.622   4.839  15.244  0.00  0.00    +0.000 OA
ENDBRANCH   5  12
ENDBRANCH   1   8
BRANCH   1  13
ATOM     13  C   UNL     1       3.251   2.787  19.434  0.00  0.00    +0.000 C 
ATOM     14  C   UNL     1       3.393   1.767  18.304  0.00  0.00    +0.000 C 
BRANCH  13  15
ATOM     15  C   UNL     1       3.928   2.316  20.730  0.00  0.00    +0.000 C 
ATOM     16  O   UNL     1       5.030   1.789  20.793  0.00  0.00    +0.000 OA
BRANCH  15  17
ATOM     17  O   UNL     1       3.107   2.367  21.810  0.00  0.00    +0.000 OA
ATOM     18  H   UNL     1       2.178   2.488  21.536  0.00  0.00    +0.000 HD
ENDBRANCH  15  17
ENDBRANCH  13  15
ENDBRANCH   1  13
TORSDOF 5
ENDMDL
MODEL 9
REMARK VINA RESULT:      -6.6      1.760      2.821
REMARK  Name = 
REMARK  8 active torsions:
REMARK  status: ('A' for Active; 'I' for Inactive)
REMARK    1  A    between atoms: C_1  and  O_2
REMARK    2  A    between atoms: O_2  and  C_3
REMARK    3  A    between atoms: C_6  and  N_7
REMARK    4  A    between atoms: N_7  and  C_11
REMARK    5  A    between atoms: C_8  and  C_9
REMARK    6  A    between atoms: C_11  and  C_12
REMARK    7  A    between atoms: C_11  and  C_13
REMARK    8  A    between atoms: C_13  and  O_15
REMARK                            x       y       z     vdW  Elec       q    Type
REMARK                         _______ _______ _______ _____ _____    ______ ____
ROOT
ATOM      1  N   UNL     1       6.245   5.063  16.432  0.00  0.00    +0.000 N 
ATOM      2  C   UNL     1       6.539   4.982  15.070  0.00  0.00    +0.000 C 
ATOM      3  C   UNL     1       5.563   4.303  14.134  0.00  0.00    +0.000 C 
ATOM      4  O   UNL     1       7.604   5.404  14.614  0.00  0.00    +0.000 OA
ENDROOT
BRANCH   1   8
ATOM      5  C   UNL     1       2.441   4.175  18.064  0.00  0.00    +0.000 A 
ATOM      6  C   UNL     1       2.833   5.491  17.826  0.00  0.00    +0.000 A 
ATOM      7  C   UNL     1       4.085   5.775  17.278  0.00  0.00    +0.000 A 
ATOM      8  C   UNL     1       4.956   4.738  16.934  0.00  0.00    +0.000 A 
ATOM      9  C   UNL     1       4.580   3.415  17.198  0.00  0.00    +0.000 A 
ATOM     10  C   UNL     1       3.325   3.134  17.766  0.00  0.00    +0.000 A 
BRANCH   5  12
ATOM     11  C   UNL     1       1.145   3.189  19.785  0.00  0.00    +0.000 C 
ATOM     12  O   UNL     1       1.212   4.040  18.646  0.00  0.00    +0.000 OA
ENDBRANCH   5  12
ENDBRANCH   1   8
BRANCH   1  13
ATOM     13  C   UNL     1       7.180   5.835  17.298  0.00  0.00    +0.000 C 
ATOM     14  C   UNL     1       6.842   7.322  17.408  0.00  0.00    +0.000 C 
BRANCH  13  15
ATOM     15  C   UNL     1       7.481   5.205  18.667  0.00  0.00    +0.000 C 
ATOM     16  O   UNL     1       6.959   5.540  19.721  0.00  0.00    +0.000 OA
BRANCH  15  17
ATOM     17  O   UNL     1       8.532   4.347  18.640  0.00  0.00    +0.000 OA
ATOM     18  H   UNL     1       8.276   3.472  18.988  0.00  0.00    +0.000 HD
ENDBRANCH  15  17
ENDBRANCH  13  15
ENDBRANCH   1  13
TORSDOF 5
ENDMDL
