MODEL 1
REMARK VINA RESULT:      -7.7      0.000      0.000
REMARK  Name = 
REMARK  8 active torsions:
REMARK  status: ('A' for Active; 'I' for Inactive)
REMARK    1  A    between atoms: C_1  and  C_2
REMARK    2  A    between atoms: C_5  and  N_6
REMARK    3  A    between atoms: C_7  and  C_9
REMARK    4  A    between atoms: C_9  and  C_10
REMARK    5  A    between atoms: C_9  and  N_14
REMARK    6  A    between atoms: C_10  and  C_11
REMARK    7  A    between atoms: C_11  and  C_12
REMARK    8  A    between atoms: C_11  and  C_13
REMARK                            x       y       z     vdW  Elec       q    Type
REMARK                         _______ _______ _______ _____ _____    ______ ____
ROOT
ATOM      1  N   UNL     1       3.099   6.272  19.718  0.00  0.00    +0.000 N 
ATOM      2  C   UNL     1       3.493   5.299  18.805  0.00  0.00    +0.000 C 
ATOM      3  O   UNL     1       3.337   5.358  17.586  0.00  0.00    +0.000 OA
ATOM      4  H   UNL     1       3.449   6.168  20.669  0.00  0.00    +0.000 HD
ENDROOT
BRANCH   1   9
ATOM      5  C   UNL     1      -0.024  11.020  18.761  0.00  0.00    +0.000 C 
ATOM      6  C   UNL     1       0.774   9.774  19.024  0.00  0.00    +0.000 A 
ATOM      7  C   UNL     1       1.501   9.195  17.977  0.00  0.00    +0.000 A 
ATOM      8  C   UNL     1       2.268   8.039  18.190  0.00  0.00    +0.000 A 
ATOM      9  C   UNL     1       2.338   7.437  19.446  0.00  0.00    +0.000 A 
ATOM     10  C   UNL     1       1.605   8.009  20.495  0.00  0.00    +0.000 A 
ATOM     11  C   UNL     1       0.829   9.159  20.283  0.00  0.00    +0.000 A 
ATOM     12 CL   UNL     1      -0.065   9.793  21.622  0.00  0.00    +0.000 Cl
ENDBRANCH   1   9
BRANCH   2  13
ATOM     13  C   UNL     1       4.280   4.121  19.435  0.00  0.00    +0.000 C 
BRANCH  13  14
ATOM     14  N   UNL     1       5.477   3.904  18.635  0.00  0.00    +0.000 N 
ATOM     15  C   UNL     1       6.622   4.601  18.846  0.00  0.00    +0.000 C 
ATOM     16  N   UNL     1       7.605   4.265  17.977  0.00  0.00    +0.000 N 
ATOM     17  O   UNL     1       6.784   5.408  19.749  0.00  0.00    +0.000 OA
ATOM     18  H   UNL     1       5.360   3.452  17.739  0.00  0.00    +0.000 HD
ATOM     19  H   UNL     1       7.369   3.944  17.050  0.00  0.00    +0.000 HD
ATOM     20  H   UNL     1       8.456   4.807  18.054  0.00  0.00    +0.000 HD
ENDBRANCH  13  14
BRANCH  13  21
ATOM     21  C   UNL     1       3.408   2.847  19.420  0.00  0.00    +0.000 C 
BRANCH  21  22
ATOM     22  C   UNL     1       1.916   3.078  19.740  0.00  0.00    +0.000 C 
ATOM     23  C   UNL     1       0.973   2.345  18.784  0.00  0.00    +0.000 C 
ATOM     24  C   UNL     1       1.616   2.646  21.181  0.00  0.00    +0.000 C 
ENDBRANCH  21  22
ENDBRANCH  13  21
ENDBRANCH   2  13
TORSDOF 5
ENDMDL
MODEL 2
REMARK VINA RESULT:      -7.5      2.351      3.696
REMARK  Name = 
REMARK  8 active torsions:
REMARK  status: ('A' for Active; 'I' for Inactive)
REMARK    1  A    between atoms: C_1  and  C_2
REMARK    2  A    between atoms: C_5  and  N_6
REMARK    3  A    between atoms: C_7  and  C_9
REMARK    4  A    between atoms: C_9  and  C_10
REMARK    5  A    between atoms: C_9  and  N_14
REMARK    6  A    between atoms: C_10  and  C_11
REMARK    7  A    between atoms: C_11  and  C_12
REMARK    8  A    between atoms: C_11  and  C_13
REMARK                            x       y       z     vdW  Elec       q    Type
REMARK                         _______ _______ _______ _____ _____    ______ ____
ROOT
ATOM      1  N   UNL     1       3.209   5.966  18.445  0.00  0.00    +0.000 N 
ATOM      2  C   UNL     1       2.717   4.785  17.900  0.00  0.00    +0.000 C 
ATOM      3  O   UNL     1       1.529   4.479  17.810  0.00  0.00    +0.000 OA
ATOM      4  H   UNL     1       4.198   6.158  18.292  0.00  0.00    +0.000 HD
ENDROOT
BRANCH   1   9
ATOM      5  C   UNL     1       0.177  10.132  21.027  0.00  0.00    +0.000 C 
ATOM      6  C   UNL     1       0.982   9.062  20.345  0.00  0.00    +0.000 A 
ATOM      7  C   UNL     1       1.233   7.862  21.020  0.00  0.00    +0.000 A 
ATOM      8  C   UNL     1       1.968   6.835  20.409  0.00  0.00    +0.000 A 
ATOM      9  C   UNL     1       2.463   6.972  19.112  0.00  0.00    +0.000 A 
ATOM     10  C   UNL     1       2.221   8.174  18.436  0.00  0.00    +0.000 A 
ATOM     11  C   UNL     1       1.495   9.207  19.048  0.00  0.00    +0.000 A 
ATOM     12 CL   UNL     1       1.256  10.671  18.157  0.00  0.00    +0.000 Cl
ENDBRANCH   1   9
BRANCH   2  13
ATOM     13  C   UNL     1       3.806   3.873  17.278  0.00  0.00    +0.000 C 
BRANCH  13  14
ATOM     14  N   UNL     1       4.563   3.273  18.368  0.00  0.00    +0.000 N 
ATOM     15  C   UNL     1       4.146   2.147  19.001  0.00  0.00    +0.000 C 
ATOM     16  N   UNL     1       4.980   1.773  20.000  0.00  0.00    +0.000 N 
ATOM     17  O   UNL     1       3.160   1.501  18.685  0.00  0.00    +0.000 OA
ATOM     18  H   UNL     1       5.234   3.859  18.843  0.00  0.00    +0.000 HD
ATOM     19  H   UNL     1       5.512   2.470  20.500  0.00  0.00    +0.000 HD
ATOM     20  H   UNL     1       4.674   0.976  20.545  0.00  0.00    +0.000 HD
ENDBRANCH  13  14
BRANCH  13  21
ATOM     21  C   UNL     1       4.750   4.719  16.395  0.00  0.00    +0.000 C 
BRANCH  21  22
ATOM     22  C   UNL     1       6.002   3.975  15.886  0.00  0.00    +0.000 C 
ATOM     23  C   UNL     1       6.131   3.984  14.362  0.00  0.00    +0.000 C 
ATOM     24  C   UNL     1       7.264   4.588  16.507  0.00  0.00    +0.000 C 
ENDBRANCH  21  22
ENDBRANCH  13  21
ENDBRANCH   2  13
TORSDOF 5
ENDMDL
MODEL 3
REMARK VINA RESULT:      -7.5      2.016      2.354
REMARK  Name = 
REMARK  8 active torsions:
REMARK  status: ('A' for Active; 'I' for Inactive)
REMARK    1  A    between atoms: C_1  and  C_2
REMARK    2  A    between atoms: C_5  and  N_6
REMARK    3  A    between atoms: C_7  and  C_9
REMARK    4  A    between atoms: C_9  and  C_10
REMARK    5  A    between atoms: C_9  and  N_14
REMARK    6  A    between atoms: C_10  and  C_11
REMARK    7  A    between atoms: C_11  and  C_12
REMARK    8  A    between atoms: C_11  and  C_13
REMARK                            x       y       z     vdW  Elec       q    Type
REMARK                         _______ _______ _______ _____ _____    ______ ____
ROOT
ATOM      1  N   UNL     1       3.217   6.290  18.021  0.00  0.00    +0.000 N 
ATOM      2  C   UNL     1       4.514   6.287  17.516  0.00  0.00    +0.000 C 
ATOM      3  O   UNL     1       5.270   7.257  17.481  0.00  0.00    +0.000 OA
ATOM      4  H   UNL     1       2.778   5.380  18.146  0.00  0.00    +0.000 HD
ENDROOT
BRANCH   1   9
ATOM      5  C   UNL     1       0.233  10.822  19.964  0.00  0.00    +0.000 C 
ATOM      6  C   UNL     1       0.999   9.626  19.471  0.00  0.00    +0.000 A 
ATOM      7  C   UNL     1       1.337   9.544  18.115  0.00  0.00    +0.000 A 
ATOM      8  C   UNL     1       2.064   8.449  17.622  0.00  0.00    +0.000 A 
ATOM      9  C   UNL     1       2.478   7.417  18.464  0.00  0.00    +0.000 A 
ATOM     10  C   UNL     1       2.135   7.492  19.821  0.00  0.00    +0.000 A 
ATOM     11  C   UNL     1       1.400   8.580  20.314  0.00  0.00    +0.000 A 
ATOM     12 CL   UNL     1       0.995   8.591  21.997  0.00  0.00    +0.000 Cl
ENDBRANCH   1   9
BRANCH   2  13
ATOM     13  C   UNL     1       5.018   4.889  17.075  0.00  0.00    +0.000 C 
BRANCH  13  14
ATOM     14  N   UNL     1       5.720   5.045  15.810  0.00  0.00    +0.000 N 
ATOM     15  C   UNL     1       7.064   4.882  15.706  0.00  0.00    +0.000 C 
ATOM     16  N   UNL     1       7.519   5.098  14.449  0.00  0.00    +0.000 N 
ATOM     17  O   UNL     1       7.791   4.529  16.622  0.00  0.00    +0.000 OA
ATOM     18  H   UNL     1       5.252   5.562  15.081  0.00  0.00    +0.000 HD
ATOM     19  H   UNL     1       7.038   5.746  13.843  0.00  0.00    +0.000 HD
ATOM     20  H   UNL     1       8.525   5.054  14.338  0.00  0.00    +0.000 HD
ENDBRANCH  13  14
BRANCH  13  21
ATOM     21  C   UNL     1       3.815   3.939  16.887  0.00  0.00    +0.000 C 
BRANCH  21  22
ATOM     22  C   UNL     1       3.791   2.725  17.840  0.00  0.00    +0.000 C 
ATOM     23  C   UNL     1       4.337   3.041  19.233  0.00  0.00    +0.000 C 
ATOM     24  C   UNL     1       2.361   2.184  17.964  0.00  0.00    +0.000 C 
ENDBRANCH  21  22
ENDBRANCH  13  21
ENDBRANCH   2  13
TORSDOF 5
ENDMDL
MODEL 4
REMARK VINA RESULT:      -7.5      4.299      6.297
REMARK  Name = 
REMARK  8 active torsions:
REMARK  status: ('A' for Active; 'I' for Inactive)
REMARK    1  A    between atoms: C_1  and  C_2
REMARK    2  A    between atoms: C_5  and  N_6
REMARK    3  A    between atoms: C_7  and  C_9
REMARK    4  A    between atoms: C_9  and  C_10
REMARK    5  A    between atoms: C_9  and  N_14
REMARK    6  A    between atoms: C_10  and  C_11
REMARK    7  A    between atoms: C_11  and  C_12
REMARK    8  A    between atoms: C_11  and  C_13
REMARK                            x       y       z     vdW  Elec       q    Type
REMARK                         _______ _______ _______ _____ _____    ______ ____
ROOT
ATOM      1  N   UNL     1       5.013   3.447  17.134  0.00  0.00    +0.000 N 
ATOM      2  C   UNL     1       4.115   4.163  17.920  0.00  0.00    +0.000 C 
ATOM      3  O   UNL     1       3.723   5.307  17.695  0.00  0.00    +0.000 OA
ATOM      4  H   UNL     1       5.108   2.456  17.345  0.00  0.00    +0.000 HD
ENDROOT
BRANCH   1   9
ATOM      5  C   UNL     1       7.867   5.344  12.500  0.00  0.00    +0.000 C 
ATOM      6  C   UNL     1       7.121   4.829  13.699  0.00  0.00    +0.000 A 
ATOM      7  C   UNL     1       7.499   5.261  14.975  0.00  0.00    +0.000 A 
ATOM      8  C   UNL     1       6.817   4.812  16.116  0.00  0.00    +0.000 A 
ATOM      9  C   UNL     1       5.740   3.931  16.016  0.00  0.00    +0.000 A 
ATOM     10  C   UNL     1       5.364   3.489  14.741  0.00  0.00    +0.000 A 
ATOM     11  C   UNL     1       6.051   3.928  13.599  0.00  0.00    +0.000 A 
ATOM     12 CL   UNL     1       5.542   3.320  12.061  0.00  0.00    +0.000 Cl
ENDBRANCH   1   9
BRANCH   2  13
ATOM     13  C   UNL     1       3.522   3.353  19.100  0.00  0.00    +0.000 C 
BRANCH  13  14
ATOM     14  N   UNL     1       4.045   1.997  19.020  0.00  0.00    +0.000 N 
ATOM     15  C   UNL     1       4.766   1.440  20.026  0.00  0.00    +0.000 C 
ATOM     16  N   UNL     1       5.179   0.183  19.738  0.00  0.00    +0.000 N 
ATOM     17  O   UNL     1       4.984   1.979  21.101  0.00  0.00    +0.000 OA
ATOM     18  H   UNL     1       4.124   1.584  18.101  0.00  0.00    +0.000 HD
ATOM     19  H   UNL     1       5.354  -0.082  18.781  0.00  0.00    +0.000 HD
ATOM     20  H   UNL     1       5.778  -0.246  20.432  0.00  0.00    +0.000 HD
ENDBRANCH  13  14
BRANCH  13  21
ATOM     21  C   UNL     1       1.982   3.323  18.988  0.00  0.00    +0.000 C 
BRANCH  21  22
ATOM     22  C   UNL     1       1.229   3.777  20.256  0.00  0.00    +0.000 C 
ATOM     23  C   UNL     1       1.374   2.802  21.425  0.00  0.00    +0.000 C 
ATOM     24  C   UNL     1       1.717   5.165  20.687  0.00  0.00    +0.000 C 
ENDBRANCH  21  22
ENDBRANCH  13  21
ENDBRANCH   2  13
TORSDOF 5
ENDMDL
MODEL 5
REMARK VINA RESULT:      -7.4      2.215      3.470
REMARK  Name = 
REMARK  8 active torsions:
REMARK  status: ('A' for Active; 'I' for Inactive)
REMARK    1  A    between atoms: C_1  and  C_2
REMARK    2  A    between atoms: C_5  and  N_6
REMARK    3  A    between atoms: C_7  and  C_9
REMARK    4  A    between atoms: C_9  and  C_10
REMARK    5  A    between atoms: C_9  and  N_14
REMARK    6  A    between atoms: C_10  and  C_11
REMARK    7  A    between atoms: C_11  and  C_12
REMARK    8  A    between atoms: C_11  and  C_13
REMARK                            x       y       z     vdW  Elec       q    Type
REMARK                         _______ _______ _______ _____ _____    ______ ____
ROOT
ATOM      1  N   UNL     1       3.188   5.833  18.123  0.00  0.00    +0.000 N 
ATOM      2  C   UNL     1       4.451   5.371  18.480  0.00  0.00    +0.000 C 
ATOM      3  O   UNL     1       5.215   5.921  19.272  0.00  0.00    +0.000 OA
ATOM      4  H   UNL     1       2.602   5.186  17.596  0.00  0.00    +0.000 HD
ENDROOT
BRANCH   1   9
ATOM      5  C   UNL     1       0.782  10.809  19.754  0.00  0.00    +0.000 C 
ATOM      6  C   UNL     1       1.394   9.500  19.341  0.00  0.00    +0.000 A 
ATOM      7  C   UNL     1       1.867   9.351  18.032  0.00  0.00    +0.000 A 
ATOM      8  C   UNL     1       2.457   8.148  17.615  0.00  0.00    +0.000 A 
ATOM      9  C   UNL     1       2.597   7.069  18.489  0.00  0.00    +0.000 A 
ATOM     10  C   UNL     1       2.117   7.211  19.797  0.00  0.00    +0.000 A 
ATOM     11  C   UNL     1       1.518   8.410  20.214  0.00  0.00    +0.000 A 
ATOM     12 CL   UNL     1       0.929   8.501  21.839  0.00  0.00    +0.000 Cl
ENDBRANCH   1   9
BRANCH   2  13
ATOM     13  C   UNL     1       4.816   3.992  17.874  0.00  0.00    +0.000 C 
BRANCH  13  14
ATOM     14  N   UNL     1       5.314   3.148  18.950  0.00  0.00    +0.000 N 
ATOM     15  C   UNL     1       4.508   2.292  19.628  0.00  0.00    +0.000 C 
ATOM     16  N   UNL     1       5.164   1.622  20.605  0.00  0.00    +0.000 N 
ATOM     17  O   UNL     1       3.332   2.095  19.366  0.00  0.00    +0.000 OA
ATOM     18  H   UNL     1       6.185   3.417  19.385  0.00  0.00    +0.000 HD
ATOM     19  H   UNL     1       5.954   2.049  21.066  0.00  0.00    +0.000 HD
ATOM     20  H   UNL     1       4.588   1.021  21.182  0.00  0.00    +0.000 HD
ENDBRANCH  13  14
BRANCH  13  21
ATOM     21  C   UNL     1       5.914   4.170  16.803  0.00  0.00    +0.000 C 
BRANCH  21  22
ATOM     22  C   UNL     1       5.398   4.575  15.406  0.00  0.00    +0.000 C 
ATOM     23  C   UNL     1       5.359   6.089  15.193  0.00  0.00    +0.000 C 
ATOM     24  C   UNL     1       6.267   3.930  14.319  0.00  0.00    +0.000 C 
ENDBRANCH  21  22
ENDBRANCH  13  21
ENDBRANCH   2  13
TORSDOF 5
ENDMDL
MODEL 6
REMARK VINA RESULT:      -7.4      1.450      1.827
REMARK  Name = 
REMARK  8 active torsions:
REMARK  status: ('A' for Active; 'I' for Inactive)
REMARK    1  A    between atoms: C_1  and  C_2
REMARK    2  A    between atoms: C_5  and  N_6
REMARK    3  A    between atoms: C_7  and  C_9
REMARK    4  A    between atoms: C_9  and  C_10
REMARK    5  A    between atoms: C_9  and  N_14
REMARK    6  A    between atoms: C_10  and  C_11
REMARK    7  A    between atoms: C_11  and  C_12
REMARK    8  A    between atoms: C_11  and  C_13
REMARK                            x       y       z     vdW  Elec       q    Type
REMARK                         _______ _______ _______ _____ _____    ______ ____
ROOT
ATOM      1  N   UNL     1       3.417   5.743  18.106  0.00  0.00    +0.000 N 
ATOM      2  C   UNL     1       4.549   5.216  18.722  0.00  0.00    +0.000 C 
ATOM      3  O   UNL     1       5.090   5.668  19.729  0.00  0.00    +0.000 OA
ATOM      4  H   UNL     1       2.982   5.165  17.389  0.00  0.00    +0.000 HD
ENDROOT
BRANCH   1   9
ATOM      5  C   UNL     1       0.721  10.618  19.579  0.00  0.00    +0.000 C 
ATOM      6  C   UNL     1       1.409   9.335  19.207  0.00  0.00    +0.000 A 
ATOM      7  C   UNL     1       1.930   9.190  17.916  0.00  0.00    +0.000 A 
ATOM      8  C   UNL     1       2.591   8.011  17.538  0.00  0.00    +0.000 A 
ATOM      9  C   UNL     1       2.756   6.954  18.433  0.00  0.00    +0.000 A 
ATOM     10  C   UNL     1       2.228   7.092  19.724  0.00  0.00    +0.000 A 
ATOM     11  C   UNL     1       1.558   8.266  20.102  0.00  0.00    +0.000 A 
ATOM     12 CL   UNL     1       0.914   8.353  21.706  0.00  0.00    +0.000 Cl
ENDBRANCH   1   9
BRANCH   2  13
ATOM     13  C   UNL     1       5.052   3.891  18.093  0.00  0.00    +0.000 C 
BRANCH  13  14
ATOM     14  N   UNL     1       5.807   4.224  16.893  0.00  0.00    +0.000 N 
ATOM     15  C   UNL     1       7.138   4.491  16.929  0.00  0.00    +0.000 C 
ATOM     16  N   UNL     1       7.640   4.803  15.710  0.00  0.00    +0.000 N 
ATOM     17  O   UNL     1       7.832   4.411  17.931  0.00  0.00    +0.000 OA
ATOM     18  H   UNL     1       5.285   4.546  16.091  0.00  0.00    +0.000 HD
ATOM     19  H   UNL     1       7.051   5.247  15.022  0.00  0.00    +0.000 HD
ATOM     20  H   UNL     1       8.615   5.075  15.699  0.00  0.00    +0.000 HD
ENDBRANCH  13  14
BRANCH  13  21
ATOM     21  C   UNL     1       3.846   3.003  17.717  0.00  0.00    +0.000 C 
BRANCH  21  22
ATOM     22  C   UNL     1       3.392   2.024  18.820  0.00  0.00    +0.000 C 
ATOM     23  C   UNL     1       4.352   1.969  20.010  0.00  0.00    +0.000 C 
ATOM     24  C   UNL     1       1.991   2.404  19.314  0.00  0.00    +0.000 C 
ENDBRANCH  21  22
ENDBRANCH  13  21
ENDBRANCH   2  13
TORSDOF 5
ENDMDL
MODEL 7
REMARK VINA RESULT:      -7.3      1.781      2.041
REMARK  Name = 
REMARK  8 active torsions:
REMARK  status: ('A' for Active; 'I' for Inactive)
REMARK    1  A    between atoms: C_1  and  C_2
REMARK    2  A    between atoms: C_5  and  N_6
REMARK    3  A    between atoms: C_7  and  C_9
REMARK    4  A    between atoms: C_9  and  C_10
REMARK    5  A    between atoms: C_9  and  N_14
REMARK    6  A    between atoms: C_10  and  C_11
REMARK    7  A    between atoms: C_11  and  C_12
REMARK    8  A    between atoms: C_11  and  C_13
REMARK                            x       y       z     vdW  Elec       q    Type
REMARK                         _______ _______ _______ _____ _____    ______ ____
ROOT
ATOM      1  N   UNL     1       3.399   6.030  17.847  0.00  0.00    +0.000 N 
ATOM      2  C   UNL     1       4.612   5.528  18.306  0.00  0.00    +0.000 C 
ATOM      3  O   UNL     1       5.237   5.947  19.279  0.00  0.00    +0.000 OA
ATOM      4  H   UNL     1       2.916   5.474  17.143  0.00  0.00    +0.000 HD
ENDROOT
BRANCH   1   9
ATOM      5  C   UNL     1       0.646  10.659  19.900  0.00  0.00    +0.000 C 
ATOM      6  C   UNL     1       1.350   9.438  19.376  0.00  0.00    +0.000 A 
ATOM      7  C   UNL     1       1.811   9.431  18.055  0.00  0.00    +0.000 A 
ATOM      8  C   UNL     1       2.484   8.314  17.536  0.00  0.00    +0.000 A 
ATOM      9  C   UNL     1       2.721   7.184  18.318  0.00  0.00    +0.000 A 
ATOM     10  C   UNL     1       2.254   7.184  19.639  0.00  0.00    +0.000 A 
ATOM     11  C   UNL     1       1.572   8.295  20.157  0.00  0.00    +0.000 A 
ATOM     12 CL   UNL     1       1.005   8.211  21.790  0.00  0.00    +0.000 Cl
ENDBRANCH   1   9
BRANCH   2  13
ATOM     13  C   UNL     1       5.105   4.271  17.544  0.00  0.00    +0.000 C 
BRANCH  13  14
ATOM     14  N   UNL     1       5.764   4.716  16.325  0.00  0.00    +0.000 N 
ATOM     15  C   UNL     1       7.116   4.762  16.210  0.00  0.00    +0.000 C 
ATOM     16  N   UNL     1       7.521   5.230  15.005  0.00  0.00    +0.000 N 
ATOM     17  O   UNL     1       7.896   4.378  17.067  0.00  0.00    +0.000 OA
ATOM     18  H   UNL     1       5.218   5.269  15.679  0.00  0.00    +0.000 HD
ATOM     19  H   UNL     1       6.945   5.888  14.501  0.00  0.00    +0.000 HD
ATOM     20  H   UNL     1       8.521   5.345  14.899  0.00  0.00    +0.000 HD
ENDBRANCH  13  14
BRANCH  13  21
ATOM     21  C   UNL     1       3.900   3.374  17.186  0.00  0.00    +0.000 C 
BRANCH  21  22
ATOM     22  C   UNL     1       3.191   2.726  18.393  0.00  0.00    +0.000 C 
ATOM     23  C   UNL     1       1.666   2.785  18.301  0.00  0.00    +0.000 C 
ATOM     24  C   UNL     1       3.636   1.265  18.540  0.00  0.00    +0.000 C 
ENDBRANCH  21  22
ENDBRANCH  13  21
ENDBRANCH   2  13
TORSDOF 5
ENDMDL
MODEL 8
REMARK VINA RESULT:      -7.3      2.143      3.334
REMARK  Name = 
REMARK  8 active torsions:
REMARK  status: ('A' for Active; 'I' for Inactive)
REMARK    1  A    between atoms: C_1  and  C_2
REMARK    2  A    between atoms: C_5  and  N_6
REMARK    3  A    between atoms: C_7  and  C_9
REMARK    4  A    between atoms: C_9  and  C_10
REMARK    5  A    between atoms: C_9  and  N_14
REMARK    6  A    between atoms: C_10  and  C_11
REMARK    7  A    between atoms: C_11  and  C_12
REMARK    8  A    between atoms: C_11  and  C_13
REMARK                            x       y       z     vdW  Elec       q    Type
REMARK                         _______ _______ _______ _____ _____    ______ ____
ROOT
ATOM      1  N   UNL     1       3.038   6.623  18.221  0.00  0.00    +0.000 N 
ATOM      2  C   UNL     1       2.683   5.277  18.239  0.00  0.00    +0.000 C 
ATOM      3  O   UNL     1       1.589   4.831  18.578  0.00  0.00    +0.000 OA
ATOM      4  H   UNL     1       3.912   6.855  17.753  0.00  0.00    +0.000 HD
ENDROOT
BRANCH   1   9
ATOM      5  C   UNL     1      -0.063  11.000  20.329  0.00  0.00    +0.000 C 
ATOM      6  C   UNL     1       0.735   9.844  19.793  0.00  0.00    +0.000 A 
ATOM      7  C   UNL     1       1.047   9.805  18.430  0.00  0.00    +0.000 A 
ATOM      8  C   UNL     1       1.801   8.748  17.896  0.00  0.00    +0.000 A 
ATOM      9  C   UNL     1       2.269   7.713  18.705  0.00  0.00    +0.000 A 
ATOM     10  C   UNL     1       1.952   7.744  20.070  0.00  0.00    +0.000 A 
ATOM     11  C   UNL     1       1.189   8.794  20.603  0.00  0.00    +0.000 A 
ATOM     12 CL   UNL     1       0.818   8.751  22.293  0.00  0.00    +0.000 Cl
ENDBRANCH   1   9
BRANCH   2  13
ATOM     13  C   UNL     1       3.772   4.329  17.674  0.00  0.00    +0.000 C 
BRANCH  13  14
ATOM     14  N   UNL     1       4.438   3.691  18.799  0.00  0.00    +0.000 N 
ATOM     15  C   UNL     1       4.188   2.404  19.152  0.00  0.00    +0.000 C 
ATOM     16  N   UNL     1       4.892   2.015  20.241  0.00  0.00    +0.000 N 
ATOM     17  O   UNL     1       3.451   1.649  18.535  0.00  0.00    +0.000 OA
ATOM     18  H   UNL     1       4.859   4.295  19.491  0.00  0.00    +0.000 HD
ATOM     19  H   UNL     1       5.149   2.693  20.943  0.00  0.00    +0.000 HD
ATOM     20  H   UNL     1       4.687   1.084  20.581  0.00  0.00    +0.000 HD
ENDBRANCH  13  14
BRANCH  13  21
ATOM     21  C   UNL     1       4.798   5.145  16.857  0.00  0.00    +0.000 C 
BRANCH  21  22
ATOM     22  C   UNL     1       5.781   4.299  16.020  0.00  0.00    +0.000 C 
ATOM     23  C   UNL     1       5.509   4.370  14.516  0.00  0.00    +0.000 C 
ATOM     24  C   UNL     1       7.222   4.742  16.298  0.00  0.00    +0.000 C 
ENDBRANCH  21  22
ENDBRANCH  13  21
ENDBRANCH   2  13
TORSDOF 5
ENDMDL
MODEL 9
REMARK VINA RESULT:      -7.2      1.835      2.379
REMARK  Name = 
REMARK  8 active torsions:
REMARK  status: ('A' for Active; 'I' for Inactive)
REMARK    1  A    between atoms: C_1  and  C_2
REMARK    2  A    between atoms: C_5  and  N_6
REMARK    3  A    between atoms: C_7  and  C_9
REMARK    4  A    between atoms: C_9  and  C_10
REMARK    5  A    between atoms: C_9  and  N_14
REMARK    6  A    between atoms: C_10  and  C_11
REMARK    7  A    between atoms: C_11  and  C_12
REMARK    8  A    between atoms: C_11  and  C_13
REMARK                            x       y       z     vdW  Elec       q    Type
REMARK                         _______ _______ _______ _____ _____    ______ ____
ROOT
ATOM      1  N   UNL     1       3.081   5.747  18.388  0.00  0.00    +0.000 N 
ATOM      2  C   UNL     1       4.335   5.216  18.673  0.00  0.00    +0.000 C 
ATOM      3  O   UNL     1       5.030   5.505  19.646  0.00  0.00    +0.000 OA
ATOM      4  H   UNL     1       2.552   5.286  17.649  0.00  0.00    +0.000 HD
ENDROOT
BRANCH   1   9
ATOM      5  C   UNL     1       0.421  10.109  21.054  0.00  0.00    +0.000 C 
ATOM      6  C   UNL     1       1.129   8.986  20.350  0.00  0.00    +0.000 A 
ATOM      7  C   UNL     1       1.287   7.761  21.007  0.00  0.00    +0.000 A 
ATOM      8  C   UNL     1       1.932   6.685  20.375  0.00  0.00    +0.000 A 
ATOM      9  C   UNL     1       2.425   6.800  19.076  0.00  0.00    +0.000 A 
ATOM     10  C   UNL     1       2.276   8.028  18.417  0.00  0.00    +0.000 A 
ATOM     11  C   UNL     1       1.642   9.107  19.051  0.00  0.00    +0.000 A 
ATOM     12 CL   UNL     1       1.516  10.599  18.181  0.00  0.00    +0.000 Cl
ENDBRANCH   1   9
BRANCH   2  13
ATOM     13  C   UNL     1       4.785   4.098  17.698  0.00  0.00    +0.000 C 
BRANCH  13  14
ATOM     14  N   UNL     1       5.565   4.718  16.636  0.00  0.00    +0.000 N 
ATOM     15  C   UNL     1       6.914   4.846  16.712  0.00  0.00    +0.000 C 
ATOM     16  N   UNL     1       7.440   5.473  15.633  0.00  0.00    +0.000 N 
ATOM     17  O   UNL     1       7.601   4.404  17.620  0.00  0.00    +0.000 OA
ATOM     18  H   UNL     1       5.072   5.314  15.987  0.00  0.00    +0.000 HD
ATOM     19  H   UNL     1       6.892   6.156  15.131  0.00  0.00    +0.000 HD
ATOM     20  H   UNL     1       8.436   5.651  15.677  0.00  0.00    +0.000 HD
ENDBRANCH  13  14
BRANCH  13  21
ATOM     21  C   UNL     1       3.545   3.405  17.094  0.00  0.00    +0.000 C 
BRANCH  21  22
ATOM     22  C   UNL     1       3.036   2.181  17.884  0.00  0.00    +0.000 C 
ATOM     23  C   UNL     1       3.933   1.810  19.066  0.00  0.00    +0.000 C 
ATOM     24  C   UNL     1       1.610   2.437  18.387  0.00  0.00    +0.000 C 
ENDBRANCH  21  22
ENDBRANCH  13  21
ENDBRANCH   2  13
TORSDOF 5
ENDMDL
