MODEL 1
REMARK VINA RESULT:      -8.0      0.000      0.000
REMARK  Name = 
REMARK  4 active torsions:
REMARK  status: ('A' for Active; 'I' for Inactive)
REMARK    1  A    between atoms: C_1  and  C_2
REMARK    2  A    between atoms: C_5  and  C_6
REMARK    3  A    between atoms: C_14  and  C_15
REMARK    4  A    between atoms: C_18  and  C_19
REMARK                            x       y       z     vdW  Elec       q    Type
REMARK                         _______ _______ _______ _____ _____    ______ ____
ROOT
ATOM      1  C   UNL     1       4.899   3.713  18.985  0.00  0.00    +0.000 C 
ATOM      2  O   UNL     1       5.502   3.017  19.808  0.00  0.00    +0.000 OA
ATOM      3  N   UNL     1       3.599   4.200  19.239  0.00  0.00    +0.000 N 
ATOM      4  C   UNL     1       3.088   4.074  20.600  0.00  0.00    +0.000 C 
ATOM      5  C   UNL     1       2.337   2.764  20.826  0.00  0.00    +0.000 C 
ATOM      6  C   UNL     1       0.908   2.776  20.290  0.00  0.00    +0.000 C 
ATOM      7  C   UNL     1       0.802   3.035  18.791  0.00  0.00    +0.000 C 
ATOM      8  C   UNL     1       1.179   4.463  18.416  0.00  0.00    +0.000 C 
ATOM      9  C   UNL     1       2.683   4.701  18.176  0.00  0.00    +0.000 C 
ENDROOT
BRANCH   1  14
ATOM     10  C   UNL     1       7.458   5.261  14.139  0.00  0.00    +0.000 C 
ATOM     11  C   UNL     1       6.830   4.826  15.425  0.00  0.00    +0.000 A 
ATOM     12  C   UNL     1       5.695   4.028  15.418  0.00  0.00    +0.000 A 
ATOM     13  N   UNL     1       5.082   3.636  16.554  0.00  0.00    +0.000 NA
ATOM     14  C   UNL     1       5.619   4.057  17.720  0.00  0.00    +0.000 A 
ATOM     15  C   UNL     1       6.749   4.859  17.733  0.00  0.00    +0.000 A 
ATOM     16  N   UNL     1       7.382   5.249  16.591  0.00  0.00    +0.000 NA
ENDBRANCH   1  14
BRANCH   9  17
ATOM     17  C   UNL     1       2.854   6.168  17.894  0.00  0.00    +0.000 A 
ATOM     18  N   UNL     1       3.876   6.756  17.303  0.00  0.00    +0.000 NA
ATOM     19  N   UNL     1       3.623   8.105  17.342  0.00  0.00    +0.000 NA
ATOM     20  C   UNL     1       2.466   8.254  17.958  0.00  0.00    +0.000 A 
ATOM     21  O   UNL     1       1.891   7.058  18.303  0.00  0.00    +0.000 OA
BRANCH  20  22
ATOM     22  C   UNL     1       1.786   9.479  18.351  0.00  0.00    +0.000 A 
ATOM     23  C   UNL     1       2.348  10.714  17.993  0.00  0.00    +0.000 A 
ATOM     24  C   UNL     1       1.765  11.913  18.410  0.00  0.00    +0.000 A 
ATOM     25  C   UNL     1       0.612  11.888  19.189  0.00  0.00    +0.000 A 
ATOM     26  C   UNL     1       0.031  10.669  19.537  0.00  0.00    +0.000 A 
ATOM     27  C   UNL     1       0.613   9.469  19.118  0.00  0.00    +0.000 A 
ENDBRANCH  20  22
ENDBRANCH   9  17
TORSDOF 3
ENDMDL
MODEL 2
REMARK VINA RESULT:      -7.8      0.692      1.026
REMARK  Name = 
REMARK  4 active torsions:
REMARK  status: ('A' for Active; 'I' for Inactive)
REMARK    1  A    between atoms: C_1  and  C_2
REMARK    2  A    between atoms: C_5  and  C_6
REMARK    3  A    between atoms: C_14  and  C_15
REMARK    4  A    between atoms: C_18  and  C_19
REMARK                            x       y       z     vdW  Elec       q    Type
REMARK                         _______ _______ _______ _____ _____    ______ ____
ROOT
ATOM      1  C   UNL     1       4.902   3.879  19.049  0.00  0.00    +0.000 C 
ATOM      2  O   UNL     1       5.614   3.210  19.805  0.00  0.00    +0.000 OA
ATOM      3  N   UNL     1       3.608   4.296  19.430  0.00  0.00    +0.000 N 
ATOM      4  C   UNL     1       3.235   4.136  20.831  0.00  0.00    +0.000 C 
ATOM      5  C   UNL     1       2.577   2.788  21.113  0.00  0.00    +0.000 C 
ATOM      6  C   UNL     1       1.106   2.728  20.714  0.00  0.00    +0.000 C 
ATOM      7  C   UNL     1       0.845   2.990  19.235  0.00  0.00    +0.000 C 
ATOM      8  C   UNL     1       1.112   4.437  18.840  0.00  0.00    +0.000 C 
ATOM      9  C   UNL     1       2.572   4.755  18.462  0.00  0.00    +0.000 C 
ENDROOT
BRANCH   1  14
ATOM     10  C   UNL     1       7.321   5.140  14.052  0.00  0.00    +0.000 C 
ATOM     11  C   UNL     1       6.640   4.832  15.346  0.00  0.00    +0.000 A 
ATOM     12  C   UNL     1       7.078   5.414  16.527  0.00  0.00    +0.000 A 
ATOM     13  N   UNL     1       6.510   5.143  17.720  0.00  0.00    +0.000 NA
ATOM     14  C   UNL     1       5.481   4.266  17.726  0.00  0.00    +0.000 A 
ATOM     15  C   UNL     1       5.043   3.677  16.551  0.00  0.00    +0.000 A 
ATOM     16  N   UNL     1       5.603   3.955  15.340  0.00  0.00    +0.000 NA
ENDBRANCH   1  14
BRANCH   9  17
ATOM     17  C   UNL     1       2.640   6.230  18.181  0.00  0.00    +0.000 A 
ATOM     18  N   UNL     1       3.524   6.862  17.434  0.00  0.00    +0.000 NA
ATOM     19  N   UNL     1       3.234   8.200  17.538  0.00  0.00    +0.000 NA
ATOM     20  C   UNL     1       2.195   8.298  18.345  0.00  0.00    +0.000 A 
ATOM     21  O   UNL     1       1.730   7.078  18.763  0.00  0.00    +0.000 OA
BRANCH  20  22
ATOM     22  C   UNL     1       1.549   9.492  18.869  0.00  0.00    +0.000 A 
ATOM     23  C   UNL     1       1.788  10.726  18.244  0.00  0.00    +0.000 A 
ATOM     24  C   UNL     1       1.245  11.906  18.756  0.00  0.00    +0.000 A 
ATOM     25  C   UNL     1       0.454  11.863  19.901  0.00  0.00    +0.000 A 
ATOM     26  C   UNL     1       0.191  10.644  20.523  0.00  0.00    +0.000 A 
ATOM     27  C   UNL     1       0.734   9.462  20.009  0.00  0.00    +0.000 A 
ENDBRANCH  20  22
ENDBRANCH   9  17
TORSDOF 3
ENDMDL
MODEL 3
REMARK VINA RESULT:      -7.7      5.097      9.433
REMARK  Name = 
REMARK  4 active torsions:
REMARK  status: ('A' for Active; 'I' for Inactive)
REMARK    1  A    between atoms: C_1  and  C_2
REMARK    2  A    between atoms: C_5  and  C_6
REMARK    3  A    between atoms: C_14  and  C_15
REMARK    4  A    between atoms: C_18  and  C_19
REMARK                            x       y       z     vdW  Elec       q    Type
REMARK                         _______ _______ _______ _____ _____    ______ ____
ROOT
ATOM      1  C   UNL     1      -0.785  13.906  20.554  0.00  0.00    +0.000 C 
ATOM      2  O   UNL     1      -1.201  14.665  19.672  0.00  0.00    +0.000 OA
ATOM      3  N   UNL     1      -1.616  12.930  21.143  0.00  0.00    +0.000 N 
ATOM      4  C   UNL     1      -2.902  12.670  20.507  0.00  0.00    +0.000 C 
ATOM      5  C   UNL     1      -4.020  13.550  21.060  0.00  0.00    +0.000 C 
ATOM      6  C   UNL     1      -4.581  13.063  22.393  0.00  0.00    +0.000 C 
ATOM      7  C   UNL     1      -3.552  12.984  23.516  0.00  0.00    +0.000 C 
ATOM      8  C   UNL     1      -2.533  11.874  23.298  0.00  0.00    +0.000 C 
ATOM      9  C   UNL     1      -1.313  12.263  22.441  0.00  0.00    +0.000 C 
ENDROOT
BRANCH   1  14
ATOM     10  C   UNL     1       4.714  14.628  21.844  0.00  0.00    +0.000 C 
ATOM     11  C   UNL     1       3.264  14.413  21.553  0.00  0.00    +0.000 A 
ATOM     12  C   UNL     1       2.871  13.608  20.493  0.00  0.00    +0.000 A 
ATOM     13  N   UNL     1       1.574  13.410  20.179  0.00  0.00    +0.000 NA
ATOM     14  C   UNL     1       0.653  14.036  20.945  0.00  0.00    +0.000 A 
ATOM     15  C   UNL     1       1.040  14.846  22.001  0.00  0.00    +0.000 A 
ATOM     16  N   UNL     1       2.347  15.042  22.333  0.00  0.00    +0.000 NA
ENDBRANCH   1  14
BRANCH   9  17
ATOM     17  C   UNL     1      -0.475  11.024  22.284  0.00  0.00    +0.000 A 
ATOM     18  N   UNL     1       0.060  10.294  23.244  0.00  0.00    +0.000 NA
ATOM     19  N   UNL     1       0.800   9.318  22.621  0.00  0.00    +0.000 NA
ATOM     20  C   UNL     1       0.673   9.519  21.324  0.00  0.00    +0.000 A 
ATOM     21  O   UNL     1      -0.163  10.565  21.028  0.00  0.00    +0.000 OA
BRANCH  20  22
ATOM     22  C   UNL     1       1.328   8.834  20.220  0.00  0.00    +0.000 A 
ATOM     23  C   UNL     1       1.336   9.437  18.953  0.00  0.00    +0.000 A 
ATOM     24  C   UNL     1       1.892   8.782  17.852  0.00  0.00    +0.000 A 
ATOM     25  C   UNL     1       2.448   7.516  18.008  0.00  0.00    +0.000 A 
ATOM     26  C   UNL     1       2.465   6.911  19.264  0.00  0.00    +0.000 A 
ATOM     27  C   UNL     1       1.911   7.568  20.367  0.00  0.00    +0.000 A 
ENDBRANCH  20  22
ENDBRANCH   9  17
TORSDOF 3
ENDMDL
MODEL 4
REMARK VINA RESULT:      -7.7      1.767      4.767
REMARK  Name = 
REMARK  4 active torsions:
REMARK  status: ('A' for Active; 'I' for Inactive)
REMARK    1  A    between atoms: C_1  and  C_2
REMARK    2  A    between atoms: C_5  and  C_6
REMARK    3  A    between atoms: C_14  and  C_15
REMARK    4  A    between atoms: C_18  and  C_19
REMARK                            x       y       z     vdW  Elec       q    Type
REMARK                         _______ _______ _______ _____ _____    ______ ____
ROOT
ATOM      1  C   UNL     1       4.168   3.811  17.131  0.00  0.00    +0.000 C 
ATOM      2  O   UNL     1       4.319   2.815  16.417  0.00  0.00    +0.000 OA
ATOM      3  N   UNL     1       4.680   5.072  16.759  0.00  0.00    +0.000 N 
ATOM      4  C   UNL     1       5.169   5.222  15.392  0.00  0.00    +0.000 C 
ATOM      5  C   UNL     1       6.654   4.894  15.260  0.00  0.00    +0.000 C 
ATOM      6  C   UNL     1       7.574   6.024  15.715  0.00  0.00    +0.000 C 
ATOM      7  C   UNL     1       7.392   6.436  17.171  0.00  0.00    +0.000 C 
ATOM      8  C   UNL     1       6.061   7.136  17.419  0.00  0.00    +0.000 C 
ATOM      9  C   UNL     1       4.873   6.199  17.715  0.00  0.00    +0.000 C 
ENDROOT
BRANCH   1  14
ATOM     10  C   UNL     1       1.088   2.877  21.828  0.00  0.00    +0.000 C 
ATOM     11  C   UNL     1       1.925   3.159  20.623  0.00  0.00    +0.000 A 
ATOM     12  C   UNL     1       1.353   3.699  19.480  0.00  0.00    +0.000 A 
ATOM     13  N   UNL     1       2.066   3.944  18.362  0.00  0.00    +0.000 NA
ATOM     14  C   UNL     1       3.382   3.637  18.392  0.00  0.00    +0.000 A 
ATOM     15  C   UNL     1       3.958   3.092  19.528  0.00  0.00    +0.000 A 
ATOM     16  N   UNL     1       3.248   2.853  20.666  0.00  0.00    +0.000 NA
ENDBRANCH   1  14
BRANCH   9  17
ATOM     17  C   UNL     1       3.655   7.069  17.854  0.00  0.00    +0.000 A 
ATOM     18  N   UNL     1       3.060   7.770  16.909  0.00  0.00    +0.000 NA
ATOM     19  N   UNL     1       2.045   8.463  17.522  0.00  0.00    +0.000 NA
ATOM     20  C   UNL     1       2.090   8.145  18.801  0.00  0.00    +0.000 A 
ATOM     21  O   UNL     1       3.065   7.224  19.085  0.00  0.00    +0.000 OA
BRANCH  20  22
ATOM     22  C   UNL     1       1.305   8.673  19.906  0.00  0.00    +0.000 A 
ATOM     23  C   UNL     1       0.438   9.751  19.672  0.00  0.00    +0.000 A 
ATOM     24  C   UNL     1      -0.281  10.333  20.719  0.00  0.00    +0.000 A 
ATOM     25  C   UNL     1      -0.140   9.839  22.013  0.00  0.00    +0.000 A 
ATOM     26  C   UNL     1       0.702   8.756  22.259  0.00  0.00    +0.000 A 
ATOM     27  C   UNL     1       1.420   8.173  21.211  0.00  0.00    +0.000 A 
ENDBRANCH  20  22
ENDBRANCH   9  17
TORSDOF 3
ENDMDL
MODEL 5
REMARK VINA RESULT:      -7.5      5.368      9.845
REMARK  Name = 
REMARK  4 active torsions:
REMARK  status: ('A' for Active; 'I' for Inactive)
REMARK    1  A    between atoms: C_1  and  C_2
REMARK    2  A    between atoms: C_5  and  C_6
REMARK    3  A    between atoms: C_14  and  C_15
REMARK    4  A    between atoms: C_18  and  C_19
REMARK                            x       y       z     vdW  Elec       q    Type
REMARK                         _______ _______ _______ _____ _____    ______ ____
ROOT
ATOM      1  C   UNL     1      -1.275  14.221  20.930  0.00  0.00    +0.000 C 
ATOM      2  O   UNL     1      -1.738  15.016  20.105  0.00  0.00    +0.000 OA
ATOM      3  N   UNL     1      -2.052  13.168  21.459  0.00  0.00    +0.000 N 
ATOM      4  C   UNL     1      -3.332  12.889  20.817  0.00  0.00    +0.000 C 
ATOM      5  C   UNL     1      -4.484  13.674  21.438  0.00  0.00    +0.000 C 
ATOM      6  C   UNL     1      -5.005  13.072  22.740  0.00  0.00    +0.000 C 
ATOM      7  C   UNL     1      -3.961  12.968  23.846  0.00  0.00    +0.000 C 
ATOM      8  C   UNL     1      -2.891  11.926  23.545  0.00  0.00    +0.000 C 
ATOM      9  C   UNL     1      -1.702  12.431  22.705  0.00  0.00    +0.000 C 
ENDROOT
BRANCH   1  14
ATOM     10  C   UNL     1       4.215  15.078  22.174  0.00  0.00    +0.000 C 
ATOM     11  C   UNL     1       2.766  14.835  21.898  0.00  0.00    +0.000 A 
ATOM     12  C   UNL     1       2.378  13.894  20.955  0.00  0.00    +0.000 A 
ATOM     13  N   UNL     1       1.083  13.663  20.656  0.00  0.00    +0.000 NA
ATOM     14  C   UNL     1       0.159  14.394  21.317  0.00  0.00    +0.000 A 
ATOM     15  C   UNL     1       0.541  15.340  22.255  0.00  0.00    +0.000 A 
ATOM     16  N   UNL     1       1.845  15.571  22.573  0.00  0.00    +0.000 NA
ENDBRANCH   1  14
BRANCH   9  17
ATOM     17  C   UNL     1      -0.807  11.248  22.459  0.00  0.00    +0.000 A 
ATOM     18  N   UNL     1      -0.168  10.526  23.359  0.00  0.00    +0.000 NA
ATOM     19  N   UNL     1       0.582   9.611  22.661  0.00  0.00    +0.000 NA
ATOM     20  C   UNL     1       0.357   9.837  21.382  0.00  0.00    +0.000 A 
ATOM     21  O   UNL     1      -0.555  10.839  21.172  0.00  0.00    +0.000 OA
BRANCH  20  22
ATOM     22  C   UNL     1       0.974   9.220  20.218  0.00  0.00    +0.000 A 
ATOM     23  C   UNL     1       1.649   7.999  20.372  0.00  0.00    +0.000 A 
ATOM     24  C   UNL     1       2.315   7.407  19.297  0.00  0.00    +0.000 A 
ATOM     25  C   UNL     1       2.311   8.032  18.052  0.00  0.00    +0.000 A 
ATOM     26  C   UNL     1       1.630   9.235  17.877  0.00  0.00    +0.000 A 
ATOM     27  C   UNL     1       0.961   9.826  18.954  0.00  0.00    +0.000 A 
ENDBRANCH  20  22
ENDBRANCH   9  17
TORSDOF 3
ENDMDL
MODEL 6
REMARK VINA RESULT:      -7.2      5.014      9.437
REMARK  Name = 
REMARK  4 active torsions:
REMARK  status: ('A' for Active; 'I' for Inactive)
REMARK    1  A    between atoms: C_1  and  C_2
REMARK    2  A    between atoms: C_5  and  C_6
REMARK    3  A    between atoms: C_14  and  C_15
REMARK    4  A    between atoms: C_18  and  C_19
REMARK                            x       y       z     vdW  Elec       q    Type
REMARK                         _______ _______ _______ _____ _____    ______ ____
ROOT
ATOM      1  C   UNL     1      -0.872  13.896  20.275  0.00  0.00    +0.000 C 
ATOM      2  O   UNL     1      -1.329  14.600  19.370  0.00  0.00    +0.000 OA
ATOM      3  N   UNL     1      -1.657  12.913  20.915  0.00  0.00    +0.000 N 
ATOM      4  C   UNL     1      -2.940  12.577  20.307  0.00  0.00    +0.000 C 
ATOM      5  C   UNL     1      -4.085  13.434  20.839  0.00  0.00    +0.000 C 
ATOM      6  C   UNL     1      -4.609  12.982  22.199  0.00  0.00    +0.000 C 
ATOM      7  C   UNL     1      -3.565  12.989  23.310  0.00  0.00    +0.000 C 
ATOM      8  C   UNL     1      -2.505  11.911  23.124  0.00  0.00    +0.000 C 
ATOM      9  C   UNL     1      -1.312  12.311  22.234  0.00  0.00    +0.000 C 
ENDROOT
BRANCH   1  14
ATOM     10  C   UNL     1       4.563  14.448  21.881  0.00  0.00    +0.000 C 
ATOM     11  C   UNL     1       3.149  14.325  21.412  0.00  0.00    +0.000 A 
ATOM     12  C   UNL     1       2.134  15.029  22.045  0.00  0.00    +0.000 A 
ATOM     13  N   UNL     1       0.843  14.926  21.671  0.00  0.00    +0.000 NA
ATOM     14  C   UNL     1       0.564  14.097  20.641  0.00  0.00    +0.000 A 
ATOM     15  C   UNL     1       1.573  13.387  20.009  0.00  0.00    +0.000 A 
ATOM     16  N   UNL     1       2.881  13.494  20.371  0.00  0.00    +0.000 NA
ENDBRANCH   1  14
BRANCH   9  17
ATOM     17  C   UNL     1      -0.428  11.101  22.117  0.00  0.00    +0.000 A 
ATOM     18  N   UNL     1       0.222  10.488  23.087  0.00  0.00    +0.000 NA
ATOM     19  N   UNL     1       0.956   9.491  22.492  0.00  0.00    +0.000 NA
ATOM     20  C   UNL     1       0.710   9.563  21.198  0.00  0.00    +0.000 A 
ATOM     21  O   UNL     1      -0.200  10.540  20.884  0.00  0.00    +0.000 OA
BRANCH  20  22
ATOM     22  C   UNL     1       1.305   8.806  20.107  0.00  0.00    +0.000 A 
ATOM     23  C   UNL     1       1.865   7.548  20.377  0.00  0.00    +0.000 A 
ATOM     24  C   UNL     1       2.507   6.820  19.374  0.00  0.00    +0.000 A 
ATOM     25  C   UNL     1       2.595   7.343  18.087  0.00  0.00    +0.000 A 
ATOM     26  C   UNL     1       2.027   8.583  17.797  0.00  0.00    +0.000 A 
ATOM     27  C   UNL     1       1.382   9.311  18.802  0.00  0.00    +0.000 A 
ENDBRANCH  20  22
ENDBRANCH   9  17
TORSDOF 3
ENDMDL
MODEL 7
REMARK VINA RESULT:      -7.2      3.993      8.767
REMARK  Name = 
REMARK  4 active torsions:
REMARK  status: ('A' for Active; 'I' for Inactive)
REMARK    1  A    between atoms: C_1  and  C_2
REMARK    2  A    between atoms: C_5  and  C_6
REMARK    3  A    between atoms: C_14  and  C_15
REMARK    4  A    between atoms: C_18  and  C_19
REMARK                            x       y       z     vdW  Elec       q    Type
REMARK                         _______ _______ _______ _____ _____    ______ ____
ROOT
ATOM      1  C   UNL     1      -0.323  14.118  19.999  0.00  0.00    +0.000 C 
ATOM      2  O   UNL     1      -1.001  15.147  19.916  0.00  0.00    +0.000 OA
ATOM      3  N   UNL     1      -0.884  12.897  20.431  0.00  0.00    +0.000 N 
ATOM      4  C   UNL     1      -2.337  12.823  20.531  0.00  0.00    +0.000 C 
ATOM      5  C   UNL     1      -2.853  13.223  21.911  0.00  0.00    +0.000 C 
ATOM      6  C   UNL     1      -2.724  12.120  22.958  0.00  0.00    +0.000 C 
ATOM      7  C   UNL     1      -1.295  11.643  23.196  0.00  0.00    +0.000 C 
ATOM      8  C   UNL     1      -0.729  10.875  22.009  0.00  0.00    +0.000 C 
ATOM      9  C   UNL     1      -0.074  11.744  20.917  0.00  0.00    +0.000 C 
ENDROOT
BRANCH   1  14
ATOM     10  C   UNL     1       5.072  14.718  18.282  0.00  0.00    +0.000 C 
ATOM     11  C   UNL     1       3.673  14.526  18.771  0.00  0.00    +0.000 A 
ATOM     12  C   UNL     1       2.717  13.941  17.954  0.00  0.00    +0.000 A 
ATOM     13  N   UNL     1       1.437  13.774  18.346  0.00  0.00    +0.000 NA
ATOM     14  C   UNL     1       1.111  14.206  19.584  0.00  0.00    +0.000 A 
ATOM     15  C   UNL     1       2.060  14.798  20.402  0.00  0.00    +0.000 A 
ATOM     16  N   UNL     1       3.358  14.959  20.020  0.00  0.00    +0.000 NA
ENDBRANCH   1  14
BRANCH   9  17
ATOM     17  C   UNL     1       0.349  10.815  19.813  0.00  0.00    +0.000 A 
ATOM     18  N   UNL     1      -0.143  10.748  18.591  0.00  0.00    +0.000 NA
ATOM     19  N   UNL     1       0.497   9.702  17.973  0.00  0.00    +0.000 NA
ATOM     20  C   UNL     1       1.332   9.195  18.858  0.00  0.00    +0.000 A 
ATOM     21  O   UNL     1       1.328   9.880  20.046  0.00  0.00    +0.000 OA
BRANCH  20  22
ATOM     22  C   UNL     1       2.178   8.015  18.753  0.00  0.00    +0.000 A 
ATOM     23  C   UNL     1       2.133   7.052  19.773  0.00  0.00    +0.000 A 
ATOM     24  C   UNL     1       2.978   5.941  19.746  0.00  0.00    +0.000 A 
ATOM     25  C   UNL     1       3.877   5.780  18.696  0.00  0.00    +0.000 A 
ATOM     26  C   UNL     1       3.921   6.718  17.665  0.00  0.00    +0.000 A 
ATOM     27  C   UNL     1       3.073   7.829  17.691  0.00  0.00    +0.000 A 
ENDBRANCH  20  22
ENDBRANCH   9  17
TORSDOF 3
ENDMDL
MODEL 8
REMARK VINA RESULT:      -7.1      1.828      4.846
REMARK  Name = 
REMARK  4 active torsions:
REMARK  status: ('A' for Active; 'I' for Inactive)
REMARK    1  A    between atoms: C_1  and  C_2
REMARK    2  A    between atoms: C_5  and  C_6
REMARK    3  A    between atoms: C_14  and  C_15
REMARK    4  A    between atoms: C_18  and  C_19
REMARK                            x       y       z     vdW  Elec       q    Type
REMARK                         _______ _______ _______ _____ _____    ______ ____
ROOT
ATOM      1  C   UNL     1       4.276   3.882  16.993  0.00  0.00    +0.000 C 
ATOM      2  O   UNL     1       4.505   2.954  16.211  0.00  0.00    +0.000 OA
ATOM      3  N   UNL     1       4.764   5.185  16.758  0.00  0.00    +0.000 N 
ATOM      4  C   UNL     1       5.327   5.464  15.441  0.00  0.00    +0.000 C 
ATOM      5  C   UNL     1       6.828   5.194  15.375  0.00  0.00    +0.000 C 
ATOM      6  C   UNL     1       7.679   6.310  15.976  0.00  0.00    +0.000 C 
ATOM      7  C   UNL     1       7.395   6.593  17.447  0.00  0.00    +0.000 C 
ATOM      8  C   UNL     1       6.028   7.228  17.668  0.00  0.00    +0.000 C 
ATOM      9  C   UNL     1       4.859   6.234  17.812  0.00  0.00    +0.000 C 
ENDROOT
BRANCH   1  14
ATOM     10  C   UNL     1       1.104   3.003  21.640  0.00  0.00    +0.000 C 
ATOM     11  C   UNL     1       1.908   3.196  20.394  0.00  0.00    +0.000 A 
ATOM     12  C   UNL     1       3.262   2.895  20.378  0.00  0.00    +0.000 A 
ATOM     13  N   UNL     1       4.030   3.080  19.284  0.00  0.00    +0.000 NA
ATOM     14  C   UNL     1       3.423   3.580  18.184  0.00  0.00    +0.000 A 
ATOM     15  C   UNL     1       2.072   3.888  18.197  0.00  0.00    +0.000 A 
ATOM     16  N   UNL     1       1.287   3.692  19.293  0.00  0.00    +0.000 NA
ENDBRANCH   1  14
BRANCH   9  17
ATOM     17  C   UNL     1       3.604   7.051  17.946  0.00  0.00    +0.000 A 
ATOM     18  N   UNL     1       2.919   7.630  16.979  0.00  0.00    +0.000 NA
ATOM     19  N   UNL     1       1.904   8.326  17.587  0.00  0.00    +0.000 NA
ATOM     20  C   UNL     1       2.037   8.131  18.885  0.00  0.00    +0.000 A 
ATOM     21  O   UNL     1       3.076   7.290  19.191  0.00  0.00    +0.000 OA
BRANCH  20  22
ATOM     22  C   UNL     1       1.287   8.720  19.984  0.00  0.00    +0.000 A 
ATOM     23  C   UNL     1       1.420   8.173  21.269  0.00  0.00    +0.000 A 
ATOM     24  C   UNL     1       0.666   8.662  22.337  0.00  0.00    +0.000 A 
ATOM     25  C   UNL     1      -0.231   9.706  22.130  0.00  0.00    +0.000 A 
ATOM     26  C   UNL     1      -0.362  10.273  20.863  0.00  0.00    +0.000 A 
ATOM     27  C   UNL     1       0.395   9.784  19.794  0.00  0.00    +0.000 A 
ENDBRANCH  20  22
ENDBRANCH   9  17
TORSDOF 3
ENDMDL
MODEL 9
REMARK VINA RESULT:      -7.1      6.437      9.930
REMARK  Name = 
REMARK  4 active torsions:
REMARK  status: ('A' for Active; 'I' for Inactive)
REMARK    1  A    between atoms: C_1  and  C_2
REMARK    2  A    between atoms: C_5  and  C_6
REMARK    3  A    between atoms: C_14  and  C_15
REMARK    4  A    between atoms: C_18  and  C_19
REMARK                            x       y       z     vdW  Elec       q    Type
REMARK                         _______ _______ _______ _____ _____    ______ ____
ROOT
ATOM      1  C   UNL     1      -0.434  13.818  22.221  0.00  0.00    +0.000 C 
ATOM      2  O   UNL     1       0.398  14.654  22.589  0.00  0.00    +0.000 OA
ATOM      3  N   UNL     1      -1.806  13.959  22.520  0.00  0.00    +0.000 N 
ATOM      4  C   UNL     1      -2.250  15.242  23.053  0.00  0.00    +0.000 C 
ATOM      5  C   UNL     1      -2.201  15.294  24.577  0.00  0.00    +0.000 C 
ATOM      6  C   UNL     1      -3.382  14.604  25.253  0.00  0.00    +0.000 C 
ATOM      7  C   UNL     1      -3.524  13.124  24.915  0.00  0.00    +0.000 C 
ATOM      8  C   UNL     1      -3.942  12.891  23.468  0.00  0.00    +0.000 C 
ATOM      9  C   UNL     1      -2.784  12.837  22.452  0.00  0.00    +0.000 C 
ENDROOT
BRANCH   1  14
ATOM     10  C   UNL     1       1.180   9.369  19.054  0.00  0.00    +0.000 C 
ATOM     11  C   UNL     1       0.806  10.558  19.879  0.00  0.00    +0.000 A 
ATOM     12  C   UNL     1       0.478  10.409  21.219  0.00  0.00    +0.000 A 
ATOM     13  N   UNL     1       0.109  11.451  21.993  0.00  0.00    +0.000 NA
ATOM     14  C   UNL     1       0.066  12.668  21.406  0.00  0.00    +0.000 A 
ATOM     15  C   UNL     1       0.385  12.822  20.066  0.00  0.00    +0.000 A 
ATOM     16  N   UNL     1       0.772  11.778  19.281  0.00  0.00    +0.000 NA
ENDBRANCH   1  14
BRANCH   9  17
ATOM     17  C   UNL     1      -3.404  12.677  21.092  0.00  0.00    +0.000 A 
ATOM     18  N   UNL     1      -4.611  13.049  20.713  0.00  0.00    +0.000 NA
ATOM     19  N   UNL     1      -4.759  12.626  19.415  0.00  0.00    +0.000 NA
ATOM     20  C   UNL     1      -3.635  12.018  19.088  0.00  0.00    +0.000 A 
ATOM     21  O   UNL     1      -2.702  12.048  20.092  0.00  0.00    +0.000 OA
BRANCH  20  22
ATOM     22  C   UNL     1      -3.302  11.302  17.866  0.00  0.00    +0.000 A 
ATOM     23  C   UNL     1      -4.104  11.484  16.729  0.00  0.00    +0.000 A 
ATOM     24  C   UNL     1      -3.861  10.763  15.558  0.00  0.00    +0.000 A 
ATOM     25  C   UNL     1      -2.810   9.852  15.511  0.00  0.00    +0.000 A 
ATOM     26  C   UNL     1      -1.992   9.672  16.626  0.00  0.00    +0.000 A 
ATOM     27  C   UNL     1      -2.234  10.396  17.798  0.00  0.00    +0.000 A 
ENDBRANCH  20  22
ENDBRANCH   9  17
TORSDOF 3
ENDMDL
