MODEL 1
REMARK VINA RESULT:      -8.3      0.000      0.000
REMARK  Name = 
REMARK  7 active torsions:
REMARK  status: ('A' for Active; 'I' for Inactive)
REMARK    1  A    between atoms: C_1  and  C_2
REMARK    2  A    between atoms: N_4  and  C_5
REMARK    3  A    between atoms: C_5  and  C_6
REMARK    4  A    between atoms: C_5  and  C_7
REMARK    5  A    between atoms: C_7  and  C_8
REMARK    6  A    between atoms: C_11  and  C_12
REMARK    7  A    between atoms: C_18  and  C_19
REMARK                            x       y       z     vdW  Elec       q    Type
REMARK                         _______ _______ _______ _____ _____    ______ ____
ROOT
ATOM      1  C   UNL     1       7.694   7.202  17.664  0.00  0.00    +0.000 C 
ATOM      2  C   UNL     1       7.439   8.705  17.434  0.00  0.00    +0.000 C 
ATOM      3  N   UNL     1       8.563   8.929  18.288  0.00  0.00    +0.000 N 
ATOM      4  C   UNL     1       9.011  10.151  18.800  0.00  0.00    +0.000 A 
ATOM      5  C   UNL     1       8.875  11.295  18.026  0.00  0.00    +0.000 A 
ATOM      6  C   UNL     1       9.319  12.520  18.506  0.00  0.00    +0.000 A 
ATOM      7  C   UNL     1       9.910  12.585  19.758  0.00  0.00    +0.000 A 
ATOM      8  N   UNL     1      10.047  11.459  20.493  0.00  0.00    +0.000 NA
ATOM      9  N   UNL     1       9.604  10.237  20.007  0.00  0.00    +0.000 NA
ATOM     10  C   UNL     1       8.390   7.681  18.963  0.00  0.00    +0.000 C 
ENDROOT
BRANCH   7  11
ATOM     11  C   UNL     1      10.371  13.849  20.358  0.00  0.00    +0.000 A 
ATOM     12  C   UNL     1       9.913  14.259  21.624  0.00  0.00    +0.000 A 
ATOM     13  C   UNL     1      10.302  15.484  22.176  0.00  0.00    +0.000 A 
ATOM     14  C   UNL     1      11.164  16.319  21.472  0.00  0.00    +0.000 A 
ATOM     15 CL   UNL     1      11.629  17.833  22.138  0.00  0.00    +0.000 Cl
ATOM     16  C   UNL     1      11.648  15.935  20.226  0.00  0.00    +0.000 A 
ATOM     17  C   UNL     1      11.259  14.710  19.680  0.00  0.00    +0.000 A 
ENDBRANCH   7  11
BRANCH   1  21
ATOM     18  C   UNL     1       4.406   4.248  17.684  0.00  0.00    +0.000 A 
ATOM     19  C   UNL     1       4.460   5.241  16.703  0.00  0.00    +0.000 A 
ATOM     20  C   UNL     1       5.484   6.189  16.712  0.00  0.00    +0.000 A 
ATOM     21  C   UNL     1       6.484   6.198  17.705  0.00  0.00    +0.000 A 
ATOM     22  C   UNL     1       6.386   5.209  18.700  0.00  0.00    +0.000 A 
ATOM     23  C   UNL     1       5.368   4.252  18.699  0.00  0.00    +0.000 A 
BRANCH  18  24
ATOM     24  C   UNL     1       3.341   3.176  17.643  0.00  0.00    +0.000 C 
BRANCH  24  25
ATOM     25  C   UNL     1       2.438   3.166  18.895  0.00  0.00    +0.000 C 
ATOM     26  C   UNL     1       1.210   2.289  18.660  0.00  0.00    +0.000 C 
BRANCH  25  30
ATOM     27  C   UNL     1       1.516   6.336  20.769  0.00  0.00    +0.000 C 
ATOM     28  C   UNL     1       1.969   4.913  20.590  0.00  0.00    +0.000 C 
ATOM     29  O   UNL     1       2.274   4.197  21.538  0.00  0.00    +0.000 OA
ATOM     30  N   UNL     1       2.021   4.513  19.274  0.00  0.00    +0.000 N 
ATOM     31  H   UNL     1       1.703   5.148  18.554  0.00  0.00    +0.000 HD
ENDBRANCH  25  30
ENDBRANCH  24  25
ENDBRANCH  18  24
ENDBRANCH   1  21
TORSDOF 5
ENDMDL
MODEL 2
REMARK VINA RESULT:      -8.2      0.493      1.004
REMARK  Name = 
REMARK  7 active torsions:
REMARK  status: ('A' for Active; 'I' for Inactive)
REMARK    1  A    between atoms: C_1  and  C_2
REMARK    2  A    between atoms: N_4  and  C_5
REMARK    3  A    between atoms: C_5  and  C_6
REMARK    4  A    between atoms: C_5  and  C_7
REMARK    5  A    between atoms: C_7  and  C_8
REMARK    6  A    between atoms: C_11  and  C_12
REMARK    7  A    between atoms: C_18  and  C_19
REMARK                            x       y       z     vdW  Elec       q    Type
REMARK                         _______ _______ _______ _____ _____    ______ ____
ROOT
ATOM      1  C   UNL     1       7.564   6.795  17.402  0.00  0.00    +0.000 C 
ATOM      2  C   UNL     1       7.250   8.293  17.231  0.00  0.00    +0.000 C 
ATOM      3  N   UNL     1       8.377   8.530  18.076  0.00  0.00    +0.000 N 
ATOM      4  C   UNL     1       8.786   9.750  18.625  0.00  0.00    +0.000 A 
ATOM      5  C   UNL     1       8.594  10.914  17.894  0.00  0.00    +0.000 A 
ATOM      6  C   UNL     1       9.000  12.138  18.412  0.00  0.00    +0.000 A 
ATOM      7  C   UNL     1       9.606  12.181  19.657  0.00  0.00    +0.000 A 
ATOM      8  N   UNL     1       9.798  11.036  20.349  0.00  0.00    +0.000 NA
ATOM      9  N   UNL     1       9.394   9.816  19.826  0.00  0.00    +0.000 NA
ATOM     10  C   UNL     1       8.261   7.254  18.709  0.00  0.00    +0.000 C 
ENDROOT
BRANCH   7  11
ATOM     11  C   UNL     1      10.028  13.440  20.295  0.00  0.00    +0.000 A 
ATOM     12  C   UNL     1       9.461  13.861  21.512  0.00  0.00    +0.000 A 
ATOM     13  C   UNL     1       9.815  15.082  22.096  0.00  0.00    +0.000 A 
ATOM     14  C   UNL     1      10.751  15.902  21.474  0.00  0.00    +0.000 A 
ATOM     15 CL   UNL     1      11.174  17.411  22.178  0.00  0.00    +0.000 Cl
ATOM     16  C   UNL     1      11.343  15.507  20.279  0.00  0.00    +0.000 A 
ATOM     17  C   UNL     1      10.988  14.286  19.702  0.00  0.00    +0.000 A 
ENDBRANCH   7  11
BRANCH   1  21
ATOM     18  C   UNL     1       4.158   3.982  17.542  0.00  0.00    +0.000 A 
ATOM     19  C   UNL     1       5.112   3.990  18.563  0.00  0.00    +0.000 A 
ATOM     20  C   UNL     1       6.201   4.861  18.505  0.00  0.00    +0.000 A 
ATOM     21  C   UNL     1       6.394   5.744  17.425  0.00  0.00    +0.000 A 
ATOM     22  C   UNL     1       5.437   5.691  16.394  0.00  0.00    +0.000 A 
ATOM     23  C   UNL     1       4.341   4.827  16.443  0.00  0.00    +0.000 A 
BRANCH  18  24
ATOM     24  C   UNL     1       2.939   3.091  17.629  0.00  0.00    +0.000 C 
BRANCH  24  25
ATOM     25  C   UNL     1       2.136   3.283  18.933  0.00  0.00    +0.000 C 
ATOM     26  C   UNL     1       0.823   2.505  18.871  0.00  0.00    +0.000 C 
BRANCH  25  30
ATOM     27  C   UNL     1       1.656   6.693  20.530  0.00  0.00    +0.000 C 
ATOM     28  C   UNL     1       1.976   5.225  20.466  0.00  0.00    +0.000 C 
ATOM     29  O   UNL     1       2.316   4.583  21.453  0.00  0.00    +0.000 OA
ATOM     30  N   UNL     1       1.865   4.693  19.202  0.00  0.00    +0.000 N 
ATOM     31  H   UNL     1       1.528   5.278  18.449  0.00  0.00    +0.000 HD
ENDBRANCH  25  30
ENDBRANCH  24  25
ENDBRANCH  18  24
ENDBRANCH   1  21
TORSDOF 5
ENDMDL
MODEL 3
REMARK VINA RESULT:      -7.9      1.164      1.702
REMARK  Name = 
REMARK  7 active torsions:
REMARK  status: ('A' for Active; 'I' for Inactive)
REMARK    1  A    between atoms: C_1  and  C_2
REMARK    2  A    between atoms: N_4  and  C_5
REMARK    3  A    between atoms: C_5  and  C_6
REMARK    4  A    between atoms: C_5  and  C_7
REMARK    5  A    between atoms: C_7  and  C_8
REMARK    6  A    between atoms: C_11  and  C_12
REMARK    7  A    between atoms: C_18  and  C_19
REMARK                            x       y       z     vdW  Elec       q    Type
REMARK                         _______ _______ _______ _____ _____    ______ ____
ROOT
ATOM      1  C   UNL     1       7.905   7.585  17.674  0.00  0.00    +0.000 C 
ATOM      2  C   UNL     1       7.609   9.087  17.498  0.00  0.00    +0.000 C 
ATOM      3  N   UNL     1       8.721   9.311  18.367  0.00  0.00    +0.000 N 
ATOM      4  C   UNL     1       9.131  10.526  18.928  0.00  0.00    +0.000 A 
ATOM      5  C   UNL     1       8.966  11.692  18.195  0.00  0.00    +0.000 A 
ATOM      6  C   UNL     1       9.373  12.911  18.723  0.00  0.00    +0.000 A 
ATOM      7  C   UNL     1       9.954  12.946  19.981  0.00  0.00    +0.000 A 
ATOM      8  N   UNL     1      10.119  11.798  20.674  0.00  0.00    +0.000 NA
ATOM      9  N   UNL     1       9.714  10.583  20.141  0.00  0.00    +0.000 NA
ATOM     10  C   UNL     1       8.579   8.034  18.995  0.00  0.00    +0.000 C 
ENDROOT
BRANCH   7  11
ATOM     11  C   UNL     1      10.375  14.200  20.630  0.00  0.00    +0.000 A 
ATOM     12  C   UNL     1      11.307  15.056  20.015  0.00  0.00    +0.000 A 
ATOM     13  C   UNL     1      11.755  16.220  20.650  0.00  0.00    +0.000 A 
ATOM     14  C   UNL     1      11.270  16.551  21.911  0.00  0.00    +0.000 A 
ATOM     15 CL   UNL     1      11.832  17.970  22.702  0.00  0.00    +0.000 Cl
ATOM     16  C   UNL     1      10.335  15.735  22.538  0.00  0.00    +0.000 A 
ATOM     17  C   UNL     1       9.889  14.576  21.900  0.00  0.00    +0.000 A 
ENDBRANCH   7  11
BRANCH   1  21
ATOM     18  C   UNL     1       4.461   4.814  17.704  0.00  0.00    +0.000 A 
ATOM     19  C   UNL     1       5.269   4.952  18.836  0.00  0.00    +0.000 A 
ATOM     20  C   UNL     1       6.372   5.808  18.816  0.00  0.00    +0.000 A 
ATOM     21  C   UNL     1       6.724   6.546  17.670  0.00  0.00    +0.000 A 
ATOM     22  C   UNL     1       5.913   6.362  16.534  0.00  0.00    +0.000 A 
ATOM     23  C   UNL     1       4.805   5.511  16.542  0.00  0.00    +0.000 A 
BRANCH  18  24
ATOM     24  C   UNL     1       3.226   3.942  17.737  0.00  0.00    +0.000 C 
BRANCH  24  25
ATOM     25  C   UNL     1       3.337   2.766  18.730  0.00  0.00    +0.000 C 
ATOM     26  C   UNL     1       3.352   1.435  17.981  0.00  0.00    +0.000 C 
BRANCH  25  30
ATOM     27  C   UNL     1       1.230   2.641  21.886  0.00  0.00    +0.000 C 
ATOM     28  C   UNL     1       2.480   2.597  21.051  0.00  0.00    +0.000 C 
ATOM     29  O   UNL     1       3.592   2.434  21.541  0.00  0.00    +0.000 OA
ATOM     30  N   UNL     1       2.250   2.774  19.705  0.00  0.00    +0.000 N 
ATOM     31  H   UNL     1       1.297   2.852  19.375  0.00  0.00    +0.000 HD
ENDBRANCH  25  30
ENDBRANCH  24  25
ENDBRANCH  18  24
ENDBRANCH   1  21
TORSDOF 5
ENDMDL
MODEL 4
REMARK VINA RESULT:      -7.8      1.042      1.173
REMARK  Name = 
REMARK  7 active torsions:
REMARK  status: ('A' for Active; 'I' for Inactive)
REMARK    1  A    between atoms: C_1  and  C_2
REMARK    2  A    between atoms: N_4  and  C_5
REMARK    3  A    between atoms: C_5  and  C_6
REMARK    4  A    between atoms: C_5  and  C_7
REMARK    5  A    between atoms: C_7  and  C_8
REMARK    6  A    between atoms: C_11  and  C_12
REMARK    7  A    between atoms: C_18  and  C_19
REMARK                            x       y       z     vdW  Elec       q    Type
REMARK                         _______ _______ _______ _____ _____    ______ ____
ROOT
ATOM      1  C   UNL     1       7.747   7.194  17.530  0.00  0.00    +0.000 C 
ATOM      2  C   UNL     1       7.431   8.696  17.389  0.00  0.00    +0.000 C 
ATOM      3  N   UNL     1       8.530   8.913  18.276  0.00  0.00    +0.000 N 
ATOM      4  C   UNL     1       8.916  10.119  18.872  0.00  0.00    +0.000 A 
ATOM      5  C   UNL     1       8.742  11.302  18.167  0.00  0.00    +0.000 A 
ATOM      6  C   UNL     1       9.125  12.512  18.731  0.00  0.00    +0.000 A 
ATOM      7  C   UNL     1       9.692  12.523  19.996  0.00  0.00    +0.000 A 
ATOM      8  N   UNL     1       9.867  11.360  20.661  0.00  0.00    +0.000 NA
ATOM      9  N   UNL     1       9.485  10.153  20.093  0.00  0.00    +0.000 NA
ATOM     10  C   UNL     1       8.400   7.619  18.869  0.00  0.00    +0.000 C 
ENDROOT
BRANCH   7  11
ATOM     11  C   UNL     1      10.088  13.765  20.682  0.00  0.00    +0.000 A 
ATOM     12  C   UNL     1       9.525  14.119  21.922  0.00  0.00    +0.000 A 
ATOM     13  C   UNL     1       9.853  15.324  22.553  0.00  0.00    +0.000 A 
ATOM     14  C   UNL     1      10.759  16.195  21.955  0.00  0.00    +0.000 A 
ATOM     15 CL   UNL     1      11.150  17.684  22.717  0.00  0.00    +0.000 Cl
ATOM     16  C   UNL     1      11.347  15.866  20.738  0.00  0.00    +0.000 A 
ATOM     17  C   UNL     1      11.017  14.661  20.113  0.00  0.00    +0.000 A 
ENDBRANCH   7  11
BRANCH   1  21
ATOM     18  C   UNL     1       4.599   4.098  17.329  0.00  0.00    +0.000 A 
ATOM     19  C   UNL     1       4.717   5.054  16.317  0.00  0.00    +0.000 A 
ATOM     20  C   UNL     1       5.695   6.047  16.395  0.00  0.00    +0.000 A 
ATOM     21  C   UNL     1       6.581   6.139  17.486  0.00  0.00    +0.000 A 
ATOM     22  C   UNL     1       6.418   5.184  18.506  0.00  0.00    +0.000 A 
ATOM     23  C   UNL     1       5.446   4.183  18.438  0.00  0.00    +0.000 A 
BRANCH  18  24
ATOM     24  C   UNL     1       3.588   2.978  17.221  0.00  0.00    +0.000 C 
BRANCH  24  25
ATOM     25  C   UNL     1       2.295   3.247  18.018  0.00  0.00    +0.000 C 
ATOM     26  C   UNL     1       1.886   4.713  17.894  0.00  0.00    +0.000 C 
BRANCH  25  30
ATOM     27  C   UNL     1       1.740   2.545  21.708  0.00  0.00    +0.000 C 
ATOM     28  C   UNL     1       1.383   2.955  20.306  0.00  0.00    +0.000 C 
ATOM     29  O   UNL     1       0.249   3.297  19.990  0.00  0.00    +0.000 OA
ATOM     30  N   UNL     1       2.440   2.890  19.427  0.00  0.00    +0.000 N 
ATOM     31  H   UNL     1       3.357   2.647  19.778  0.00  0.00    +0.000 HD
ENDBRANCH  25  30
ENDBRANCH  24  25
ENDBRANCH  18  24
ENDBRANCH   1  21
TORSDOF 5
ENDMDL
MODEL 5
REMARK VINA RESULT:      -7.8      7.113      9.409
REMARK  Name = 
REMARK  7 active torsions:
REMARK  status: ('A' for Active; 'I' for Inactive)
REMARK    1  A    between atoms: C_1  and  C_2
REMARK    2  A    between atoms: N_4  and  C_5
REMARK    3  A    between atoms: C_5  and  C_6
REMARK    4  A    between atoms: C_5  and  C_7
REMARK    5  A    between atoms: C_7  and  C_8
REMARK    6  A    between atoms: C_11  and  C_12
REMARK    7  A    between atoms: C_18  and  C_19
REMARK                            x       y       z     vdW  Elec       q    Type
REMARK                         _______ _______ _______ _____ _____    ______ ____
ROOT
ATOM      1  C   UNL     1       1.956   8.387  20.624  0.00  0.00    +0.000 C 
ATOM      2  C   UNL     1       1.211   9.608  20.052  0.00  0.00    +0.000 C 
ATOM      3  N   UNL     1       0.950   9.968  21.410  0.00  0.00    +0.000 N 
ATOM      4  C   UNL     1       0.116  10.990  21.874  0.00  0.00    +0.000 A 
ATOM      5  C   UNL     1       0.010  12.159  21.133  0.00  0.00    +0.000 A 
ATOM      6  C   UNL     1      -0.804  13.193  21.576  0.00  0.00    +0.000 A 
ATOM      7  C   UNL     1      -1.498  13.050  22.767  0.00  0.00    +0.000 A 
ATOM      8  N   UNL     1      -1.372  11.911  23.482  0.00  0.00    +0.000 NA
ATOM      9  N   UNL     1      -0.555  10.881  23.037  0.00  0.00    +0.000 NA
ATOM     10  C   UNL     1       1.052   8.615  21.862  0.00  0.00    +0.000 C 
ENDROOT
BRANCH   7  11
ATOM     11  C   UNL     1      -2.413  14.081  23.286  0.00  0.00    +0.000 A 
ATOM     12  C   UNL     1      -2.145  14.745  24.497  0.00  0.00    +0.000 A 
ATOM     13  C   UNL     1      -3.037  15.685  25.025  0.00  0.00    +0.000 A 
ATOM     14  C   UNL     1      -4.212  15.983  24.344  0.00  0.00    +0.000 A 
ATOM     15 CL   UNL     1      -5.320  17.122  24.999  0.00  0.00    +0.000 Cl
ATOM     16  C   UNL     1      -4.499  15.358  23.135  0.00  0.00    +0.000 A 
ATOM     17  C   UNL     1      -3.604  14.422  22.611  0.00  0.00    +0.000 A 
ENDBRANCH   7  11
BRANCH   1  21
ATOM     18  C   UNL     1       2.112   4.524  18.483  0.00  0.00    +0.000 A 
ATOM     19  C   UNL     1       2.326   5.722  17.797  0.00  0.00    +0.000 A 
ATOM     20  C   UNL     1       2.251   6.943  18.470  0.00  0.00    +0.000 A 
ATOM     21  C   UNL     1       1.944   7.022  19.842  0.00  0.00    +0.000 A 
ATOM     22  C   UNL     1       1.700   5.803  20.500  0.00  0.00    +0.000 A 
ATOM     23  C   UNL     1       1.776   4.574  19.839  0.00  0.00    +0.000 A 
BRANCH  18  24
ATOM     24  C   UNL     1       2.258   3.193  17.779  0.00  0.00    +0.000 C 
BRANCH  24  25
ATOM     25  C   UNL     1       3.688   2.619  17.852  0.00  0.00    +0.000 C 
ATOM     26  C   UNL     1       3.693   1.294  18.612  0.00  0.00    +0.000 C 
BRANCH  25  30
ATOM     27  C   UNL     1       6.436   5.134  18.586  0.00  0.00    +0.000 C 
ATOM     28  C   UNL     1       5.583   4.215  17.755  0.00  0.00    +0.000 C 
ATOM     29  O   UNL     1       5.738   4.091  16.545  0.00  0.00    +0.000 OA
ATOM     30  N   UNL     1       4.618   3.555  18.480  0.00  0.00    +0.000 N 
ATOM     31  H   UNL     1       4.589   3.673  19.484  0.00  0.00    +0.000 HD
ENDBRANCH  25  30
ENDBRANCH  24  25
ENDBRANCH  18  24
ENDBRANCH   1  21
TORSDOF 5
ENDMDL
MODEL 6
REMARK VINA RESULT:      -7.7      7.337      9.909
REMARK  Name = 
REMARK  7 active torsions:
REMARK  status: ('A' for Active; 'I' for Inactive)
REMARK    1  A    between atoms: C_1  and  C_2
REMARK    2  A    between atoms: N_4  and  C_5
REMARK    3  A    between atoms: C_5  and  C_6
REMARK    4  A    between atoms: C_5  and  C_7
REMARK    5  A    between atoms: C_7  and  C_8
REMARK    6  A    between atoms: C_11  and  C_12
REMARK    7  A    between atoms: C_18  and  C_19
REMARK                            x       y       z     vdW  Elec       q    Type
REMARK                         _______ _______ _______ _____ _____    ______ ____
ROOT
ATOM      1  C   UNL     1       1.880   8.372  20.650  0.00  0.00    +0.000 C 
ATOM      2  C   UNL     1       1.088   9.518  19.991  0.00  0.00    +0.000 C 
ATOM      3  N   UNL     1       0.658   9.854  21.312  0.00  0.00    +0.000 N 
ATOM      4  C   UNL     1      -0.310  10.796  21.677  0.00  0.00    +0.000 A 
ATOM      5  C   UNL     1      -0.447  11.948  20.916  0.00  0.00    +0.000 A 
ATOM      6  C   UNL     1      -1.394  12.903  21.262  0.00  0.00    +0.000 A 
ATOM      7  C   UNL     1      -2.190  12.699  22.378  0.00  0.00    +0.000 A 
ATOM      8  N   UNL     1      -2.033  11.577  23.115  0.00  0.00    +0.000 NA
ATOM      9  N   UNL     1      -1.083  10.627  22.767  0.00  0.00    +0.000 NA
ATOM     10  C   UNL     1       0.837   8.518  21.787  0.00  0.00    +0.000 C 
ENDROOT
BRANCH   7  11
ATOM     11  C   UNL     1      -3.245  13.641  22.789  0.00  0.00    +0.000 A 
ATOM     12  C   UNL     1      -3.007  15.028  22.813  0.00  0.00    +0.000 A 
ATOM     13  C   UNL     1      -3.985  15.926  23.256  0.00  0.00    +0.000 A 
ATOM     14  C   UNL     1      -5.223  15.450  23.677  0.00  0.00    +0.000 A 
ATOM     15 CL   UNL     1      -6.419  16.547  24.240  0.00  0.00    +0.000 Cl
ATOM     16  C   UNL     1      -5.495  14.086  23.649  0.00  0.00    +0.000 A 
ATOM     17  C   UNL     1      -4.517  13.194  23.203  0.00  0.00    +0.000 A 
ENDBRANCH   7  11
BRANCH   1  21
ATOM     18  C   UNL     1       2.244   4.568  18.429  0.00  0.00    +0.000 A 
ATOM     19  C   UNL     1       1.869   4.569  19.775  0.00  0.00    +0.000 A 
ATOM     20  C   UNL     1       1.780   5.770  20.483  0.00  0.00    +0.000 A 
ATOM     21  C   UNL     1       2.075   7.011  19.887  0.00  0.00    +0.000 A 
ATOM     22  C   UNL     1       2.482   6.978  18.540  0.00  0.00    +0.000 A 
ATOM     23  C   UNL     1       2.572   5.784  17.821  0.00  0.00    +0.000 A 
BRANCH  18  24
ATOM     24  C   UNL     1       2.277   3.281  17.636  0.00  0.00    +0.000 C 
BRANCH  24  25
ATOM     25  C   UNL     1       3.643   2.565  17.696  0.00  0.00    +0.000 C 
ATOM     26  C   UNL     1       3.587   1.388  18.668  0.00  0.00    +0.000 C 
BRANCH  25  30
ATOM     27  C   UNL     1       6.624   4.915  17.753  0.00  0.00    +0.000 C 
ATOM     28  C   UNL     1       5.592   3.999  17.155  0.00  0.00    +0.000 C 
ATOM     29  O   UNL     1       5.540   3.764  15.952  0.00  0.00    +0.000 OA
ATOM     30  N   UNL     1       4.718   3.475  18.080  0.00  0.00    +0.000 N 
ATOM     31  H   UNL     1       4.860   3.677  19.061  0.00  0.00    +0.000 HD
ENDBRANCH  25  30
ENDBRANCH  24  25
ENDBRANCH  18  24
ENDBRANCH   1  21
TORSDOF 5
ENDMDL
MODEL 7
REMARK VINA RESULT:      -7.7      7.199     10.459
REMARK  Name = 
REMARK  7 active torsions:
REMARK  status: ('A' for Active; 'I' for Inactive)
REMARK    1  A    between atoms: C_1  and  C_2
REMARK    2  A    between atoms: N_4  and  C_5
REMARK    3  A    between atoms: C_5  and  C_6
REMARK    4  A    between atoms: C_5  and  C_7
REMARK    5  A    between atoms: C_7  and  C_8
REMARK    6  A    between atoms: C_11  and  C_12
REMARK    7  A    between atoms: C_18  and  C_19
REMARK                            x       y       z     vdW  Elec       q    Type
REMARK                         _______ _______ _______ _____ _____    ______ ____
ROOT
ATOM      1  C   UNL     1       1.748   9.491  18.423  0.00  0.00    +0.000 C 
ATOM      2  C   UNL     1       0.259   9.674  18.070  0.00  0.00    +0.000 C 
ATOM      3  N   UNL     1       0.217  10.615  19.144  0.00  0.00    +0.000 N 
ATOM      4  C   UNL     1      -0.913  11.238  19.685  0.00  0.00    +0.000 A 
ATOM      5  C   UNL     1      -1.971  11.555  18.844  0.00  0.00    +0.000 A 
ATOM      6  C   UNL     1      -3.101  12.182  19.353  0.00  0.00    +0.000 A 
ATOM      7  C   UNL     1      -3.155  12.497  20.702  0.00  0.00    +0.000 A 
ATOM      8  N   UNL     1      -2.110  12.192  21.502  0.00  0.00    +0.000 NA
ATOM      9  N   UNL     1      -0.981  11.568  20.989  0.00  0.00    +0.000 NA
ATOM     10  C   UNL     1       1.314   9.998  19.822  0.00  0.00    +0.000 C 
ENDROOT
BRANCH   7  11
ATOM     11  C   UNL     1      -4.331  13.124  21.329  0.00  0.00    +0.000 A 
ATOM     12  C   UNL     1      -4.209  14.316  22.067  0.00  0.00    +0.000 A 
ATOM     13  C   UNL     1      -5.311  14.887  22.713  0.00  0.00    +0.000 A 
ATOM     14  C   UNL     1      -6.559  14.279  22.623  0.00  0.00    +0.000 A 
ATOM     15 CL   UNL     1      -7.911  14.967  23.430  0.00  0.00    +0.000 Cl
ATOM     16  C   UNL     1      -6.717  13.110  21.886  0.00  0.00    +0.000 A 
ATOM     17  C   UNL     1      -5.614  12.544  21.242  0.00  0.00    +0.000 A 
ENDBRANCH   7  11
BRANCH   1  21
ATOM     18  C   UNL     1       3.556   5.515  17.744  0.00  0.00    +0.000 A 
ATOM     19  C   UNL     1       2.525   5.675  18.674  0.00  0.00    +0.000 A 
ATOM     20  C   UNL     1       1.973   6.936  18.906  0.00  0.00    +0.000 A 
ATOM     21  C   UNL     1       2.432   8.087  18.238  0.00  0.00    +0.000 A 
ATOM     22  C   UNL     1       3.494   7.903  17.332  0.00  0.00    +0.000 A 
ATOM     23  C   UNL     1       4.052   6.646  17.088  0.00  0.00    +0.000 A 
BRANCH  18  24
ATOM     24  C   UNL     1       4.114   4.144  17.435  0.00  0.00    +0.000 C 
BRANCH  24  25
ATOM     25  C   UNL     1       5.140   3.655  18.479  0.00  0.00    +0.000 C 
ATOM     26  C   UNL     1       4.427   3.015  19.669  0.00  0.00    +0.000 C 
BRANCH  25  30
ATOM     27  C   UNL     1       7.927   6.189  18.943  0.00  0.00    +0.000 C 
ATOM     28  C   UNL     1       7.189   5.041  18.313  0.00  0.00    +0.000 C 
ATOM     29  O   UNL     1       7.611   4.451  17.324  0.00  0.00    +0.000 OA
ATOM     30  N   UNL     1       6.003   4.738  18.942  0.00  0.00    +0.000 N 
ATOM     31  H   UNL     1       5.750   5.239  19.783  0.00  0.00    +0.000 HD
ENDBRANCH  25  30
ENDBRANCH  24  25
ENDBRANCH  18  24
ENDBRANCH   1  21
TORSDOF 5
ENDMDL
MODEL 8
REMARK VINA RESULT:      -7.6      8.317     12.218
REMARK  Name = 
REMARK  7 active torsions:
REMARK  status: ('A' for Active; 'I' for Inactive)
REMARK    1  A    between atoms: C_1  and  C_2
REMARK    2  A    between atoms: N_4  and  C_5
REMARK    3  A    between atoms: C_5  and  C_6
REMARK    4  A    between atoms: C_5  and  C_7
REMARK    5  A    between atoms: C_7  and  C_8
REMARK    6  A    between atoms: C_11  and  C_12
REMARK    7  A    between atoms: C_18  and  C_19
REMARK                            x       y       z     vdW  Elec       q    Type
REMARK                         _______ _______ _______ _____ _____    ______ ____
ROOT
ATOM      1  C   UNL     1      -0.714  11.414  21.795  0.00  0.00    +0.000 C 
ATOM      2  C   UNL     1      -0.528   9.885  21.749  0.00  0.00    +0.000 C 
ATOM      3  N   UNL     1       0.561  10.139  20.859  0.00  0.00    +0.000 N 
ATOM      4  C   UNL     1       1.299   9.201  20.129  0.00  0.00    +0.000 A 
ATOM      5  C   UNL     1       1.530   7.950  20.684  0.00  0.00    +0.000 A 
ATOM      6  C   UNL     1       2.268   7.003  19.985  0.00  0.00    +0.000 A 
ATOM      7  C   UNL     1       2.777   7.325  18.737  0.00  0.00    +0.000 A 
ATOM      8  N   UNL     1       2.554   8.553  18.218  0.00  0.00    +0.000 NA
ATOM      9  N   UNL     1       1.819   9.496  18.922  0.00  0.00    +0.000 NA
ATOM     10  C   UNL     1       0.008  11.384  20.424  0.00  0.00    +0.000 C 
ENDROOT
BRANCH   7  11
ATOM     11  C   UNL     1       3.534   6.366  17.913  0.00  0.00    +0.000 A 
ATOM     12  C   UNL     1       4.507   6.808  16.997  0.00  0.00    +0.000 A 
ATOM     13  C   UNL     1       5.190   5.909  16.171  0.00  0.00    +0.000 A 
ATOM     14  C   UNL     1       4.915   4.548  16.252  0.00  0.00    +0.000 A 
ATOM     15 CL   UNL     1       5.738   3.442  15.226  0.00  0.00    +0.000 Cl
ATOM     16  C   UNL     1       3.972   4.077  17.159  0.00  0.00    +0.000 A 
ATOM     17  C   UNL     1       3.294   4.978  17.984  0.00  0.00    +0.000 A 
ENDBRANCH   7  11
BRANCH   1  21
ATOM     18  C   UNL     1      -4.683  13.314  22.211  0.00  0.00    +0.000 A 
ATOM     19  C   UNL     1      -3.974  12.900  23.342  0.00  0.00    +0.000 A 
ATOM     20  C   UNL     1      -2.732  12.277  23.208  0.00  0.00    +0.000 A 
ATOM     21  C   UNL     1      -2.155  12.026  21.948  0.00  0.00    +0.000 A 
ATOM     22  C   UNL     1      -2.906  12.421  20.825  0.00  0.00    +0.000 A 
ATOM     23  C   UNL     1      -4.148  13.049  20.947  0.00  0.00    +0.000 A 
BRANCH  18  24
ATOM     24  C   UNL     1      -5.997  14.051  22.348  0.00  0.00    +0.000 C 
BRANCH  24  25
ATOM     25  C   UNL     1      -6.338  14.421  23.807  0.00  0.00    +0.000 C 
ATOM     26  C   UNL     1      -7.652  13.767  24.230  0.00  0.00    +0.000 C 
BRANCH  25  30
ATOM     27  C   UNL     1      -5.625  18.079  24.528  0.00  0.00    +0.000 C 
ATOM     28  C   UNL     1      -5.333  16.610  24.394  0.00  0.00    +0.000 C 
ATOM     29  O   UNL     1      -4.221  16.139  24.609  0.00  0.00    +0.000 OA
ATOM     30  N   UNL     1      -6.420  15.867  23.995  0.00  0.00    +0.000 N 
ATOM     31  H   UNL     1      -7.316  16.324  23.888  0.00  0.00    +0.000 HD
ENDBRANCH  25  30
ENDBRANCH  24  25
ENDBRANCH  18  24
ENDBRANCH   1  21
TORSDOF 5
ENDMDL
MODEL 9
REMARK VINA RESULT:      -7.5      1.051      1.548
REMARK  Name = 
REMARK  7 active torsions:
REMARK  status: ('A' for Active; 'I' for Inactive)
REMARK    1  A    between atoms: C_1  and  C_2
REMARK    2  A    between atoms: N_4  and  C_5
REMARK    3  A    between atoms: C_5  and  C_6
REMARK    4  A    between atoms: C_5  and  C_7
REMARK    5  A    between atoms: C_7  and  C_8
REMARK    6  A    between atoms: C_11  and  C_12
REMARK    7  A    between atoms: C_18  and  C_19
REMARK                            x       y       z     vdW  Elec       q    Type
REMARK                         _______ _______ _______ _____ _____    ______ ____
ROOT
ATOM      1  C   UNL     1       8.063   7.525  17.649  0.00  0.00    +0.000 C 
ATOM      2  C   UNL     1       7.782   9.029  17.466  0.00  0.00    +0.000 C 
ATOM      3  N   UNL     1       8.760   9.240  18.486  0.00  0.00    +0.000 N 
ATOM      4  C   UNL     1       9.078  10.444  19.124  0.00  0.00    +0.000 A 
ATOM      5  C   UNL     1       9.008  11.626  18.400  0.00  0.00    +0.000 A 
ATOM      6  C   UNL     1       9.327  12.835  19.005  0.00  0.00    +0.000 A 
ATOM      7  C   UNL     1       9.727  12.845  20.332  0.00  0.00    +0.000 A 
ATOM      8  N   UNL     1       9.803  11.683  21.017  0.00  0.00    +0.000 NA
ATOM      9  N   UNL     1       9.486  10.477  20.407  0.00  0.00    +0.000 NA
ATOM     10  C   UNL     1       8.543   7.949  19.061  0.00  0.00    +0.000 C 
ENDROOT
BRANCH   7  11
ATOM     11  C   UNL     1      10.044  14.086  21.060  0.00  0.00    +0.000 A 
ATOM     12  C   UNL     1       9.432  14.379  22.293  0.00  0.00    +0.000 A 
ATOM     13  C   UNL     1       9.685  15.581  22.963  0.00  0.00    +0.000 A 
ATOM     14  C   UNL     1      10.561  16.510  22.413  0.00  0.00    +0.000 A 
ATOM     15 CL   UNL     1      10.860  17.995  23.223  0.00  0.00    +0.000 Cl
ATOM     16  C   UNL     1      11.196  16.243  21.204  0.00  0.00    +0.000 A 
ATOM     17  C   UNL     1      10.942  15.041  20.540  0.00  0.00    +0.000 A 
ENDBRANCH   7  11
BRANCH   1  21
ATOM     18  C   UNL     1       4.686   4.705  17.227  0.00  0.00    +0.000 A 
ATOM     19  C   UNL     1       5.683   4.478  18.179  0.00  0.00    +0.000 A 
ATOM     20  C   UNL     1       6.763   5.356  18.293  0.00  0.00    +0.000 A 
ATOM     21  C   UNL     1       6.902   6.481  17.459  0.00  0.00    +0.000 A 
ATOM     22  C   UNL     1       5.901   6.667  16.486  0.00  0.00    +0.000 A 
ATOM     23  C   UNL     1       4.814   5.798  16.364  0.00  0.00    +0.000 A 
BRANCH  18  24
ATOM     24  C   UNL     1       3.478   3.799  17.141  0.00  0.00    +0.000 C 
BRANCH  24  25
ATOM     25  C   UNL     1       2.382   4.145  18.170  0.00  0.00    +0.000 C 
ATOM     26  C   UNL     1       2.271   5.659  18.344  0.00  0.00    +0.000 C 
BRANCH  25  30
ATOM     27  C   UNL     1       2.138   2.801  21.712  0.00  0.00    +0.000 C 
ATOM     28  C   UNL     1       1.685   3.500  20.461  0.00  0.00    +0.000 C 
ATOM     29  O   UNL     1       0.566   3.992  20.351  0.00  0.00    +0.000 OA
ATOM     30  N   UNL     1       2.633   3.514  19.464  0.00  0.00    +0.000 N 
ATOM     31  H   UNL     1       3.550   3.132  19.651  0.00  0.00    +0.000 HD
ENDBRANCH  25  30
ENDBRANCH  24  25
ENDBRANCH  18  24
ENDBRANCH   1  21
TORSDOF 5
ENDMDL
