MODEL 1
REMARK VINA RESULT:      -8.4      0.000      0.000
REMARK  Name = 
REMARK  5 active torsions:
REMARK  status: ('A' for Active; 'I' for Inactive)
REMARK    1  A    between atoms: C_1  and  C_2
REMARK    2  A    between atoms: C_2  and  C_3
REMARK    3  A    between atoms: C_3  and  C_4
REMARK    4  A    between atoms: C_7  and  C_8
REMARK    5  A    between atoms: C_10  and  C_11
REMARK                            x       y       z     vdW  Elec       q    Type
REMARK                         _______ _______ _______ _____ _____    ______ ____
ROOT
ATOM      1  C   UNL     1       5.495   4.316  18.014  0.00  0.00    +0.000 A 
ATOM      2  N   UNL     1       5.279   4.390  16.723  0.00  0.00    +0.000 NA
ATOM      3  C   UNL     1       6.539   4.495  16.201  0.00  0.00    +0.000 A 
ATOM      4  N   UNL     1       7.510   4.523  17.127  0.00  0.00    +0.000 NA
ATOM      5  O   UNL     1       6.814   4.401  18.339  0.00  0.00    +0.000 OA
ENDROOT
BRANCH   1   9
ATOM      6  C   UNL     1       2.230   2.558  17.843  0.00  0.00    +0.000 C 
ATOM      7  C   UNL     1       2.430   4.066  17.608  0.00  0.00    +0.000 C 
ATOM      8  C   UNL     1       3.158   4.762  18.762  0.00  0.00    +0.000 C 
ATOM      9  C   UNL     1       4.500   4.100  19.105  0.00  0.00    +0.000 C 
ATOM     10  C   UNL     1       4.306   2.596  19.363  0.00  0.00    +0.000 C 
ATOM     11  C   UNL     1       3.555   1.877  18.236  0.00  0.00    +0.000 C 
BRANCH   6  12
ATOM     12  C   UNL     1       1.133   2.256  18.883  0.00  0.00    +0.000 C 
BRANCH  12  14
ATOM     13  C   UNL     1       1.254   2.943  21.306  0.00  0.00    +0.000 C 
ATOM     14  C   UNL     1       0.935   3.392  19.891  0.00  0.00    +0.000 C 
ENDBRANCH  12  14
ENDBRANCH   6  12
ENDBRANCH   1   9
BRANCH   3  15
ATOM     15  C   UNL     1       6.734   4.514  14.763  0.00  0.00    +0.000 A 
ATOM     16  C   UNL     1       6.022   3.632  13.939  0.00  0.00    +0.000 A 
ATOM     17  C   UNL     1       6.251   3.627  12.564  0.00  0.00    +0.000 A 
ATOM     18  C   UNL     1       7.187   4.512  12.060  0.00  0.00    +0.000 A 
ATOM     19  N   UNL     1       7.887   5.383  12.816  0.00  0.00    +0.000 NA
ATOM     20  C   UNL     1       7.644   5.362  14.154  0.00  0.00    +0.000 A 
ENDBRANCH   3  15
TORSDOF 4
ENDMDL
MODEL 2
REMARK VINA RESULT:      -8.1      1.072      1.144
REMARK  Name = 
REMARK  5 active torsions:
REMARK  status: ('A' for Active; 'I' for Inactive)
REMARK    1  A    between atoms: C_1  and  C_2
REMARK    2  A    between atoms: C_2  and  C_3
REMARK    3  A    between atoms: C_3  and  C_4
REMARK    4  A    between atoms: C_7  and  C_8
REMARK    5  A    between atoms: C_10  and  C_11
REMARK                            x       y       z     vdW  Elec       q    Type
REMARK                         _______ _______ _______ _____ _____    ______ ____
ROOT
ATOM      1  C   UNL     1       4.862   4.625  17.449  0.00  0.00    +0.000 A 
ATOM      2  N   UNL     1       5.126   3.999  16.329  0.00  0.00    +0.000 NA
ATOM      3  C   UNL     1       5.677   4.977  15.547  0.00  0.00    +0.000 A 
ATOM      4  N   UNL     1       5.725   6.181  16.137  0.00  0.00    +0.000 NA
ATOM      5  O   UNL     1       5.184   5.947  17.409  0.00  0.00    +0.000 OA
ENDROOT
BRANCH   1   9
ATOM      6  C   UNL     1       1.413   3.468  18.184  0.00  0.00    +0.000 C 
ATOM      7  C   UNL     1       1.931   4.896  18.430  0.00  0.00    +0.000 C 
ATOM      8  C   UNL     1       3.201   4.934  19.285  0.00  0.00    +0.000 C 
ATOM      9  C   UNL     1       4.326   4.055  18.720  0.00  0.00    +0.000 C 
ATOM     10  C   UNL     1       3.822   2.619  18.493  0.00  0.00    +0.000 C 
ATOM     11  C   UNL     1       2.535   2.551  17.662  0.00  0.00    +0.000 C 
BRANCH   6  12
ATOM     12  C   UNL     1       0.743   2.853  19.430  0.00  0.00    +0.000 C 
BRANCH  12  14
ATOM     13  C   UNL     1       1.728   2.694  21.745  0.00  0.00    +0.000 C 
ATOM     14  C   UNL     1       1.077   3.606  20.721  0.00  0.00    +0.000 C 
ENDBRANCH  12  14
ENDBRANCH   6  12
ENDBRANCH   1   9
BRANCH   3  15
ATOM     15  C   UNL     1       6.192   4.653  14.229  0.00  0.00    +0.000 A 
ATOM     16  C   UNL     1       5.570   3.673  13.444  0.00  0.00    +0.000 A 
ATOM     17  C   UNL     1       6.100   3.339  12.200  0.00  0.00    +0.000 A 
ATOM     18  C   UNL     1       7.240   4.003  11.781  0.00  0.00    +0.000 A 
ATOM     19  N   UNL     1       7.865   4.958  12.501  0.00  0.00    +0.000 NA
ATOM     20  C   UNL     1       7.325   5.261  13.712  0.00  0.00    +0.000 A 
ENDBRANCH   3  15
TORSDOF 4
ENDMDL
MODEL 3
REMARK VINA RESULT:      -8.1      0.997      1.373
REMARK  Name = 
REMARK  5 active torsions:
REMARK  status: ('A' for Active; 'I' for Inactive)
REMARK    1  A    between atoms: C_1  and  C_2
REMARK    2  A    between atoms: C_2  and  C_3
REMARK    3  A    between atoms: C_3  and  C_4
REMARK    4  A    between atoms: C_7  and  C_8
REMARK    5  A    between atoms: C_10  and  C_11
REMARK                            x       y       z     vdW  Elec       q    Type
REMARK                         _______ _______ _______ _____ _____    ______ ____
ROOT
ATOM      1  C   UNL     1       5.802   4.857  17.593  0.00  0.00    +0.000 A 
ATOM      2  N   UNL     1       5.572   4.324  16.417  0.00  0.00    +0.000 NA
ATOM      3  C   UNL     1       6.460   4.971  15.603  0.00  0.00    +0.000 A 
ATOM      4  N   UNL     1       7.195   5.902  16.231  0.00  0.00    +0.000 NA
ATOM      5  O   UNL     1       6.758   5.825  17.561  0.00  0.00    +0.000 OA
ENDROOT
BRANCH   1   9
ATOM      6  C   UNL     1       2.225   4.934  18.581  0.00  0.00    +0.000 C 
ATOM      7  C   UNL     1       3.213   6.098  18.769  0.00  0.00    +0.000 C 
ATOM      8  C   UNL     1       4.478   5.694  19.534  0.00  0.00    +0.000 C 
ATOM      9  C   UNL     1       5.194   4.491  18.906  0.00  0.00    +0.000 C 
ATOM     10  C   UNL     1       4.218   3.314  18.735  0.00  0.00    +0.000 C 
ATOM     11  C   UNL     1       2.930   3.695  17.996  0.00  0.00    +0.000 C 
BRANCH   6  12
ATOM     12  C   UNL     1       1.475   4.571  19.879  0.00  0.00    +0.000 C 
BRANCH  12  14
ATOM     13  C   UNL     1       1.465   2.472  21.275  0.00  0.00    +0.000 C 
ATOM     14  C   UNL     1       1.075   3.095  19.946  0.00  0.00    +0.000 C 
ENDBRANCH  12  14
ENDBRANCH   6  12
ENDBRANCH   1   9
BRANCH   3  15
ATOM     15  C   UNL     1       6.579   4.593  14.207  0.00  0.00    +0.000 A 
ATOM     16  C   UNL     1       5.706   3.647  13.650  0.00  0.00    +0.000 A 
ATOM     17  C   UNL     1       5.859   3.258  12.321  0.00  0.00    +0.000 A 
ATOM     18  C   UNL     1       6.883   3.833  11.590  0.00  0.00    +0.000 A 
ATOM     19  N   UNL     1       7.739   4.752  12.084  0.00  0.00    +0.000 NA
ATOM     20  C   UNL     1       7.567   5.110  13.385  0.00  0.00    +0.000 A 
ENDBRANCH   3  15
TORSDOF 4
ENDMDL
MODEL 4
REMARK VINA RESULT:      -8.0      1.076      1.441
REMARK  Name = 
REMARK  5 active torsions:
REMARK  status: ('A' for Active; 'I' for Inactive)
REMARK    1  A    between atoms: C_1  and  C_2
REMARK    2  A    between atoms: C_2  and  C_3
REMARK    3  A    between atoms: C_3  and  C_4
REMARK    4  A    between atoms: C_7  and  C_8
REMARK    5  A    between atoms: C_10  and  C_11
REMARK                            x       y       z     vdW  Elec       q    Type
REMARK                         _______ _______ _______ _____ _____    ______ ____
ROOT
ATOM      1  C   UNL     1       5.124   4.561  17.623  0.00  0.00    +0.000 A 
ATOM      2  N   UNL     1       5.277   4.016  16.440  0.00  0.00    +0.000 NA
ATOM      3  C   UNL     1       5.998   4.956  15.755  0.00  0.00    +0.000 A 
ATOM      4  N   UNL     1       6.258   6.064  16.465  0.00  0.00    +0.000 NA
ATOM      5  O   UNL     1       5.677   5.801  17.713  0.00  0.00    +0.000 OA
ENDROOT
BRANCH   1   9
ATOM      6  C   UNL     1       1.573   3.611  18.136  0.00  0.00    +0.000 C 
ATOM      7  C   UNL     1       2.173   4.985  18.480  0.00  0.00    +0.000 C 
ATOM      8  C   UNL     1       3.399   4.893  19.394  0.00  0.00    +0.000 C 
ATOM      9  C   UNL     1       4.489   3.967  18.836  0.00  0.00    +0.000 C 
ATOM     10  C   UNL     1       3.902   2.583  18.511  0.00  0.00    +0.000 C 
ATOM     11  C   UNL     1       2.656   2.645  17.619  0.00  0.00    +0.000 C 
BRANCH   6  12
ATOM     12  C   UNL     1       0.802   2.984  19.316  0.00  0.00    +0.000 C 
BRANCH  12  14
ATOM     13  C   UNL     1       1.605   2.748  21.694  0.00  0.00    +0.000 C 
ATOM     14  C   UNL     1       1.059   3.700  20.645  0.00  0.00    +0.000 C 
ENDBRANCH  12  14
ENDBRANCH   6  12
ENDBRANCH   1   9
BRANCH   3  15
ATOM     15  C   UNL     1       6.453   4.683  14.404  0.00  0.00    +0.000 A 
ATOM     16  C   UNL     1       7.508   5.419  13.849  0.00  0.00    +0.000 A 
ATOM     17  C   UNL     1       7.907   5.180  12.534  0.00  0.00    +0.000 A 
ATOM     18  C   UNL     1       7.232   4.206  11.820  0.00  0.00    +0.000 A 
ATOM     19  N   UNL     1       6.218   3.469  12.319  0.00  0.00    +0.000 NA
ATOM     20  C   UNL     1       5.850   3.727  13.603  0.00  0.00    +0.000 A 
ENDBRANCH   3  15
TORSDOF 4
ENDMDL
MODEL 5
REMARK VINA RESULT:      -8.0      0.880      1.263
REMARK  Name = 
REMARK  5 active torsions:
REMARK  status: ('A' for Active; 'I' for Inactive)
REMARK    1  A    between atoms: C_1  and  C_2
REMARK    2  A    between atoms: C_2  and  C_3
REMARK    3  A    between atoms: C_3  and  C_4
REMARK    4  A    between atoms: C_7  and  C_8
REMARK    5  A    between atoms: C_10  and  C_11
REMARK                            x       y       z     vdW  Elec       q    Type
REMARK                         _______ _______ _______ _____ _____    ______ ____
ROOT
ATOM      1  C   UNL     1       5.732   4.776  17.902  0.00  0.00    +0.000 A 
ATOM      2  N   UNL     1       5.487   4.864  16.617  0.00  0.00    +0.000 NA
ATOM      3  C   UNL     1       6.700   4.586  16.049  0.00  0.00    +0.000 A 
ATOM      4  N   UNL     1       7.680   4.367  16.939  0.00  0.00    +0.000 NA
ATOM      5  O   UNL     1       7.035   4.491  18.178  0.00  0.00    +0.000 OA
ENDROOT
BRANCH   1   9
ATOM      6  C   UNL     1       2.348   3.284  18.213  0.00  0.00    +0.000 C 
ATOM      7  C   UNL     1       2.643   4.678  17.632  0.00  0.00    +0.000 C 
ATOM      8  C   UNL     1       3.463   5.561  18.579  0.00  0.00    +0.000 C 
ATOM      9  C   UNL     1       4.768   4.893  19.035  0.00  0.00    +0.000 C 
ATOM     10  C   UNL     1       4.479   3.508  19.638  0.00  0.00    +0.000 C 
ATOM     11  C   UNL     1       3.636   2.610  18.724  0.00  0.00    +0.000 C 
BRANCH   6  12
ATOM     12  C   UNL     1       1.273   3.313  19.319  0.00  0.00    +0.000 C 
BRANCH  12  14
ATOM     13  C   UNL     1       1.643   2.962  21.788  0.00  0.00    +0.000 C 
ATOM     14  C   UNL     1       1.531   2.292  20.430  0.00  0.00    +0.000 C 
ENDBRANCH  12  14
ENDBRANCH   6  12
ENDBRANCH   1   9
BRANCH   3  15
ATOM     15  C   UNL     1       6.825   4.497  14.605  0.00  0.00    +0.000 A 
ATOM     16  C   UNL     1       7.717   5.331  13.918  0.00  0.00    +0.000 A 
ATOM     17  C   UNL     1       7.796   5.269  12.527  0.00  0.00    +0.000 A 
ATOM     18  C   UNL     1       6.977   4.367  11.871  0.00  0.00    +0.000 A 
ATOM     19  N   UNL     1       6.112   3.540  12.495  0.00  0.00    +0.000 NA
ATOM     20  C   UNL     1       6.056   3.626  13.852  0.00  0.00    +0.000 A 
ENDBRANCH   3  15
TORSDOF 4
ENDMDL
MODEL 6
REMARK VINA RESULT:      -7.9      5.093      7.946
REMARK  Name = 
REMARK  5 active torsions:
REMARK  status: ('A' for Active; 'I' for Inactive)
REMARK    1  A    between atoms: C_1  and  C_2
REMARK    2  A    between atoms: C_2  and  C_3
REMARK    3  A    between atoms: C_3  and  C_4
REMARK    4  A    between atoms: C_7  and  C_8
REMARK    5  A    between atoms: C_10  and  C_11
REMARK                            x       y       z     vdW  Elec       q    Type
REMARK                         _______ _______ _______ _____ _____    ______ ____
ROOT
ATOM      1  C   UNL     1       2.399   6.911  19.780  0.00  0.00    +0.000 A 
ATOM      2  N   UNL     1       1.819   7.472  20.813  0.00  0.00    +0.000 NA
ATOM      3  C   UNL     1       1.306   8.629  20.292  0.00  0.00    +0.000 A 
ATOM      4  N   UNL     1       1.583   8.808  18.991  0.00  0.00    +0.000 NA
ATOM      5  O   UNL     1       2.311   7.660  18.647  0.00  0.00    +0.000 OA
ENDROOT
BRANCH   1   9
ATOM      6  C   UNL     1       0.881   3.622  18.971  0.00  0.00    +0.000 C 
ATOM      7  C   UNL     1       1.021   4.199  20.390  0.00  0.00    +0.000 C 
ATOM      8  C   UNL     1       2.457   4.606  20.733  0.00  0.00    +0.000 C 
ATOM      9  C   UNL     1       3.062   5.576  19.709  0.00  0.00    +0.000 C 
ATOM     10  C   UNL     1       2.947   4.996  18.288  0.00  0.00    +0.000 C 
ATOM     11  C   UNL     1       1.523   4.553  17.926  0.00  0.00    +0.000 C 
BRANCH   6  12
ATOM     12  C   UNL     1       1.448   2.193  18.849  0.00  0.00    +0.000 C 
BRANCH  12  14
ATOM     13  C   UNL     1       3.776   1.391  18.308  0.00  0.00    +0.000 C 
ATOM     14  C   UNL     1       2.528   2.069  17.770  0.00  0.00    +0.000 C 
ENDBRANCH  12  14
ENDBRANCH   6  12
ENDBRANCH   1   9
BRANCH   3  15
ATOM     15  C   UNL     1       0.499   9.506  21.119  0.00  0.00    +0.000 A 
ATOM     16  C   UNL     1      -0.276  10.518  20.535  0.00  0.00    +0.000 A 
ATOM     17  C   UNL     1      -1.011  11.384  21.343  0.00  0.00    +0.000 A 
ATOM     18  C   UNL     1      -0.948  11.204  22.713  0.00  0.00    +0.000 A 
ATOM     19  N   UNL     1      -0.223  10.237  23.315  0.00  0.00    +0.000 NA
ATOM     20  C   UNL     1       0.486   9.410  22.501  0.00  0.00    +0.000 A 
ENDBRANCH   3  15
TORSDOF 4
ENDMDL
MODEL 7
REMARK VINA RESULT:      -7.8      5.101      7.990
REMARK  Name = 
REMARK  5 active torsions:
REMARK  status: ('A' for Active; 'I' for Inactive)
REMARK    1  A    between atoms: C_1  and  C_2
REMARK    2  A    between atoms: C_2  and  C_3
REMARK    3  A    between atoms: C_3  and  C_4
REMARK    4  A    between atoms: C_7  and  C_8
REMARK    5  A    between atoms: C_10  and  C_11
REMARK                            x       y       z     vdW  Elec       q    Type
REMARK                         _______ _______ _______ _____ _____    ______ ____
ROOT
ATOM      1  C   UNL     1       2.353   6.952  19.910  0.00  0.00    +0.000 A 
ATOM      2  N   UNL     1       1.740   7.545  20.905  0.00  0.00    +0.000 NA
ATOM      3  C   UNL     1       1.234   8.678  20.329  0.00  0.00    +0.000 A 
ATOM      4  N   UNL     1       1.546   8.813  19.031  0.00  0.00    +0.000 NA
ATOM      5  O   UNL     1       2.292   7.660  18.749  0.00  0.00    +0.000 OA
ENDROOT
BRANCH   1   9
ATOM      6  C   UNL     1       0.937   3.651  18.976  0.00  0.00    +0.000 C 
ATOM      7  C   UNL     1       0.942   4.233  20.400  0.00  0.00    +0.000 C 
ATOM      8  C   UNL     1       2.338   4.651  20.872  0.00  0.00    +0.000 C 
ATOM      9  C   UNL     1       3.028   5.621  19.904  0.00  0.00    +0.000 C 
ATOM     10  C   UNL     1       3.048   5.036  18.482  0.00  0.00    +0.000 C 
ATOM     11  C   UNL     1       1.667   4.584  17.991  0.00  0.00    +0.000 C 
BRANCH   6  12
ATOM     12  C   UNL     1       1.522   2.225  18.912  0.00  0.00    +0.000 C 
BRANCH  12  14
ATOM     13  C   UNL     1       3.807   1.437  18.200  0.00  0.00    +0.000 C 
ATOM     14  C   UNL     1       2.487   2.028  17.740  0.00  0.00    +0.000 C 
ENDBRANCH  12  14
ENDBRANCH   6  12
ENDBRANCH   1   9
BRANCH   3  15
ATOM     15  C   UNL     1       0.396   9.577  21.102  0.00  0.00    +0.000 A 
ATOM     16  C   UNL     1       0.139   9.321  22.455  0.00  0.00    +0.000 A 
ATOM     17  C   UNL     1      -0.704  10.166  23.175  0.00  0.00    +0.000 A 
ATOM     18  C   UNL     1      -1.261  11.245  22.511  0.00  0.00    +0.000 A 
ATOM     19  N   UNL     1      -1.032  11.533  21.212  0.00  0.00    +0.000 NA
ATOM     20  C   UNL     1      -0.207  10.688  20.536  0.00  0.00    +0.000 A 
ENDBRANCH   3  15
TORSDOF 4
ENDMDL
MODEL 8
REMARK VINA RESULT:      -7.7      1.236      1.441
REMARK  Name = 
REMARK  5 active torsions:
REMARK  status: ('A' for Active; 'I' for Inactive)
REMARK    1  A    between atoms: C_1  and  C_2
REMARK    2  A    between atoms: C_2  and  C_3
REMARK    3  A    between atoms: C_3  and  C_4
REMARK    4  A    between atoms: C_7  and  C_8
REMARK    5  A    between atoms: C_10  and  C_11
REMARK                            x       y       z     vdW  Elec       q    Type
REMARK                         _______ _______ _______ _____ _____    ______ ____
ROOT
ATOM      1  C   UNL     1       5.154   5.982  17.451  0.00  0.00    +0.000 A 
ATOM      2  N   UNL     1       4.928   5.491  16.257  0.00  0.00    +0.000 NA
ATOM      3  C   UNL     1       6.174   5.456  15.694  0.00  0.00    +0.000 A 
ATOM      4  N   UNL     1       7.143   5.938  16.487  0.00  0.00    +0.000 NA
ATOM      5  O   UNL     1       6.463   6.288  17.663  0.00  0.00    +0.000 OA
ENDROOT
BRANCH   1   9
ATOM      6  C   UNL     1       2.416   3.727  18.543  0.00  0.00    +0.000 C 
ATOM      7  C   UNL     1       2.262   4.860  17.514  0.00  0.00    +0.000 C 
ATOM      8  C   UNL     1       2.741   6.217  18.039  0.00  0.00    +0.000 C 
ATOM      9  C   UNL     1       4.182   6.176  18.567  0.00  0.00    +0.000 C 
ATOM     10  C   UNL     1       4.338   5.060  19.614  0.00  0.00    +0.000 C 
ATOM     11  C   UNL     1       3.842   3.694  19.125  0.00  0.00    +0.000 C 
BRANCH   6  12
ATOM     12  C   UNL     1       1.368   3.800  19.672  0.00  0.00    +0.000 C 
BRANCH  12  14
ATOM     13  C   UNL     1       1.853   2.851  21.957  0.00  0.00    +0.000 C 
ATOM     14  C   UNL     1       1.352   2.550  20.556  0.00  0.00    +0.000 C 
ENDBRANCH  12  14
ENDBRANCH   6  12
ENDBRANCH   1   9
BRANCH   3  15
ATOM     15  C   UNL     1       6.363   4.881  14.374  0.00  0.00    +0.000 A 
ATOM     16  C   UNL     1       5.442   3.955  13.865  0.00  0.00    +0.000 A 
ATOM     17  C   UNL     1       5.658   3.375  12.616  0.00  0.00    +0.000 A 
ATOM     18  C   UNL     1       6.792   3.747  11.916  0.00  0.00    +0.000 A 
ATOM     19  N   UNL     1       7.698   4.641  12.365  0.00  0.00    +0.000 NA
ATOM     20  C   UNL     1       7.461   5.188  13.588  0.00  0.00    +0.000 A 
ENDBRANCH   3  15
TORSDOF 4
ENDMDL
MODEL 9
REMARK VINA RESULT:      -7.7      4.623      5.808
REMARK  Name = 
REMARK  5 active torsions:
REMARK  status: ('A' for Active; 'I' for Inactive)
REMARK    1  A    between atoms: C_1  and  C_2
REMARK    2  A    between atoms: C_2  and  C_3
REMARK    3  A    between atoms: C_3  and  C_4
REMARK    4  A    between atoms: C_7  and  C_8
REMARK    5  A    between atoms: C_10  and  C_11
REMARK                            x       y       z     vdW  Elec       q    Type
REMARK                         _______ _______ _______ _____ _____    ______ ____
ROOT
ATOM      1  C   UNL     1       7.177   6.932  17.393  0.00  0.00    +0.000 A 
ATOM      2  N   UNL     1       7.303   8.231  17.273  0.00  0.00    +0.000 NA
ATOM      3  C   UNL     1       8.193   8.551  18.262  0.00  0.00    +0.000 A 
ATOM      4  N   UNL     1       8.584   7.501  19.000  0.00  0.00    +0.000 NA
ATOM      5  O   UNL     1       7.908   6.418  18.420  0.00  0.00    +0.000 OA
ENDROOT
BRANCH   1   9
ATOM      6  C   UNL     1       4.001   5.175  18.169  0.00  0.00    +0.000 C 
ATOM      7  C   UNL     1       5.407   4.603  18.424  0.00  0.00    +0.000 C 
ATOM      8  C   UNL     1       6.293   4.610  17.175  0.00  0.00    +0.000 C 
ATOM      9  C   UNL     1       6.399   5.998  16.528  0.00  0.00    +0.000 C 
ATOM     10  C   UNL     1       4.997   6.567  16.248  0.00  0.00    +0.000 C 
ATOM     11  C   UNL     1       4.077   6.548  17.476  0.00  0.00    +0.000 C 
BRANCH   6  12
ATOM     12  C   UNL     1       3.100   4.211  17.371  0.00  0.00    +0.000 C 
BRANCH  12  14
ATOM     13  C   UNL     1       1.281   3.496  18.963  0.00  0.00    +0.000 C 
ATOM     14  C   UNL     1       1.619   4.332  17.742  0.00  0.00    +0.000 C 
ENDBRANCH  12  14
ENDBRANCH   6  12
ENDBRANCH   1   9
BRANCH   3  15
ATOM     15  C   UNL     1       8.668   9.915  18.403  0.00  0.00    +0.000 A 
ATOM     16  C   UNL     1       9.557  10.254  19.431  0.00  0.00    +0.000 A 
ATOM     17  C   UNL     1       9.971  11.577  19.585  0.00  0.00    +0.000 A 
ATOM     18  C   UNL     1       9.478  12.517  18.697  0.00  0.00    +0.000 A 
ATOM     19  N   UNL     1       8.628  12.231  17.689  0.00  0.00    +0.000 NA
ATOM     20  C   UNL     1       8.241  10.933  17.566  0.00  0.00    +0.000 A 
ENDBRANCH   3  15
TORSDOF 4
ENDMDL
