MODEL 1
REMARK VINA RESULT:      -9.3      0.000      0.000
REMARK  Name = 
REMARK  6 active torsions:
REMARK  status: ('A' for Active; 'I' for Inactive)
REMARK    1  A    between atoms: C_1  and  O_2
REMARK    2  A    between atoms: O_2  and  C_3
REMARK    3  A    between atoms: C_6  and  S_7
REMARK    4  A    between atoms: S_7  and  N_10
REMARK    5  A    between atoms: C_17  and  C_18
REMARK    6  A    between atoms: C_21  and  C_22
REMARK                            x       y       z     vdW  Elec       q    Type
REMARK                         _______ _______ _______ _____ _____    ______ ____
ROOT
ATOM      1  N   UNL     1      -0.588  10.671  20.871  0.00  0.00    +0.000 N 
ATOM      2  C   UNL     1      -0.460  11.764  19.991  0.00  0.00    +0.000 A 
ATOM      3  C   UNL     1      -0.972  10.962  19.022  0.00  0.00    +0.000 A 
ATOM      4 CL   UNL     1      -2.376  11.101  18.114  0.00  0.00    +0.000 Cl
ATOM      5  C   UNL     1       0.024   9.974  18.971  0.00  0.00    +0.000 A 
ATOM      6  C   UNL     1       0.578   9.458  17.739  0.00  0.00    +0.000 A 
ATOM      7  C   UNL     1       1.628   8.578  17.554  0.00  0.00    +0.000 A 
ATOM      8  C   UNL     1       2.206   8.047  18.666  0.00  0.00    +0.000 A 
ATOM      9  C   UNL     1       1.557   8.554  19.986  0.00  0.00    +0.000 A 
ATOM     10  C   UNL     1       0.455   9.632  20.465  0.00  0.00    +0.000 A 
ENDROOT
BRANCH   8  11
ATOM     11  C   UNL     1       3.447   7.066  18.381  0.00  0.00    +0.000 A 
ATOM     12  C   UNL     1       3.915   6.096  19.287  0.00  0.00    +0.000 A 
ATOM     13  C   UNL     1       5.108   5.317  19.091  0.00  0.00    +0.000 A 
ATOM     14  C   UNL     1       5.885   5.436  17.939  0.00  0.00    +0.000 A 
ATOM     15  C   UNL     1       5.422   6.311  16.970  0.00  0.00    +0.000 A 
ATOM     16  F   UNL     1       6.159   6.499  15.859  0.00  0.00    +0.000 F 
ATOM     17  C   UNL     1       4.229   7.087  17.165  0.00  0.00    +0.000 A 
BRANCH  14  18
ATOM     18  C   UNL     1       7.137   4.730  17.808  0.00  0.00    +0.000 C 
ATOM     19  N   UNL     1       8.114   4.107  17.710  0.00  0.00    +0.000 NA
ENDBRANCH  14  18
ENDBRANCH   8  11
BRANCH   1  20
ATOM     20  S   UNL     1      -1.111  11.512  22.599  0.00  0.00    +0.000 S 
ATOM     21  O   UNL     1      -0.213  12.653  22.667  0.00  0.00    +0.000 OA
ATOM     22  O   UNL     1      -1.086  10.425  23.553  0.00  0.00    +0.000 OA
BRANCH  20  26
ATOM     23  C   UNL     1      -5.660  13.522  22.871  0.00  0.00    +0.000 A 
ATOM     24  C   UNL     1      -4.960  13.023  23.979  0.00  0.00    +0.000 A 
ATOM     25  C   UNL     1      -3.631  12.467  23.899  0.00  0.00    +0.000 A 
ATOM     26  C   UNL     1      -2.957  12.336  22.684  0.00  0.00    +0.000 A 
ATOM     27  C   UNL     1      -3.640  12.908  21.549  0.00  0.00    +0.000 A 
ATOM     28  C   UNL     1      -4.984  13.479  21.654  0.00  0.00    +0.000 A 
BRANCH  23  30
ATOM     29  C   UNL     1      -7.626  13.580  24.305  0.00  0.00    +0.000 C 
ATOM     30  O   UNL     1      -6.935  13.978  23.115  0.00  0.00    +0.000 OA
ENDBRANCH  23  30
ENDBRANCH  20  26
ENDBRANCH   1  20
TORSDOF 5
ENDMDL
MODEL 2
REMARK VINA RESULT:      -9.1      6.133     11.963
REMARK  Name = 
REMARK  6 active torsions:
REMARK  status: ('A' for Active; 'I' for Inactive)
REMARK    1  A    between atoms: C_1  and  O_2
REMARK    2  A    between atoms: O_2  and  C_3
REMARK    3  A    between atoms: C_6  and  S_7
REMARK    4  A    between atoms: S_7  and  N_10
REMARK    5  A    between atoms: C_17  and  C_18
REMARK    6  A    between atoms: C_21  and  C_22
REMARK                            x       y       z     vdW  Elec       q    Type
REMARK                         _______ _______ _______ _____ _____    ______ ____
ROOT
ATOM      1  N   UNL     1       5.128   5.463  17.887  0.00  0.00    +0.000 N 
ATOM      2  C   UNL     1       5.636   4.799  19.021  0.00  0.00    +0.000 A 
ATOM      3  C   UNL     1       4.440   4.163  19.106  0.00  0.00    +0.000 A 
ATOM      4 CL   UNL     1       4.055   2.533  19.003  0.00  0.00    +0.000 Cl
ATOM      5  C   UNL     1       3.595   5.261  19.329  0.00  0.00    +0.000 A 
ATOM      6  C   UNL     1       2.550   5.279  20.329  0.00  0.00    +0.000 A 
ATOM      7  C   UNL     1       1.733   6.324  20.721  0.00  0.00    +0.000 A 
ATOM      8  C   UNL     1       1.851   7.500  20.048  0.00  0.00    +0.000 A 
ATOM      9  C   UNL     1       2.929   7.450  18.927  0.00  0.00    +0.000 A 
ATOM     10  C   UNL     1       4.063   6.444  18.371  0.00  0.00    +0.000 A 
ENDROOT
BRANCH   8  11
ATOM     11  C   UNL     1       0.903   8.684  20.583  0.00  0.00    +0.000 A 
ATOM     12  C   UNL     1       0.465   9.764  19.795  0.00  0.00    +0.000 A 
ATOM     13  C   UNL     1      -0.264  10.892  20.308  0.00  0.00    +0.000 A 
ATOM     14  C   UNL     1      -0.641  10.981  21.648  0.00  0.00    +0.000 A 
ATOM     15  C   UNL     1      -0.315   9.901  22.452  0.00  0.00    +0.000 A 
ATOM     16  F   UNL     1      -0.612   9.955  23.764  0.00  0.00    +0.000 F 
ATOM     17  C   UNL     1       0.413   8.773  21.939  0.00  0.00    +0.000 A 
BRANCH  14  18
ATOM     18  C   UNL     1      -1.272  12.169  22.168  0.00  0.00    +0.000 C 
ATOM     19  N   UNL     1      -1.739  13.126  22.636  0.00  0.00    +0.000 NA
ENDBRANCH  14  18
ENDBRANCH   8  11
BRANCH   1  20
ATOM     20  S   UNL     1       6.703   5.608  16.677  0.00  0.00    +0.000 S 
ATOM     21  O   UNL     1       7.695   4.801  17.369  0.00  0.00    +0.000 OA
ATOM     22  O   UNL     1       6.856   7.029  16.451  0.00  0.00    +0.000 OA
BRANCH  20  26
ATOM     23  C   UNL     1       6.239   3.419  12.228  0.00  0.00    +0.000 A 
ATOM     24  C   UNL     1       5.284   3.319  13.250  0.00  0.00    +0.000 A 
ATOM     25  C   UNL     1       5.411   3.977  14.528  0.00  0.00    +0.000 A 
ATOM     26  C   UNL     1       6.536   4.732  14.862  0.00  0.00    +0.000 A 
ATOM     27  C   UNL     1       7.491   4.898  13.793  0.00  0.00    +0.000 A 
ATOM     28  C   UNL     1       7.339   4.231  12.499  0.00  0.00    +0.000 A 
BRANCH  23  30
ATOM     29  C   UNL     1       6.404   1.326  10.996  0.00  0.00    +0.000 C 
ATOM     30  O   UNL     1       5.984   2.693  11.088  0.00  0.00    +0.000 OA
ENDBRANCH  23  30
ENDBRANCH  20  26
ENDBRANCH   1  20
TORSDOF 5
ENDMDL
MODEL 3
REMARK VINA RESULT:      -9.1      6.081     11.915
REMARK  Name = 
REMARK  6 active torsions:
REMARK  status: ('A' for Active; 'I' for Inactive)
REMARK    1  A    between atoms: C_1  and  O_2
REMARK    2  A    between atoms: O_2  and  C_3
REMARK    3  A    between atoms: C_6  and  S_7
REMARK    4  A    between atoms: S_7  and  N_10
REMARK    5  A    between atoms: C_17  and  C_18
REMARK    6  A    between atoms: C_21  and  C_22
REMARK                            x       y       z     vdW  Elec       q    Type
REMARK                         _______ _______ _______ _____ _____    ______ ____
ROOT
ATOM      1  N   UNL     1       5.006   5.438  17.822  0.00  0.00    +0.000 N 
ATOM      2  C   UNL     1       5.449   4.597  18.861  0.00  0.00    +0.000 A 
ATOM      3  C   UNL     1       4.205   4.053  18.866  0.00  0.00    +0.000 A 
ATOM      4 CL   UNL     1       3.693   2.485  18.556  0.00  0.00    +0.000 Cl
ATOM      5  C   UNL     1       3.447   5.178  19.226  0.00  0.00    +0.000 A 
ATOM      6  C   UNL     1       2.398   5.153  20.220  0.00  0.00    +0.000 A 
ATOM      7  C   UNL     1       1.662   6.201  20.742  0.00  0.00    +0.000 A 
ATOM      8  C   UNL     1       1.880   7.441  20.224  0.00  0.00    +0.000 A 
ATOM      9  C   UNL     1       2.961   7.447  19.106  0.00  0.00    +0.000 A 
ATOM     10  C   UNL     1       4.017   6.432  18.426  0.00  0.00    +0.000 A 
ENDROOT
BRANCH   8  11
ATOM     11  C   UNL     1       1.024   8.619  20.905  0.00  0.00    +0.000 A 
ATOM     12  C   UNL     1       0.860   8.777  22.294  0.00  0.00    +0.000 A 
ATOM     13  C   UNL     1      -0.017   9.743  22.898  0.00  0.00    +0.000 A 
ATOM     14  C   UNL     1      -0.756  10.648  22.135  0.00  0.00    +0.000 A 
ATOM     15  C   UNL     1      -0.564  10.598  20.764  0.00  0.00    +0.000 A 
ATOM     16  F   UNL     1      -1.288  11.417  19.977  0.00  0.00    +0.000 F 
ATOM     17  C   UNL     1       0.314   9.634  20.161  0.00  0.00    +0.000 A 
BRANCH  14  18
ATOM     18  C   UNL     1      -1.714  11.533  22.751  0.00  0.00    +0.000 C 
ATOM     19  N   UNL     1      -2.474  12.219  23.303  0.00  0.00    +0.000 NA
ENDBRANCH  14  18
ENDBRANCH   8  11
BRANCH   1  20
ATOM     20  S   UNL     1       6.600   5.609  16.639  0.00  0.00    +0.000 S 
ATOM     21  O   UNL     1       7.593   4.819  17.350  0.00  0.00    +0.000 OA
ATOM     22  O   UNL     1       6.732   7.032  16.414  0.00  0.00    +0.000 OA
BRANCH  20  26
ATOM     23  C   UNL     1       6.254   3.406  12.187  0.00  0.00    +0.000 A 
ATOM     24  C   UNL     1       5.304   3.255  13.207  0.00  0.00    +0.000 A 
ATOM     25  C   UNL     1       5.395   3.917  14.486  0.00  0.00    +0.000 A 
ATOM     26  C   UNL     1       6.480   4.728  14.823  0.00  0.00    +0.000 A 
ATOM     27  C   UNL     1       7.427   4.945  13.756  0.00  0.00    +0.000 A 
ATOM     28  C   UNL     1       7.310   4.272  12.460  0.00  0.00    +0.000 A 
BRANCH  23  30
ATOM     29  C   UNL     1       6.287   1.259  11.040  0.00  0.00    +0.000 C 
ATOM     30  O   UNL     1       6.038   2.670  11.045  0.00  0.00    +0.000 OA
ENDBRANCH  23  30
ENDBRANCH  20  26
ENDBRANCH   1  20
TORSDOF 5
ENDMDL
MODEL 4
REMARK VINA RESULT:      -9.1      2.715      3.331
REMARK  Name = 
REMARK  6 active torsions:
REMARK  status: ('A' for Active; 'I' for Inactive)
REMARK    1  A    between atoms: C_1  and  O_2
REMARK    2  A    between atoms: O_2  and  C_3
REMARK    3  A    between atoms: C_6  and  S_7
REMARK    4  A    between atoms: S_7  and  N_10
REMARK    5  A    between atoms: C_17  and  C_18
REMARK    6  A    between atoms: C_21  and  C_22
REMARK                            x       y       z     vdW  Elec       q    Type
REMARK                         _______ _______ _______ _____ _____    ______ ____
ROOT
ATOM      1  N   UNL     1       0.101  10.716  19.861  0.00  0.00    +0.000 N 
ATOM      2  C   UNL     1      -0.856   9.849  20.422  0.00  0.00    +0.000 A 
ATOM      3  C   UNL     1       0.111   9.439  21.281  0.00  0.00    +0.000 A 
ATOM      4 CL   UNL     1       0.202   9.532  22.954  0.00  0.00    +0.000 Cl
ATOM      5  C   UNL     1       1.027   8.885  20.373  0.00  0.00    +0.000 A 
ATOM      6  C   UNL     1       1.679   7.611  20.569  0.00  0.00    +0.000 A 
ATOM      7  C   UNL     1       2.505   6.909  19.709  0.00  0.00    +0.000 A 
ATOM      8  C   UNL     1       2.827   7.500  18.526  0.00  0.00    +0.000 A 
ATOM      9  C   UNL     1       2.176   8.902  18.354  0.00  0.00    +0.000 A 
ATOM     10  C   UNL     1       1.116   9.855  19.113  0.00  0.00    +0.000 A 
ENDROOT
BRANCH   8  11
ATOM     11  C   UNL     1       3.753   6.613  17.557  0.00  0.00    +0.000 A 
ATOM     12  C   UNL     1       4.576   7.142  16.545  0.00  0.00    +0.000 A 
ATOM     13  C   UNL     1       5.294   6.343  15.590  0.00  0.00    +0.000 A 
ATOM     14  C   UNL     1       5.265   4.949  15.622  0.00  0.00    +0.000 A 
ATOM     15  C   UNL     1       4.544   4.372  16.655  0.00  0.00    +0.000 A 
ATOM     16  F   UNL     1       4.442   3.030  16.705  0.00  0.00    +0.000 F 
ATOM     17  C   UNL     1       3.827   5.170  17.610  0.00  0.00    +0.000 A 
BRANCH  14  18
ATOM     18  C   UNL     1       5.899   4.166  14.590  0.00  0.00    +0.000 C 
ATOM     19  N   UNL     1       6.352   3.517  13.737  0.00  0.00    +0.000 NA
ENDBRANCH  14  18
ENDBRANCH   8  11
BRANCH   1  20
ATOM     20  S   UNL     1      -0.947  12.345  19.398  0.00  0.00    +0.000 S 
ATOM     21  O   UNL     1      -0.569  12.568  18.012  0.00  0.00    +0.000 OA
ATOM     22  O   UNL     1      -0.650  13.281  20.461  0.00  0.00    +0.000 OA
BRANCH  20  26
ATOM     23  C   UNL     1      -5.903  11.867  19.294  0.00  0.00    +0.000 A 
ATOM     24  C   UNL     1      -5.206  12.544  20.306  0.00  0.00    +0.000 A 
ATOM     25  C   UNL     1      -3.772  12.703  20.317  0.00  0.00    +0.000 A 
ATOM     26  C   UNL     1      -2.958  12.140  19.332  0.00  0.00    +0.000 A 
ATOM     27  C   UNL     1      -3.670  11.502  18.252  0.00  0.00    +0.000 A 
ATOM     28  C   UNL     1      -5.128  11.361  18.253  0.00  0.00    +0.000 A 
BRANCH  23  30
ATOM     29  C   UNL     1      -7.808  11.271  20.687  0.00  0.00    +0.000 C 
ATOM     30  O   UNL     1      -7.266  11.769  19.459  0.00  0.00    +0.000 OA
ENDBRANCH  23  30
ENDBRANCH  20  26
ENDBRANCH   1  20
TORSDOF 5
ENDMDL
MODEL 5
REMARK VINA RESULT:      -9.0      2.297      2.815
REMARK  Name = 
REMARK  6 active torsions:
REMARK  status: ('A' for Active; 'I' for Inactive)
REMARK    1  A    between atoms: C_1  and  O_2
REMARK    2  A    between atoms: O_2  and  C_3
REMARK    3  A    between atoms: C_6  and  S_7
REMARK    4  A    between atoms: S_7  and  N_10
REMARK    5  A    between atoms: C_17  and  C_18
REMARK    6  A    between atoms: C_21  and  C_22
REMARK                            x       y       z     vdW  Elec       q    Type
REMARK                         _______ _______ _______ _____ _____    ______ ____
ROOT
ATOM      1  N   UNL     1       0.055  10.517  20.161  0.00  0.00    +0.000 N 
ATOM      2  C   UNL     1      -0.868   9.615  20.727  0.00  0.00    +0.000 A 
ATOM      3  C   UNL     1       0.131   9.208  21.551  0.00  0.00    +0.000 A 
ATOM      4 CL   UNL     1       0.265   9.265  23.222  0.00  0.00    +0.000 Cl
ATOM      5  C   UNL     1       1.034   8.696  20.607  0.00  0.00    +0.000 A 
ATOM      6  C   UNL     1       1.720   7.433  20.756  0.00  0.00    +0.000 A 
ATOM      7  C   UNL     1       2.538   6.770  19.859  0.00  0.00    +0.000 A 
ATOM      8  C   UNL     1       2.815   7.394  18.682  0.00  0.00    +0.000 A 
ATOM      9  C   UNL     1       2.129   8.785  18.559  0.00  0.00    +0.000 A 
ATOM     10  C   UNL     1       1.069   9.696  19.367  0.00  0.00    +0.000 A 
ENDROOT
BRANCH   8  11
ATOM     11  C   UNL     1       3.735   6.550  17.669  0.00  0.00    +0.000 A 
ATOM     12  C   UNL     1       4.520   7.121  16.650  0.00  0.00    +0.000 A 
ATOM     13  C   UNL     1       5.230   6.361  15.657  0.00  0.00    +0.000 A 
ATOM     14  C   UNL     1       5.232   4.966  15.657  0.00  0.00    +0.000 A 
ATOM     15  C   UNL     1       4.550   4.349  16.694  0.00  0.00    +0.000 A 
ATOM     16  F   UNL     1       4.479   3.005  16.715  0.00  0.00    +0.000 F 
ATOM     17  C   UNL     1       3.841   5.109  17.686  0.00  0.00    +0.000 A 
BRANCH  14  18
ATOM     18  C   UNL     1       5.856   4.221  14.591  0.00  0.00    +0.000 C 
ATOM     19  N   UNL     1       6.341   3.566  13.761  0.00  0.00    +0.000 NA
ENDBRANCH  14  18
ENDBRANCH   8  11
BRANCH   1  20
ATOM     20  S   UNL     1      -1.041  12.131  19.764  0.00  0.00    +0.000 S 
ATOM     21  O   UNL     1      -1.703  11.753  18.525  0.00  0.00    +0.000 OA
ATOM     22  O   UNL     1      -0.110  13.234  19.861  0.00  0.00    +0.000 OA
BRANCH  20  26
ATOM     23  C   UNL     1      -4.761  13.079  22.936  0.00  0.00    +0.000 A 
ATOM     24  C   UNL     1      -3.504  12.598  23.330  0.00  0.00    +0.000 A 
ATOM     25  C   UNL     1      -2.421  12.351  22.409  0.00  0.00    +0.000 A 
ATOM     26  C   UNL     1      -2.566  12.527  21.033  0.00  0.00    +0.000 A 
ATOM     27  C   UNL     1      -3.832  13.087  20.625  0.00  0.00    +0.000 A 
ATOM     28  C   UNL     1      -4.915  13.342  21.577  0.00  0.00    +0.000 A 
BRANCH  23  30
ATOM     29  C   UNL     1      -7.082  12.983  23.663  0.00  0.00    +0.000 C 
ATOM     30  O   UNL     1      -5.696  13.219  23.936  0.00  0.00    +0.000 OA
ENDBRANCH  23  30
ENDBRANCH  20  26
ENDBRANCH   1  20
TORSDOF 5
ENDMDL
MODEL 6
REMARK VINA RESULT:      -9.0      2.328      2.964
REMARK  Name = 
REMARK  6 active torsions:
REMARK  status: ('A' for Active; 'I' for Inactive)
REMARK    1  A    between atoms: C_1  and  O_2
REMARK    2  A    between atoms: O_2  and  C_3
REMARK    3  A    between atoms: C_6  and  S_7
REMARK    4  A    between atoms: S_7  and  N_10
REMARK    5  A    between atoms: C_17  and  C_18
REMARK    6  A    between atoms: C_21  and  C_22
REMARK                            x       y       z     vdW  Elec       q    Type
REMARK                         _______ _______ _______ _____ _____    ______ ____
ROOT
ATOM      1  N   UNL     1       0.105  10.631  20.057  0.00  0.00    +0.000 N 
ATOM      2  C   UNL     1      -0.869   9.760  20.583  0.00  0.00    +0.000 A 
ATOM      3  C   UNL     1       0.085   9.311  21.439  0.00  0.00    +0.000 A 
ATOM      4 CL   UNL     1       0.162   9.352  23.114  0.00  0.00    +0.000 Cl
ATOM      5  C   UNL     1       1.002   8.773  20.522  0.00  0.00    +0.000 A 
ATOM      6  C   UNL     1       1.636   7.484  20.686  0.00  0.00    +0.000 A 
ATOM      7  C   UNL     1       2.460   6.797  19.812  0.00  0.00    +0.000 A 
ATOM      8  C   UNL     1       2.801   7.420  18.651  0.00  0.00    +0.000 A 
ATOM      9  C   UNL     1       2.171   8.835  18.515  0.00  0.00    +0.000 A 
ATOM     10  C   UNL     1       1.116   9.779  19.292  0.00  0.00    +0.000 A 
ENDROOT
BRANCH   8  11
ATOM     11  C   UNL     1       3.725   6.549  17.663  0.00  0.00    +0.000 A 
ATOM     12  C   UNL     1       4.529   7.095  16.646  0.00  0.00    +0.000 A 
ATOM     13  C   UNL     1       5.244   6.311  15.676  0.00  0.00    +0.000 A 
ATOM     14  C   UNL     1       5.230   4.916  15.697  0.00  0.00    +0.000 A 
ATOM     15  C   UNL     1       4.527   4.324  16.734  0.00  0.00    +0.000 A 
ATOM     16  F   UNL     1       4.441   2.981  16.776  0.00  0.00    +0.000 F 
ATOM     17  C   UNL     1       3.814   5.107  17.705  0.00  0.00    +0.000 A 
BRANCH  14  18
ATOM     18  C   UNL     1       5.860   4.148  14.651  0.00  0.00    +0.000 C 
ATOM     19  N   UNL     1       6.354   3.576  13.768  0.00  0.00    +0.000 NA
ENDBRANCH  14  18
ENDBRANCH   8  11
BRANCH   1  20
ATOM     20  S   UNL     1      -0.917  12.286  19.635  0.00  0.00    +0.000 S 
ATOM     21  O   UNL     1      -1.304  12.061  18.251  0.00  0.00    +0.000 OA
ATOM     22  O   UNL     1      -0.046  13.365  20.049  0.00  0.00    +0.000 OA
BRANCH  20  26
ATOM     23  C   UNL     1      -5.276  12.913  21.959  0.00  0.00    +0.000 A 
ATOM     24  C   UNL     1      -5.144  12.800  20.568  0.00  0.00    +0.000 A 
ATOM     25  C   UNL     1      -3.881  12.591  19.902  0.00  0.00    +0.000 A 
ATOM     26  C   UNL     1      -2.676  12.538  20.602  0.00  0.00    +0.000 A 
ATOM     27  C   UNL     1      -2.809  12.584  22.038  0.00  0.00    +0.000 A 
ATOM     28  C   UNL     1      -4.101  12.784  22.696  0.00  0.00    +0.000 A 
BRANCH  23  30
ATOM     29  C   UNL     1      -7.602  12.222  22.160  0.00  0.00    +0.000 C 
ATOM     30  O   UNL     1      -6.547  13.153  22.429  0.00  0.00    +0.000 OA
ENDBRANCH  23  30
ENDBRANCH  20  26
ENDBRANCH   1  20
TORSDOF 5
ENDMDL
MODEL 7
REMARK VINA RESULT:      -8.8      6.063     11.920
REMARK  Name = 
REMARK  6 active torsions:
REMARK  status: ('A' for Active; 'I' for Inactive)
REMARK    1  A    between atoms: C_1  and  O_2
REMARK    2  A    between atoms: O_2  and  C_3
REMARK    3  A    between atoms: C_6  and  S_7
REMARK    4  A    between atoms: S_7  and  N_10
REMARK    5  A    between atoms: C_17  and  C_18
REMARK    6  A    between atoms: C_21  and  C_22
REMARK                            x       y       z     vdW  Elec       q    Type
REMARK                         _______ _______ _______ _____ _____    ______ ____
ROOT
ATOM      1  N   UNL     1       5.249   5.688  17.886  0.00  0.00    +0.000 N 
ATOM      2  C   UNL     1       5.729   5.304  19.153  0.00  0.00    +0.000 A 
ATOM      3  C   UNL     1       4.547   4.662  19.337  0.00  0.00    +0.000 A 
ATOM      4 CL   UNL     1       4.208   3.037  19.580  0.00  0.00    +0.000 Cl
ATOM      5  C   UNL     1       3.666   5.753  19.286  0.00  0.00    +0.000 A 
ATOM      6  C   UNL     1       2.584   5.954  20.223  0.00  0.00    +0.000 A 
ATOM      7  C   UNL     1       1.725   7.031  20.351  0.00  0.00    +0.000 A 
ATOM      8  C   UNL     1       1.840   8.036  19.441  0.00  0.00    +0.000 A 
ATOM      9  C   UNL     1       2.961   7.779  18.393  0.00  0.00    +0.000 A 
ATOM     10  C   UNL     1       4.141   6.715  18.108  0.00  0.00    +0.000 A 
ENDROOT
BRANCH   8  11
ATOM     11  C   UNL     1       0.842   9.275  19.673  0.00  0.00    +0.000 A 
ATOM     12  C   UNL     1       0.211   9.989  18.637  0.00  0.00    +0.000 A 
ATOM     13  C   UNL     1      -0.568  11.181  18.836  0.00  0.00    +0.000 A 
ATOM     14  C   UNL     1      -0.800  11.707  20.107  0.00  0.00    +0.000 A 
ATOM     15  C   UNL     1      -0.279  10.993  21.174  0.00  0.00    +0.000 A 
ATOM     16  F   UNL     1      -0.433  11.482  22.419  0.00  0.00    +0.000 F 
ATOM     17  C   UNL     1       0.498   9.801  20.974  0.00  0.00    +0.000 A 
BRANCH  14  18
ATOM     18  C   UNL     1      -1.487  12.964  20.279  0.00  0.00    +0.000 C 
ATOM     19  N   UNL     1      -2.015  13.981  20.477  0.00  0.00    +0.000 NA
ENDBRANCH  14  18
ENDBRANCH   8  11
BRANCH   1  20
ATOM     20  S   UNL     1       6.865   5.619  16.725  0.00  0.00    +0.000 S 
ATOM     21  O   UNL     1       7.723   4.695  17.450  0.00  0.00    +0.000 OA
ATOM     22  O   UNL     1       7.207   7.006  16.498  0.00  0.00    +0.000 OA
BRANCH  20  26
ATOM     23  C   UNL     1       6.263   3.464  12.276  0.00  0.00    +0.000 A 
ATOM     24  C   UNL     1       5.358   3.327  13.338  0.00  0.00    +0.000 A 
ATOM     25  C   UNL     1       5.523   3.975  14.615  0.00  0.00    +0.000 A 
ATOM     26  C   UNL     1       6.641   4.757  14.909  0.00  0.00    +0.000 A 
ATOM     27  C   UNL     1       7.543   4.961  13.801  0.00  0.00    +0.000 A 
ATOM     28  C   UNL     1       7.351   4.303  12.507  0.00  0.00    +0.000 A 
BRANCH  23  30
ATOM     29  C   UNL     1       6.345   1.361  11.052  0.00  0.00    +0.000 C 
ATOM     30  O   UNL     1       5.978   2.743  11.139  0.00  0.00    +0.000 OA
ENDBRANCH  23  30
ENDBRANCH  20  26
ENDBRANCH   1  20
TORSDOF 5
ENDMDL
MODEL 8
REMARK VINA RESULT:      -8.8      2.543      3.279
REMARK  Name = 
REMARK  6 active torsions:
REMARK  status: ('A' for Active; 'I' for Inactive)
REMARK    1  A    between atoms: C_1  and  O_2
REMARK    2  A    between atoms: O_2  and  C_3
REMARK    3  A    between atoms: C_6  and  S_7
REMARK    4  A    between atoms: S_7  and  N_10
REMARK    5  A    between atoms: C_17  and  C_18
REMARK    6  A    between atoms: C_21  and  C_22
REMARK                            x       y       z     vdW  Elec       q    Type
REMARK                         _______ _______ _______ _____ _____    ______ ____
ROOT
ATOM      1  N   UNL     1       0.139  10.746  20.102  0.00  0.00    +0.000 N 
ATOM      2  C   UNL     1      -0.890   9.908  20.576  0.00  0.00    +0.000 A 
ATOM      3  C   UNL     1       0.013   9.404  21.456  0.00  0.00    +0.000 A 
ATOM      4 CL   UNL     1       0.030   9.413  23.134  0.00  0.00    +0.000 Cl
ATOM      5  C   UNL     1       0.939   8.844  20.563  0.00  0.00    +0.000 A 
ATOM      6  C   UNL     1       1.512   7.527  20.724  0.00  0.00    +0.000 A 
ATOM      7  C   UNL     1       2.338   6.821  19.868  0.00  0.00    +0.000 A 
ATOM      8  C   UNL     1       2.747   7.448  18.731  0.00  0.00    +0.000 A 
ATOM      9  C   UNL     1       2.182   8.892  18.600  0.00  0.00    +0.000 A 
ATOM     10  C   UNL     1       1.140   9.865  19.357  0.00  0.00    +0.000 A 
ENDROOT
BRANCH   8  11
ATOM     11  C   UNL     1       3.669   6.557  17.761  0.00  0.00    +0.000 A 
ATOM     12  C   UNL     1       4.544   7.086  16.794  0.00  0.00    +0.000 A 
ATOM     13  C   UNL     1       5.261   6.292  15.834  0.00  0.00    +0.000 A 
ATOM     14  C   UNL     1       5.176   4.899  15.818  0.00  0.00    +0.000 A 
ATOM     15  C   UNL     1       4.400   4.318  16.807  0.00  0.00    +0.000 A 
ATOM     16  F   UNL     1       4.245   2.980  16.808  0.00  0.00    +0.000 F 
ATOM     17  C   UNL     1       3.684   5.112  17.767  0.00  0.00    +0.000 A 
BRANCH  14  18
ATOM     18  C   UNL     1       5.812   4.126  14.779  0.00  0.00    +0.000 C 
ATOM     19  N   UNL     1       6.291   3.535  13.899  0.00  0.00    +0.000 NA
ENDBRANCH  14  18
ENDBRANCH   8  11
BRANCH   1  20
ATOM     20  S   UNL     1      -0.797  12.451  19.675  0.00  0.00    +0.000 S 
ATOM     21  O   UNL     1      -0.576  12.570  18.242  0.00  0.00    +0.000 OA
ATOM     22  O   UNL     1      -0.281  13.399  20.638  0.00  0.00    +0.000 OA
BRANCH  20  26
ATOM     23  C   UNL     1      -5.761  12.438  20.073  0.00  0.00    +0.000 A 
ATOM     24  C   UNL     1      -5.071  12.053  18.914  0.00  0.00    +0.000 A 
ATOM     25  C   UNL     1      -3.632  12.033  18.814  0.00  0.00    +0.000 A 
ATOM     26  C   UNL     1      -2.812  12.451  19.862  0.00  0.00    +0.000 A 
ATOM     27  C   UNL     1      -3.510  12.783  21.080  0.00  0.00    +0.000 A 
ATOM     28  C   UNL     1      -4.971  12.787  21.166  0.00  0.00    +0.000 A 
BRANCH  23  30
ATOM     29  C   UNL     1      -7.779  12.861  18.777  0.00  0.00    +0.000 C 
ATOM     30  O   UNL     1      -7.135  12.442  19.986  0.00  0.00    +0.000 OA
ENDBRANCH  23  30
ENDBRANCH  20  26
ENDBRANCH   1  20
TORSDOF 5
ENDMDL
MODEL 9
REMARK VINA RESULT:      -8.7      5.988     11.877
REMARK  Name = 
REMARK  6 active torsions:
REMARK  status: ('A' for Active; 'I' for Inactive)
REMARK    1  A    between atoms: C_1  and  O_2
REMARK    2  A    between atoms: O_2  and  C_3
REMARK    3  A    between atoms: C_6  and  S_7
REMARK    4  A    between atoms: S_7  and  N_10
REMARK    5  A    between atoms: C_17  and  C_18
REMARK    6  A    between atoms: C_21  and  C_22
REMARK                            x       y       z     vdW  Elec       q    Type
REMARK                         _______ _______ _______ _____ _____    ______ ____
ROOT
ATOM      1  N   UNL     1       5.238   5.740  17.891  0.00  0.00    +0.000 N 
ATOM      2  C   UNL     1       5.736   5.398  19.164  0.00  0.00    +0.000 A 
ATOM      3  C   UNL     1       4.563   4.750  19.380  0.00  0.00    +0.000 A 
ATOM      4 CL   UNL     1       4.245   3.129  19.675  0.00  0.00    +0.000 Cl
ATOM      5  C   UNL     1       3.670   5.830  19.307  0.00  0.00    +0.000 A 
ATOM      6  C   UNL     1       2.596   6.046  20.250  0.00  0.00    +0.000 A 
ATOM      7  C   UNL     1       1.727   7.118  20.356  0.00  0.00    +0.000 A 
ATOM      8  C   UNL     1       1.821   8.097  19.416  0.00  0.00    +0.000 A 
ATOM      9  C   UNL     1       2.933   7.821  18.363  0.00  0.00    +0.000 A 
ATOM     10  C   UNL     1       4.121   6.761  18.096  0.00  0.00    +0.000 A 
ENDROOT
BRANCH   8  11
ATOM     11  C   UNL     1       0.812   9.332  19.623  0.00  0.00    +0.000 A 
ATOM     12  C   UNL     1       0.444   9.851  20.878  0.00  0.00    +0.000 A 
ATOM     13  C   UNL     1      -0.563  10.860  21.070  0.00  0.00    +0.000 A 
ATOM     14  C   UNL     1      -1.234  11.446  19.997  0.00  0.00    +0.000 A 
ATOM     15  C   UNL     1      -0.846  11.039  18.730  0.00  0.00    +0.000 A 
ATOM     16  F   UNL     1      -1.494  11.538  17.661  0.00  0.00    +0.000 F 
ATOM     17  C   UNL     1       0.161  10.032  18.539  0.00  0.00    +0.000 A 
BRANCH  14  18
ATOM     18  C   UNL     1      -2.318  12.374  20.212  0.00  0.00    +0.000 C 
ATOM     19  N   UNL     1      -3.149  13.169  20.382  0.00  0.00    +0.000 NA
ENDBRANCH  14  18
ENDBRANCH   8  11
BRANCH   1  20
ATOM     20  S   UNL     1       6.842   5.653  16.714  0.00  0.00    +0.000 S 
ATOM     21  O   UNL     1       7.710   4.746  17.447  0.00  0.00    +0.000 OA
ATOM     22  O   UNL     1       7.177   7.037  16.458  0.00  0.00    +0.000 OA
BRANCH  20  26
ATOM     23  C   UNL     1       6.194   3.419  12.311  0.00  0.00    +0.000 A 
ATOM     24  C   UNL     1       5.254   3.381  13.350  0.00  0.00    +0.000 A 
ATOM     25  C   UNL     1       5.435   4.053  14.614  0.00  0.00    +0.000 A 
ATOM     26  C   UNL     1       6.601   4.757  14.917  0.00  0.00    +0.000 A 
ATOM     27  C   UNL     1       7.544   4.860  13.830  0.00  0.00    +0.000 A 
ATOM     28  C   UNL     1       7.336   4.180  12.550  0.00  0.00    +0.000 A 
BRANCH  23  30
ATOM     29  C   UNL     1       6.612   1.492  10.884  0.00  0.00    +0.000 C 
ATOM     30  O   UNL     1       5.885   2.688  11.187  0.00  0.00    +0.000 OA
ENDBRANCH  23  30
ENDBRANCH  20  26
ENDBRANCH   1  20
TORSDOF 5
ENDMDL
