MODEL 1
REMARK VINA RESULT:      -7.2      0.000      0.000
REMARK  Name = 
REMARK  8 active torsions:
REMARK  status: ('A' for Active; 'I' for Inactive)
REMARK    1  A    between atoms: C_1  and  O_2
REMARK    2  A    between atoms: O_2  and  C_3
REMARK    3  A    between atoms: C_9  and  C_10
REMARK    4  A    between atoms: C_21  and  C_22
REMARK    5  A    between atoms: N_24  and  C_25
REMARK    6  A    between atoms: C_25  and  C_26
REMARK    7  A    between atoms: C_26  and  C_27
REMARK    8  A    between atoms: C_27  and  O_28
REMARK                            x       y       z     vdW  Elec       q    Type
REMARK                         _______ _______ _______ _____ _____    ______ ____
ROOT
ATOM      1  C   UNL     1       3.983   5.303  17.359  0.00  0.00    +0.000 C 
ATOM      2  C   UNL     1       3.790   4.020  16.523  0.00  0.00    +0.000 C 
ATOM      3  C   UNL     1       3.850   2.922  17.567  0.00  0.00    +0.000 C 
ATOM      4  C   UNL     1       3.049   3.521  18.711  0.00  0.00    +0.000 C 
ATOM      5  N   UNL     1       3.212   4.973  18.581  0.00  0.00    +0.000 N 
ATOM      6  C   UNL     1       2.484   5.896  19.328  0.00  0.00    +0.000 A 
ATOM      7  C   UNL     1       1.816   5.413  20.602  0.00  0.00    +0.000 A 
ATOM      8  C   UNL     1       1.136   6.302  21.328  0.00  0.00    +0.000 A 
ATOM      9  N   UNL     1       1.051   7.613  20.910  0.00  0.00    +0.000 N 
ATOM     10  N   UNL     1       0.399   8.615  21.539  0.00  0.00    +0.000 NA
ATOM     11  C   UNL     1       0.588   9.669  20.752  0.00  0.00    +0.000 A 
ATOM     12  C   UNL     1       1.357   9.376  19.604  0.00  0.00    +0.000 A 
ATOM     13  C   UNL     1       1.669   8.029  19.720  0.00  0.00    +0.000 A 
ATOM     14  N   UNL     1       2.396   7.154  18.943  0.00  0.00    +0.000 NA
ENDROOT
BRANCH   1  21
ATOM     15  C   UNL     1       6.328   6.118  16.706  0.00  0.00    +0.000 A 
ATOM     16  N   UNL     1       7.605   6.504  16.959  0.00  0.00    +0.000 NA
ATOM     17  C   UNL     1       8.061   6.337  18.216  0.00  0.00    +0.000 A 
ATOM     18  C   UNL     1       7.295   5.807  19.229  0.00  0.00    +0.000 A 
ATOM     19  F   UNL     1       7.811   5.616  20.449  0.00  0.00    +0.000 F 
ATOM     20  C   UNL     1       5.977   5.463  18.965  0.00  0.00    +0.000 A 
ATOM     21  C   UNL     1       5.442   5.624  17.673  0.00  0.00    +0.000 A 
BRANCH  15  23
ATOM     22  C   UNL     1       6.438   5.173  14.578  0.00  0.00    +0.000 C 
ATOM     23  O   UNL     1       5.898   6.213  15.400  0.00  0.00    +0.000 OA
ENDBRANCH  15  23
ENDBRANCH   1  21
BRANCH  12  24
ATOM     24  C   UNL     1       1.687  10.336  18.572  0.00  0.00    +0.000 C 
ATOM     25  O   UNL     1       1.912   9.985  17.415  0.00  0.00    +0.000 OA
ATOM     26  N   UNL     1       1.786  11.646  18.971  0.00  0.00    +0.000 N 
ATOM     27  H   UNL     1       1.612  11.860  19.952  0.00  0.00    +0.000 HD
BRANCH  26  28
ATOM     28  C   UNL     1       2.140  12.694  18.038  0.00  0.00    +0.000 C 
BRANCH  28  29
ATOM     29  C   UNL     1       1.313  13.969  18.212  0.00  0.00    +0.000 C 
BRANCH  29  30
ATOM     30  C   UNL     1      -0.148  13.741  18.587  0.00  0.00    +0.000 C 
BRANCH  30  31
ATOM     31  O   UNL     1      -0.822  12.995  17.586  0.00  0.00    +0.000 OA
ATOM     32  H   UNL     1      -0.511  12.067  17.670  0.00  0.00    +0.000 HD
ENDBRANCH  30  31
ENDBRANCH  29  30
ENDBRANCH  28  29
ENDBRANCH  26  28
ENDBRANCH  12  24
TORSDOF 7
ENDMDL
MODEL 2
REMARK VINA RESULT:      -7.0      1.143      1.331
REMARK  Name = 
REMARK  8 active torsions:
REMARK  status: ('A' for Active; 'I' for Inactive)
REMARK    1  A    between atoms: C_1  and  O_2
REMARK    2  A    between atoms: O_2  and  C_3
REMARK    3  A    between atoms: C_9  and  C_10
REMARK    4  A    between atoms: C_21  and  C_22
REMARK    5  A    between atoms: N_24  and  C_25
REMARK    6  A    between atoms: C_25  and  C_26
REMARK    7  A    between atoms: C_26  and  C_27
REMARK    8  A    between atoms: C_27  and  O_28
REMARK                            x       y       z     vdW  Elec       q    Type
REMARK                         _______ _______ _______ _____ _____    ______ ____
ROOT
ATOM      1  C   UNL     1       3.898   5.352  17.392  0.00  0.00    +0.000 C 
ATOM      2  C   UNL     1       3.657   4.054  16.591  0.00  0.00    +0.000 C 
ATOM      3  C   UNL     1       3.690   2.983  17.664  0.00  0.00    +0.000 C 
ATOM      4  C   UNL     1       2.918   3.637  18.797  0.00  0.00    +0.000 C 
ATOM      5  N   UNL     1       3.125   5.080  18.627  0.00  0.00    +0.000 N 
ATOM      6  C   UNL     1       2.433   6.044  19.353  0.00  0.00    +0.000 A 
ATOM      7  C   UNL     1       1.760   5.617  20.644  0.00  0.00    +0.000 A 
ATOM      8  C   UNL     1       1.114   6.545  21.351  0.00  0.00    +0.000 A 
ATOM      9  N   UNL     1       1.067   7.847  20.899  0.00  0.00    +0.000 N 
ATOM     10  N   UNL     1       0.452   8.885  21.506  0.00  0.00    +0.000 NA
ATOM     11  C   UNL     1       0.668   9.912  20.689  0.00  0.00    +0.000 A 
ATOM     12  C   UNL     1       1.419   9.565  19.544  0.00  0.00    +0.000 A 
ATOM     13  C   UNL     1       1.689   8.212  19.694  0.00  0.00    +0.000 A 
ATOM     14  N   UNL     1       2.382   7.294  18.935  0.00  0.00    +0.000 NA
ENDROOT
BRANCH   1  21
ATOM     15  C   UNL     1       6.255   6.101  16.707  0.00  0.00    +0.000 A 
ATOM     16  N   UNL     1       7.545   6.453  16.943  0.00  0.00    +0.000 NA
ATOM     17  C   UNL     1       8.011   6.279  18.196  0.00  0.00    +0.000 A 
ATOM     18  C   UNL     1       7.244   5.773  19.220  0.00  0.00    +0.000 A 
ATOM     19  F   UNL     1       7.769   5.574  20.434  0.00  0.00    +0.000 F 
ATOM     20  C   UNL     1       5.914   5.465  18.973  0.00  0.00    +0.000 A 
ATOM     21  C   UNL     1       5.368   5.635  17.687  0.00  0.00    +0.000 A 
BRANCH  15  23
ATOM     22  C   UNL     1       6.341   5.163  14.575  0.00  0.00    +0.000 C 
ATOM     23  O   UNL     1       5.813   6.201  15.406  0.00  0.00    +0.000 OA
ENDBRANCH  15  23
ENDBRANCH   1  21
BRANCH  12  24
ATOM     24  C   UNL     1       1.771  10.486  18.485  0.00  0.00    +0.000 C 
ATOM     25  O   UNL     1       2.023  10.092  17.348  0.00  0.00    +0.000 OA
ATOM     26  N   UNL     1       1.859  11.811  18.837  0.00  0.00    +0.000 N 
ATOM     27  H   UNL     1       1.661  12.060  19.804  0.00  0.00    +0.000 HD
BRANCH  26  28
ATOM     28  C   UNL     1       2.232  12.823  17.873  0.00  0.00    +0.000 C 
BRANCH  28  29
ATOM     29  C   UNL     1       2.659  14.145  18.513  0.00  0.00    +0.000 C 
BRANCH  29  30
ATOM     30  C   UNL     1       3.472  15.065  17.608  0.00  0.00    +0.000 C 
BRANCH  30  31
ATOM     31  O   UNL     1       4.827  14.648  17.541  0.00  0.00    +0.000 OA
ATOM     32  H   UNL     1       4.869  13.760  17.958  0.00  0.00    +0.000 HD
ENDBRANCH  30  31
ENDBRANCH  29  30
ENDBRANCH  28  29
ENDBRANCH  26  28
ENDBRANCH  12  24
TORSDOF 7
ENDMDL
MODEL 3
REMARK VINA RESULT:      -6.8      6.504      9.305
REMARK  Name = 
REMARK  8 active torsions:
REMARK  status: ('A' for Active; 'I' for Inactive)
REMARK    1  A    between atoms: C_1  and  O_2
REMARK    2  A    between atoms: O_2  and  C_3
REMARK    3  A    between atoms: C_9  and  C_10
REMARK    4  A    between atoms: C_21  and  C_22
REMARK    5  A    between atoms: N_24  and  C_25
REMARK    6  A    between atoms: C_25  and  C_26
REMARK    7  A    between atoms: C_26  and  C_27
REMARK    8  A    between atoms: C_27  and  O_28
REMARK                            x       y       z     vdW  Elec       q    Type
REMARK                         _______ _______ _______ _____ _____    ______ ____
ROOT
ATOM      1  C   UNL     1      -1.084  12.854  20.400  0.00  0.00    +0.000 C 
ATOM      2  C   UNL     1       0.007  13.828  19.904  0.00  0.00    +0.000 C 
ATOM      3  C   UNL     1       0.543  13.134  18.667  0.00  0.00    +0.000 C 
ATOM      4  C   UNL     1      -0.725  12.610  18.015  0.00  0.00    +0.000 C 
ATOM      5  N   UNL     1      -1.668  12.394  19.118  0.00  0.00    +0.000 N 
ATOM      6  C   UNL     1      -3.014  12.091  18.928  0.00  0.00    +0.000 A 
ATOM      7  C   UNL     1      -3.438  11.552  17.575  0.00  0.00    +0.000 A 
ATOM      8  C   UNL     1      -4.724  11.243  17.399  0.00  0.00    +0.000 A 
ATOM      9  N   UNL     1      -5.623  11.423  18.428  0.00  0.00    +0.000 N 
ATOM     10  N   UNL     1      -6.947  11.157  18.393  0.00  0.00    +0.000 NA
ATOM     11  C   UNL     1      -7.380  11.507  19.601  0.00  0.00    +0.000 A 
ATOM     12  C   UNL     1      -6.357  12.005  20.437  0.00  0.00    +0.000 A 
ATOM     13  C   UNL     1      -5.204  11.936  19.667  0.00  0.00    +0.000 A 
ATOM     14  N   UNL     1      -3.885  12.255  19.904  0.00  0.00    +0.000 NA
ENDROOT
BRANCH   1  21
ATOM     15  C   UNL     1      -0.865  11.531  22.588  0.00  0.00    +0.000 A 
ATOM     16  N   UNL     1      -0.487  10.468  23.345  0.00  0.00    +0.000 NA
ATOM     17  C   UNL     1       0.301   9.545  22.758  0.00  0.00    +0.000 A 
ATOM     18  C   UNL     1       0.722   9.637  21.451  0.00  0.00    +0.000 A 
ATOM     19  F   UNL     1       1.544   8.718  20.931  0.00  0.00    +0.000 F 
ATOM     20  C   UNL     1       0.286  10.703  20.679  0.00  0.00    +0.000 A 
ATOM     21  C   UNL     1      -0.547  11.694  21.233  0.00  0.00    +0.000 A 
BRANCH  15  23
ATOM     22  C   UNL     1      -2.920  12.069  23.548  0.00  0.00    +0.000 C 
ATOM     23  O   UNL     1      -1.599  12.512  23.220  0.00  0.00    +0.000 OA
ENDBRANCH  15  23
ENDBRANCH   1  21
BRANCH  12  24
ATOM     24  C   UNL     1      -6.562  12.480  21.789  0.00  0.00    +0.000 C 
ATOM     25  O   UNL     1      -7.330  11.908  22.560  0.00  0.00    +0.000 OA
ATOM     26  N   UNL     1      -5.893  13.627  22.137  0.00  0.00    +0.000 N 
ATOM     27  H   UNL     1      -5.294  14.060  21.437  0.00  0.00    +0.000 HD
BRANCH  26  28
ATOM     28  C   UNL     1      -6.041  14.216  23.451  0.00  0.00    +0.000 C 
BRANCH  28  29
ATOM     29  C   UNL     1      -5.102  15.397  23.697  0.00  0.00    +0.000 C 
BRANCH  29  30
ATOM     30  C   UNL     1      -4.342  15.883  22.467  0.00  0.00    +0.000 C 
BRANCH  30  31
ATOM     31  O   UNL     1      -3.196  15.080  22.226  0.00  0.00    +0.000 OA
ATOM     32  H   UNL     1      -2.470  15.458  22.768  0.00  0.00    +0.000 HD
ENDBRANCH  30  31
ENDBRANCH  29  30
ENDBRANCH  28  29
ENDBRANCH  26  28
ENDBRANCH  12  24
TORSDOF 7
ENDMDL
MODEL 4
REMARK VINA RESULT:      -6.8      4.749      7.730
REMARK  Name = 
REMARK  8 active torsions:
REMARK  status: ('A' for Active; 'I' for Inactive)
REMARK    1  A    between atoms: C_1  and  O_2
REMARK    2  A    between atoms: O_2  and  C_3
REMARK    3  A    between atoms: C_9  and  C_10
REMARK    4  A    between atoms: C_21  and  C_22
REMARK    5  A    between atoms: N_24  and  C_25
REMARK    6  A    between atoms: C_25  and  C_26
REMARK    7  A    between atoms: C_26  and  C_27
REMARK    8  A    between atoms: C_27  and  O_28
REMARK                            x       y       z     vdW  Elec       q    Type
REMARK                         _______ _______ _______ _____ _____    ______ ____
ROOT
ATOM      1  C   UNL     1      -0.566  10.344  20.702  0.00  0.00    +0.000 C 
ATOM      2  C   UNL     1      -0.028   8.992  21.217  0.00  0.00    +0.000 C 
ATOM      3  C   UNL     1       0.611   9.363  22.541  0.00  0.00    +0.000 C 
ATOM      4  C   UNL     1      -0.393  10.345  23.120  0.00  0.00    +0.000 C 
ATOM      5  N   UNL     1      -1.043  10.966  21.960  0.00  0.00    +0.000 N 
ATOM      6  C   UNL     1      -2.159  11.792  22.059  0.00  0.00    +0.000 A 
ATOM      7  C   UNL     1      -2.466  12.417  23.407  0.00  0.00    +0.000 A 
ATOM      8  C   UNL     1      -3.523  13.225  23.497  0.00  0.00    +0.000 A 
ATOM      9  N   UNL     1      -4.304  13.466  22.386  0.00  0.00    +0.000 N 
ATOM     10  N   UNL     1      -5.399  14.254  22.329  0.00  0.00    +0.000 NA
ATOM     11  C   UNL     1      -5.807  14.152  21.068  0.00  0.00    +0.000 A 
ATOM     12  C   UNL     1      -4.995  13.301  20.287  0.00  0.00    +0.000 A 
ATOM     13  C   UNL     1      -4.003  12.863  21.153  0.00  0.00    +0.000 A 
ATOM     14  N   UNL     1      -2.913  12.034  21.004  0.00  0.00    +0.000 NA
ENDROOT
BRANCH   1  21
ATOM     15  C   UNL     1       1.141  10.785  18.837  0.00  0.00    +0.000 A 
ATOM     16  N   UNL     1       2.012  11.549  18.129  0.00  0.00    +0.000 NA
ATOM     17  C   UNL     1       2.303  12.769  18.625  0.00  0.00    +0.000 A 
ATOM     18  C   UNL     1       1.760  13.255  19.791  0.00  0.00    +0.000 A 
ATOM     19  F   UNL     1       2.120  14.454  20.266  0.00  0.00    +0.000 F 
ATOM     20  C   UNL     1       0.835  12.481  20.476  0.00  0.00    +0.000 A 
ATOM     21  C   UNL     1       0.483  11.203  20.002  0.00  0.00    +0.000 A 
BRANCH  15  23
ATOM     22  C   UNL     1       2.102   8.908  17.843  0.00  0.00    +0.000 C 
ATOM     23  O   UNL     1       0.914   9.508  18.370  0.00  0.00    +0.000 OA
ENDBRANCH  15  23
ENDBRANCH   1  21
BRANCH  12  24
ATOM     24  C   UNL     1      -5.232  12.995  18.892  0.00  0.00    +0.000 C 
ATOM     25  O   UNL     1      -6.165  13.504  18.273  0.00  0.00    +0.000 OA
ATOM     26  N   UNL     1      -4.393  12.070  18.322  0.00  0.00    +0.000 N 
ATOM     27  H   UNL     1      -3.658  11.672  18.903  0.00  0.00    +0.000 HD
BRANCH  26  28
ATOM     28  C   UNL     1      -4.549  11.661  16.943  0.00  0.00    +0.000 C 
BRANCH  28  29
ATOM     29  C   UNL     1      -3.362  10.857  16.409  0.00  0.00    +0.000 C 
BRANCH  29  30
ATOM     30  C   UNL     1      -2.082  10.977  17.230  0.00  0.00    +0.000 C 
BRANCH  30  31
ATOM     31  O   UNL     1      -1.620  12.319  17.260  0.00  0.00    +0.000 OA
ATOM     32  H   UNL     1      -2.415  12.892  17.206  0.00  0.00    +0.000 HD
ENDBRANCH  30  31
ENDBRANCH  29  30
ENDBRANCH  28  29
ENDBRANCH  26  28
ENDBRANCH  12  24
TORSDOF 7
ENDMDL
MODEL 5
REMARK VINA RESULT:      -6.7      6.137      8.715
REMARK  Name = 
REMARK  8 active torsions:
REMARK  status: ('A' for Active; 'I' for Inactive)
REMARK    1  A    between atoms: C_1  and  O_2
REMARK    2  A    between atoms: O_2  and  C_3
REMARK    3  A    between atoms: C_9  and  C_10
REMARK    4  A    between atoms: C_21  and  C_22
REMARK    5  A    between atoms: N_24  and  C_25
REMARK    6  A    between atoms: C_25  and  C_26
REMARK    7  A    between atoms: C_26  and  C_27
REMARK    8  A    between atoms: C_27  and  O_28
REMARK                            x       y       z     vdW  Elec       q    Type
REMARK                         _______ _______ _______ _____ _____    ______ ____
ROOT
ATOM      1  C   UNL     1      -0.419  11.849  19.727  0.00  0.00    +0.000 C 
ATOM      2  C   UNL     1       0.900  12.081  18.960  0.00  0.00    +0.000 C 
ATOM      3  C   UNL     1       1.082  10.784  18.196  0.00  0.00    +0.000 C 
ATOM      4  C   UNL     1      -0.331  10.488  17.723  0.00  0.00    +0.000 C 
ATOM      5  N   UNL     1      -1.213  11.103  18.721  0.00  0.00    +0.000 N 
ATOM      6  C   UNL     1      -2.590  11.219  18.559  0.00  0.00    +0.000 A 
ATOM      7  C   UNL     1      -3.266  10.323  17.538  0.00  0.00    +0.000 A 
ATOM      8  C   UNL     1      -4.589  10.419  17.397  0.00  0.00    +0.000 A 
ATOM      9  N   UNL     1      -5.300  11.318  18.163  0.00  0.00    +0.000 N 
ATOM     10  N   UNL     1      -6.634  11.524  18.127  0.00  0.00    +0.000 NA
ATOM     11  C   UNL     1      -6.837  12.486  19.022  0.00  0.00    +0.000 A 
ATOM     12  C   UNL     1      -5.650  12.923  19.650  0.00  0.00    +0.000 A 
ATOM     13  C   UNL     1      -4.647  12.144  19.093  0.00  0.00    +0.000 A 
ATOM     14  N   UNL     1      -3.284  12.072  19.287  0.00  0.00    +0.000 NA
ENDROOT
BRANCH   1  21
ATOM     15  C   UNL     1      -0.907  11.418  22.210  0.00  0.00    +0.000 A 
ATOM     16  N   UNL     1      -0.862  10.697  23.360  0.00  0.00    +0.000 NA
ATOM     17  C   UNL     1      -0.081   9.599  23.367  0.00  0.00    +0.000 A 
ATOM     18  C   UNL     1       0.651   9.189  22.276  0.00  0.00    +0.000 A 
ATOM     19  F   UNL     1       1.449   8.118  22.351  0.00  0.00    +0.000 F 
ATOM     20  C   UNL     1       0.555   9.910  21.095  0.00  0.00    +0.000 A 
ATOM     21  C   UNL     1      -0.253  11.061  21.023  0.00  0.00    +0.000 A 
BRANCH  15  23
ATOM     22  C   UNL     1      -0.925  13.655  22.864  0.00  0.00    +0.000 C 
ATOM     23  O   UNL     1      -1.639  12.585  22.237  0.00  0.00    +0.000 OA
ENDBRANCH  15  23
ENDBRANCH   1  21
BRANCH  12  24
ATOM     24  C   UNL     1      -5.588  13.976  20.642  0.00  0.00    +0.000 C 
ATOM     25  O   UNL     1      -6.344  14.944  20.599  0.00  0.00    +0.000 OA
ATOM     26  N   UNL     1      -4.606  13.855  21.595  0.00  0.00    +0.000 N 
ATOM     27  H   UNL     1      -4.000  13.038  21.552  0.00  0.00    +0.000 HD
BRANCH  26  28
ATOM     28  C   UNL     1      -4.425  14.859  22.621  0.00  0.00    +0.000 C 
BRANCH  28  29
ATOM     29  C   UNL     1      -4.296  14.274  24.028  0.00  0.00    +0.000 C 
BRANCH  29  30
ATOM     30  C   UNL     1      -4.844  12.859  24.189  0.00  0.00    +0.000 C 
BRANCH  30  31
ATOM     31  O   UNL     1      -3.818  11.892  24.018  0.00  0.00    +0.000 OA
ATOM     32  H   UNL     1      -4.253  11.077  23.688  0.00  0.00    +0.000 HD
ENDBRANCH  30  31
ENDBRANCH  29  30
ENDBRANCH  28  29
ENDBRANCH  26  28
ENDBRANCH  12  24
TORSDOF 7
ENDMDL
MODEL 6
REMARK VINA RESULT:      -6.6      7.094     11.248
REMARK  Name = 
REMARK  8 active torsions:
REMARK  status: ('A' for Active; 'I' for Inactive)
REMARK    1  A    between atoms: C_1  and  O_2
REMARK    2  A    between atoms: O_2  and  C_3
REMARK    3  A    between atoms: C_9  and  C_10
REMARK    4  A    between atoms: C_21  and  C_22
REMARK    5  A    between atoms: N_24  and  C_25
REMARK    6  A    between atoms: C_25  and  C_26
REMARK    7  A    between atoms: C_26  and  C_27
REMARK    8  A    between atoms: C_27  and  O_28
REMARK                            x       y       z     vdW  Elec       q    Type
REMARK                         _______ _______ _______ _____ _____    ______ ____
ROOT
ATOM      1  C   UNL     1      -3.278  14.826  21.466  0.00  0.00    +0.000 C 
ATOM      2  C   UNL     1      -2.812  16.235  21.891  0.00  0.00    +0.000 C 
ATOM      3  C   UNL     1      -1.777  15.941  22.960  0.00  0.00    +0.000 C 
ATOM      4  C   UNL     1      -1.030  14.758  22.370  0.00  0.00    +0.000 C 
ATOM      5  N   UNL     1      -2.004  14.071  21.514  0.00  0.00    +0.000 N 
ATOM      6  C   UNL     1      -1.665  13.038  20.644  0.00  0.00    +0.000 A 
ATOM      7  C   UNL     1      -0.355  12.309  20.879  0.00  0.00    +0.000 A 
ATOM      8  C   UNL     1      -0.041  11.305  20.058  0.00  0.00    +0.000 A 
ATOM      9  N   UNL     1      -0.892  10.963  19.029  0.00  0.00    +0.000 N 
ATOM     10  N   UNL     1      -0.704   9.978  18.125  0.00  0.00    +0.000 NA
ATOM     11  C   UNL     1      -1.773  10.051  17.339  0.00  0.00    +0.000 A 
ATOM     12  C   UNL     1      -2.669  11.077  17.710  0.00  0.00    +0.000 A 
ATOM     13  C   UNL     1      -2.093  11.664  18.827  0.00  0.00    +0.000 A 
ATOM     14  N   UNL     1      -2.471  12.697  19.657  0.00  0.00    +0.000 NA
ENDROOT
BRANCH   1  21
ATOM     15  C   UNL     1      -5.706  14.466  22.214  0.00  0.00    +0.000 A 
ATOM     16  N   UNL     1      -6.689  13.878  22.945  0.00  0.00    +0.000 NA
ATOM     17  C   UNL     1      -6.305  13.053  23.939  0.00  0.00    +0.000 A 
ATOM     18  C   UNL     1      -4.987  12.787  24.229  0.00  0.00    +0.000 A 
ATOM     19  F   UNL     1      -4.658  11.998  25.259  0.00  0.00    +0.000 F 
ATOM     20  C   UNL     1      -3.998  13.357  23.441  0.00  0.00    +0.000 A 
ATOM     21  C   UNL     1      -4.337  14.220  22.382  0.00  0.00    +0.000 A 
BRANCH  15  23
ATOM     22  C   UNL     1      -7.467  15.180  20.864  0.00  0.00    +0.000 C 
ATOM     23  O   UNL     1      -6.104  15.373  21.256  0.00  0.00    +0.000 OA
ENDBRANCH  15  23
ENDBRANCH   1  21
BRANCH  12  24
ATOM     24  C   UNL     1      -3.896  11.388  17.007  0.00  0.00    +0.000 C 
ATOM     25  O   UNL     1      -4.084  11.018  15.850  0.00  0.00    +0.000 OA
ATOM     26  N   UNL     1      -4.806  12.160  17.686  0.00  0.00    +0.000 N 
ATOM     27  H   UNL     1      -4.570  12.451  18.634  0.00  0.00    +0.000 HD
BRANCH  26  28
ATOM     28  C   UNL     1      -6.056  12.562  17.078  0.00  0.00    +0.000 C 
BRANCH  28  29
ATOM     29  C   UNL     1      -7.216  12.648  18.071  0.00  0.00    +0.000 C 
BRANCH  29  30
ATOM     30  C   UNL     1      -7.198  11.594  19.174  0.00  0.00    +0.000 C 
BRANCH  30  31
ATOM     31  O   UNL     1      -7.148  10.285  18.626  0.00  0.00    +0.000 OA
ATOM     32  H   UNL     1      -8.003  10.139  18.168  0.00  0.00    +0.000 HD
ENDBRANCH  30  31
ENDBRANCH  29  30
ENDBRANCH  28  29
ENDBRANCH  26  28
ENDBRANCH  12  24
TORSDOF 7
ENDMDL
MODEL 7
REMARK VINA RESULT:      -6.6      4.771      7.885
REMARK  Name = 
REMARK  8 active torsions:
REMARK  status: ('A' for Active; 'I' for Inactive)
REMARK    1  A    between atoms: C_1  and  O_2
REMARK    2  A    between atoms: O_2  and  C_3
REMARK    3  A    between atoms: C_9  and  C_10
REMARK    4  A    between atoms: C_21  and  C_22
REMARK    5  A    between atoms: N_24  and  C_25
REMARK    6  A    between atoms: C_25  and  C_26
REMARK    7  A    between atoms: C_26  and  C_27
REMARK    8  A    between atoms: C_27  and  O_28
REMARK                            x       y       z     vdW  Elec       q    Type
REMARK                         _______ _______ _______ _____ _____    ______ ____
ROOT
ATOM      1  C   UNL     1      -0.661  10.478  20.554  0.00  0.00    +0.000 C 
ATOM      2  C   UNL     1      -0.112   9.329  21.425  0.00  0.00    +0.000 C 
ATOM      3  C   UNL     1       0.320  10.040  22.693  0.00  0.00    +0.000 C 
ATOM      4  C   UNL     1      -0.813  11.029  22.909  0.00  0.00    +0.000 C 
ATOM      5  N   UNL     1      -1.341  11.315  21.570  0.00  0.00    +0.000 N 
ATOM      6  C   UNL     1      -2.510  12.036  21.345  0.00  0.00    +0.000 A 
ATOM      7  C   UNL     1      -3.034  12.913  22.468  0.00  0.00    +0.000 A 
ATOM      8  C   UNL     1      -4.143  13.620  22.245  0.00  0.00    +0.000 A 
ATOM      9  N   UNL     1      -4.781  13.536  21.025  0.00  0.00    +0.000 N 
ATOM     10  N   UNL     1      -5.906  14.188  20.662  0.00  0.00    +0.000 NA
ATOM     11  C   UNL     1      -6.134  13.772  19.419  0.00  0.00    +0.000 A 
ATOM     12  C   UNL     1      -5.173  12.848  18.955  0.00  0.00    +0.000 A 
ATOM     13  C   UNL     1      -4.280  12.706  20.008  0.00  0.00    +0.000 A 
ATOM     14  N   UNL     1      -3.129  11.969  20.183  0.00  0.00    +0.000 NA
ENDROOT
BRANCH   1  21
ATOM     15  C   UNL     1       1.233  10.657  18.831  0.00  0.00    +0.000 A 
ATOM     16  N   UNL     1       2.139  11.326  18.072  0.00  0.00    +0.000 NA
ATOM     17  C   UNL     1       2.300  12.641  18.321  0.00  0.00    +0.000 A 
ATOM     18  C   UNL     1       1.592  13.314  19.290  0.00  0.00    +0.000 A 
ATOM     19  F   UNL     1       1.824  14.610  19.531  0.00  0.00    +0.000 F 
ATOM     20  C   UNL     1       0.636  12.627  20.022  0.00  0.00    +0.000 A 
ATOM     21  C   UNL     1       0.416  11.254  19.800  0.00  0.00    +0.000 A 
BRANCH  15  23
ATOM     22  C   UNL     1       2.175   8.805  17.776  0.00  0.00    +0.000 C 
ATOM     23  O   UNL     1       1.137   9.298  18.628  0.00  0.00    +0.000 OA
ENDBRANCH  15  23
ENDBRANCH   1  21
BRANCH  12  24
ATOM     24  C   UNL     1      -5.201  12.222  17.651  0.00  0.00    +0.000 C 
ATOM     25  O   UNL     1      -6.261  11.981  17.077  0.00  0.00    +0.000 OA
ATOM     26  N   UNL     1      -3.985  11.867  17.121  0.00  0.00    +0.000 N 
ATOM     27  H   UNL     1      -3.149  12.075  17.666  0.00  0.00    +0.000 HD
BRANCH  26  28
ATOM     28  C   UNL     1      -3.886  11.207  15.837  0.00  0.00    +0.000 C 
BRANCH  28  29
ATOM     29  C   UNL     1      -2.715  10.228  15.745  0.00  0.00    +0.000 C 
BRANCH  29  30
ATOM     30  C   UNL     1      -1.963   9.999  17.054  0.00  0.00    +0.000 C 
BRANCH  30  31
ATOM     31  O   UNL     1      -2.831   9.495  18.058  0.00  0.00    +0.000 OA
ATOM     32  H   UNL     1      -3.031   8.565  17.816  0.00  0.00    +0.000 HD
ENDBRANCH  30  31
ENDBRANCH  29  30
ENDBRANCH  28  29
ENDBRANCH  26  28
ENDBRANCH  12  24
TORSDOF 7
ENDMDL
MODEL 8
REMARK VINA RESULT:      -6.4      6.431      9.444
REMARK  Name = 
REMARK  8 active torsions:
REMARK  status: ('A' for Active; 'I' for Inactive)
REMARK    1  A    between atoms: C_1  and  O_2
REMARK    2  A    between atoms: O_2  and  C_3
REMARK    3  A    between atoms: C_9  and  C_10
REMARK    4  A    between atoms: C_21  and  C_22
REMARK    5  A    between atoms: N_24  and  C_25
REMARK    6  A    between atoms: C_25  and  C_26
REMARK    7  A    between atoms: C_26  and  C_27
REMARK    8  A    between atoms: C_27  and  O_28
REMARK                            x       y       z     vdW  Elec       q    Type
REMARK                         _______ _______ _______ _____ _____    ______ ____
ROOT
ATOM      1  C   UNL     1      -1.066  12.717  20.440  0.00  0.00    +0.000 C 
ATOM      2  C   UNL     1       0.049  13.694  20.011  0.00  0.00    +0.000 C 
ATOM      3  C   UNL     1       0.600  13.048  18.753  0.00  0.00    +0.000 C 
ATOM      4  C   UNL     1      -0.664  12.576  18.054  0.00  0.00    +0.000 C 
ATOM      5  N   UNL     1      -1.632  12.326  19.128  0.00  0.00    +0.000 N 
ATOM      6  C   UNL     1      -2.978  12.055  18.898  0.00  0.00    +0.000 A 
ATOM      7  C   UNL     1      -3.384  11.586  17.513  0.00  0.00    +0.000 A 
ATOM      8  C   UNL     1      -4.671  11.306  17.299  0.00  0.00    +0.000 A 
ATOM      9  N   UNL     1      -5.588  11.454  18.318  0.00  0.00    +0.000 N 
ATOM     10  N   UNL     1      -6.914  11.212  18.245  0.00  0.00    +0.000 NA
ATOM     11  C   UNL     1      -7.366  11.514  19.459  0.00  0.00    +0.000 A 
ATOM     12  C   UNL     1      -6.351  11.956  20.337  0.00  0.00    +0.000 A 
ATOM     13  C   UNL     1      -5.185  11.903  19.587  0.00  0.00    +0.000 A 
ATOM     14  N   UNL     1      -3.866  12.189  19.864  0.00  0.00    +0.000 NA
ENDROOT
BRANCH   1  21
ATOM     15  C   UNL     1      -0.703  11.412  22.621  0.00  0.00    +0.000 A 
ATOM     16  N   UNL     1      -0.356  10.322  23.352  0.00  0.00    +0.000 NA
ATOM     17  C   UNL     1       0.218   9.296  22.693  0.00  0.00    +0.000 A 
ATOM     18  C   UNL     1       0.456   9.312  21.338  0.00  0.00    +0.000 A 
ATOM     19  F   UNL     1       1.074   8.287  20.739  0.00  0.00    +0.000 F 
ATOM     20  C   UNL     1       0.050  10.413  20.598  0.00  0.00    +0.000 A 
ATOM     21  C   UNL     1      -0.564  11.511  21.230  0.00  0.00    +0.000 A 
BRANCH  15  23
ATOM     22  C   UNL     1      -2.623  12.381  23.519  0.00  0.00    +0.000 C 
ATOM     23  O   UNL     1      -1.210  12.489  23.314  0.00  0.00    +0.000 OA
ENDBRANCH  15  23
ENDBRANCH   1  21
BRANCH  12  24
ATOM     24  C   UNL     1      -6.576  12.371  21.705  0.00  0.00    +0.000 C 
ATOM     25  O   UNL     1      -7.389  11.796  22.426  0.00  0.00    +0.000 OA
ATOM     26  N   UNL     1      -5.871  13.471  22.129  0.00  0.00    +0.000 N 
ATOM     27  H   UNL     1      -5.235  13.913  21.468  0.00  0.00    +0.000 HD
BRANCH  26  28
ATOM     28  C   UNL     1      -6.033  14.000  23.466  0.00  0.00    +0.000 C 
BRANCH  28  29
ATOM     29  C   UNL     1      -6.559  15.436  23.493  0.00  0.00    +0.000 C 
BRANCH  29  30
ATOM     30  C   UNL     1      -6.919  16.014  22.129  0.00  0.00    +0.000 C 
BRANCH  30  31
ATOM     31  O   UNL     1      -7.916  17.018  22.248  0.00  0.00    +0.000 OA
ATOM     32  H   UNL     1      -8.412  17.023  21.401  0.00  0.00    +0.000 HD
ENDBRANCH  30  31
ENDBRANCH  29  30
ENDBRANCH  28  29
ENDBRANCH  26  28
ENDBRANCH  12  24
TORSDOF 7
ENDMDL
MODEL 9
REMARK VINA RESULT:      -6.4      4.719      7.653
REMARK  Name = 
REMARK  8 active torsions:
REMARK  status: ('A' for Active; 'I' for Inactive)
REMARK    1  A    between atoms: C_1  and  O_2
REMARK    2  A    between atoms: O_2  and  C_3
REMARK    3  A    between atoms: C_9  and  C_10
REMARK    4  A    between atoms: C_21  and  C_22
REMARK    5  A    between atoms: N_24  and  C_25
REMARK    6  A    between atoms: C_25  and  C_26
REMARK    7  A    between atoms: C_26  and  C_27
REMARK    8  A    between atoms: C_27  and  O_28
REMARK                            x       y       z     vdW  Elec       q    Type
REMARK                         _______ _______ _______ _____ _____    ______ ____
ROOT
ATOM      1  C   UNL     1      -0.369  10.221  20.618  0.00  0.00    +0.000 C 
ATOM      2  C   UNL     1       0.198   8.888  21.153  0.00  0.00    +0.000 C 
ATOM      3  C   UNL     1       0.797   9.285  22.488  0.00  0.00    +0.000 C 
ATOM      4  C   UNL     1      -0.248  10.240  23.039  0.00  0.00    +0.000 C 
ATOM      5  N   UNL     1      -0.892  10.834  21.862  0.00  0.00    +0.000 N 
ATOM      6  C   UNL     1      -2.034  11.627  21.931  0.00  0.00    +0.000 A 
ATOM      7  C   UNL     1      -2.389  12.250  23.269  0.00  0.00    +0.000 A 
ATOM      8  C   UNL     1      -3.472  13.026  23.330  0.00  0.00    +0.000 A 
ATOM      9  N   UNL     1      -4.235  13.237  22.201  0.00  0.00    +0.000 N 
ATOM     10  N   UNL     1      -5.351  13.992  22.116  0.00  0.00    +0.000 NA
ATOM     11  C   UNL     1      -5.728  13.870  20.847  0.00  0.00    +0.000 A 
ATOM     12  C   UNL     1      -4.874  13.039  20.089  0.00  0.00    +0.000 A 
ATOM     13  C   UNL     1      -3.889  12.637  20.979  0.00  0.00    +0.000 A 
ATOM     14  N   UNL     1      -2.771  11.840  20.859  0.00  0.00    +0.000 NA
ENDROOT
BRANCH   1  21
ATOM     15  C   UNL     1       1.248  10.774  18.703  0.00  0.00    +0.000 A 
ATOM     16  N   UNL     1       2.104  11.573  18.015  0.00  0.00    +0.000 NA
ATOM     17  C   UNL     1       2.463  12.734  18.597  0.00  0.00    +0.000 A 
ATOM     18  C   UNL     1       2.002  13.132  19.830  0.00  0.00    +0.000 A 
ATOM     19  F   UNL     1       2.428  14.272  20.386  0.00  0.00    +0.000 F 
ATOM     20  C   UNL     1       1.090  12.327  20.497  0.00  0.00    +0.000 A 
ATOM     21  C   UNL     1       0.669  11.107  19.935  0.00  0.00    +0.000 A 
BRANCH  15  23
ATOM     22  C   UNL     1       2.131   8.811  17.810  0.00  0.00    +0.000 C 
ATOM     23  O   UNL     1       0.952   9.552  18.140  0.00  0.00    +0.000 OA
ENDBRANCH  15  23
ENDBRANCH   1  21
BRANCH  12  24
ATOM     24  C   UNL     1      -5.072  12.720  18.691  0.00  0.00    +0.000 C 
ATOM     25  O   UNL     1      -6.091  13.059  18.092  0.00  0.00    +0.000 OA
ATOM     26  N   UNL     1      -4.085  11.975  18.093  0.00  0.00    +0.000 N 
ATOM     27  H   UNL     1      -3.281  11.709  18.659  0.00  0.00    +0.000 HD
BRANCH  26  28
ATOM     28  C   UNL     1      -4.183  11.568  16.708  0.00  0.00    +0.000 C 
BRANCH  28  29
ATOM     29  C   UNL     1      -3.279  10.385  16.357  0.00  0.00    +0.000 C 
BRANCH  29  30
ATOM     30  C   UNL     1      -3.080  10.150  14.862  0.00  0.00    +0.000 C 
BRANCH  30  31
ATOM     31  O   UNL     1      -4.318   9.899  14.216  0.00  0.00    +0.000 OA
ATOM     32  H   UNL     1      -4.413   8.924  14.161  0.00  0.00    +0.000 HD
ENDBRANCH  30  31
ENDBRANCH  29  30
ENDBRANCH  28  29
ENDBRANCH  26  28
ENDBRANCH  12  24
TORSDOF 7
ENDMDL
