MODEL 1
REMARK VINA RESULT:      -6.4      0.000      0.000
REMARK  Name = 
REMARK  4 active torsions:
REMARK  status: ('A' for Active; 'I' for Inactive)
REMARK    1  A    between atoms: C_1  and  C_2
REMARK    2  A    between atoms: C_2  and  C_3
REMARK    3  A    between atoms: C_11  and  S_12
REMARK    4  A    between atoms: S_12  and  C_13
REMARK                            x       y       z     vdW  Elec       q    Type
REMARK                         _______ _______ _______ _____ _____    ______ ____
ROOT
ATOM      1  C   UNL     1       7.272   4.999  13.764  0.00  0.00    +0.000 C 
ATOM      2  O   UNL     1       6.416   4.265  13.283  0.00  0.00    +0.000 OA
ATOM      3  N   UNL     1       7.316   5.455  15.066  0.00  0.00    +0.000 N 
ATOM      4  C   UNL     1       6.411   5.100  16.038  0.00  0.00    +0.000 A 
ATOM      5  N   UNL     1       6.237   5.806  17.131  0.00  0.00    +0.000 NA
ATOM      6  C   UNL     1       5.199   5.257  17.873  0.00  0.00    +0.000 A 
ATOM      7  C   UNL     1       4.652   5.779  19.066  0.00  0.00    +0.000 A 
ATOM      8  C   UNL     1       3.590   5.116  19.698  0.00  0.00    +0.000 A 
ATOM      9  C   UNL     1       3.075   3.940  19.151  0.00  0.00    +0.000 A 
ATOM     10  C   UNL     1       3.604   3.389  17.980  0.00  0.00    +0.000 A 
ATOM     11  C   UNL     1       4.659   4.076  17.360  0.00  0.00    +0.000 A 
ATOM     12  S   UNL     1       5.496   3.667  15.924  0.00  0.00    +0.000 S 
ATOM     13  H   UNL     1       7.884   6.257  15.299  0.00  0.00    +0.000 HD
ENDROOT
BRANCH   9  14
ATOM     14  S   UNL     1       1.796   3.047  20.010  0.00  0.00    +0.000 S 
ATOM     15  C   UNL     1       2.479   2.740  21.617  0.00  0.00    +0.000 C 
ATOM     16  O   UNL     1       0.669   3.942  20.164  0.00  0.00    +0.000 OA
ATOM     17  O   UNL     1       1.645   1.768  19.339  0.00  0.00    +0.000 OA
ENDBRANCH   9  14
BRANCH   1  19
ATOM     18  C   UNL     1       7.881   6.128  11.619  0.00  0.00    +0.000 C 
ATOM     19  C   UNL     1       8.413   5.522  12.912  0.00  0.00    +0.000 C 
ENDBRANCH   1  19
TORSDOF 2
ENDMDL
MODEL 2
REMARK VINA RESULT:      -6.3      5.922      8.908
REMARK  Name = 
REMARK  4 active torsions:
REMARK  status: ('A' for Active; 'I' for Inactive)
REMARK    1  A    between atoms: C_1  and  C_2
REMARK    2  A    between atoms: C_2  and  C_3
REMARK    3  A    between atoms: C_11  and  S_12
REMARK    4  A    between atoms: S_12  and  C_13
REMARK                            x       y       z     vdW  Elec       q    Type
REMARK                         _______ _______ _______ _____ _____    ______ ____
ROOT
ATOM      1  C   UNL     1      -0.723  10.877  22.767  0.00  0.00    +0.000 C 
ATOM      2  O   UNL     1      -0.090  10.186  23.557  0.00  0.00    +0.000 OA
ATOM      3  N   UNL     1      -0.640  10.824  21.390  0.00  0.00    +0.000 N 
ATOM      4  C   UNL     1       0.148   9.934  20.700  0.00  0.00    +0.000 A 
ATOM      5  N   UNL     1       0.505  10.129  19.452  0.00  0.00    +0.000 NA
ATOM      6  C   UNL     1       1.368   9.115  19.056  0.00  0.00    +0.000 A 
ATOM      7  C   UNL     1       2.038   9.019  17.816  0.00  0.00    +0.000 A 
ATOM      8  C   UNL     1       2.894   7.937  17.565  0.00  0.00    +0.000 A 
ATOM      9  C   UNL     1       3.082   6.954  18.538  0.00  0.00    +0.000 A 
ATOM     10  C   UNL     1       2.422   7.011  19.769  0.00  0.00    +0.000 A 
ATOM     11  C   UNL     1       1.579   8.110  20.001  0.00  0.00    +0.000 A 
ATOM     12  S   UNL     1       0.657   8.465  21.398  0.00  0.00    +0.000 S 
ATOM     13  H   UNL     1      -0.977  11.598  20.836  0.00  0.00    +0.000 HD
ENDROOT
BRANCH   9  14
ATOM     14  S   UNL     1       4.089   5.530  18.178  0.00  0.00    +0.000 S 
ATOM     15  C   UNL     1       5.332   6.140  17.070  0.00  0.00    +0.000 C 
ATOM     16  O   UNL     1       4.740   5.135  19.409  0.00  0.00    +0.000 OA
ATOM     17  O   UNL     1       3.258   4.595  17.442  0.00  0.00    +0.000 OA
ENDBRANCH   9  14
BRANCH   1  19
ATOM     18  C   UNL     1      -2.006  12.933  22.159  0.00  0.00    +0.000 C 
ATOM     19  C   UNL     1      -1.693  11.932  23.265  0.00  0.00    +0.000 C 
ENDBRANCH   1  19
TORSDOF 2
ENDMDL
MODEL 3
REMARK VINA RESULT:      -6.3      5.106      7.986
REMARK  Name = 
REMARK  4 active torsions:
REMARK  status: ('A' for Active; 'I' for Inactive)
REMARK    1  A    between atoms: C_1  and  C_2
REMARK    2  A    between atoms: C_2  and  C_3
REMARK    3  A    between atoms: C_11  and  S_12
REMARK    4  A    between atoms: S_12  and  C_13
REMARK                            x       y       z     vdW  Elec       q    Type
REMARK                         _______ _______ _______ _____ _____    ______ ____
ROOT
ATOM      1  C   UNL     1       0.081  10.576  21.677  0.00  0.00    +0.000 C 
ATOM      2  O   UNL     1       0.539   9.973  22.640  0.00  0.00    +0.000 OA
ATOM      3  N   UNL     1       0.311  10.283  20.347  0.00  0.00    +0.000 N 
ATOM      4  C   UNL     1       1.066   9.220  19.913  0.00  0.00    +0.000 A 
ATOM      5  N   UNL     1       1.581   9.167  18.706  0.00  0.00    +0.000 NA
ATOM      6  C   UNL     1       2.363   8.025  18.589  0.00  0.00    +0.000 A 
ATOM      7  C   UNL     1       3.152   7.658  17.477  0.00  0.00    +0.000 A 
ATOM      8  C   UNL     1       3.903   6.475  17.512  0.00  0.00    +0.000 A 
ATOM      9  C   UNL     1       3.869   5.658  18.642  0.00  0.00    +0.000 A 
ATOM     10  C   UNL     1       3.085   5.983  19.754  0.00  0.00    +0.000 A 
ATOM     11  C   UNL     1       2.351   7.179  19.699  0.00  0.00    +0.000 A 
ATOM     12  S   UNL     1       1.324   7.849  20.892  0.00  0.00    +0.000 S 
ATOM     13  H   UNL     1       0.127  10.981  19.640  0.00  0.00    +0.000 HD
ENDROOT
BRANCH   9  14
ATOM     14  S   UNL     1       4.743   4.105  18.643  0.00  0.00    +0.000 S 
ATOM     15  C   UNL     1       3.739   3.038  19.641  0.00  0.00    +0.000 C 
ATOM     16  O   UNL     1       4.729   3.598  17.287  0.00  0.00    +0.000 OA
ATOM     17  O   UNL     1       5.995   4.321  19.344  0.00  0.00    +0.000 OA
ENDBRANCH   9  14
BRANCH   1  19
ATOM     18  C   UNL     1      -1.619  11.653  23.159  0.00  0.00    +0.000 C 
ATOM     19  C   UNL     1      -0.814  11.786  21.873  0.00  0.00    +0.000 C 
ENDBRANCH   1  19
TORSDOF 2
ENDMDL
MODEL 4
REMARK VINA RESULT:      -6.3      1.202      1.333
REMARK  Name = 
REMARK  4 active torsions:
REMARK  status: ('A' for Active; 'I' for Inactive)
REMARK    1  A    between atoms: C_1  and  C_2
REMARK    2  A    between atoms: C_2  and  C_3
REMARK    3  A    between atoms: C_11  and  S_12
REMARK    4  A    between atoms: S_12  and  C_13
REMARK                            x       y       z     vdW  Elec       q    Type
REMARK                         _______ _______ _______ _____ _____    ______ ____
ROOT
ATOM      1  C   UNL     1       6.728   4.451  13.289  0.00  0.00    +0.000 C 
ATOM      2  O   UNL     1       6.211   3.341  13.340  0.00  0.00    +0.000 OA
ATOM      3  N   UNL     1       6.538   5.480  14.190  0.00  0.00    +0.000 N 
ATOM      4  C   UNL     1       5.762   5.382  15.320  0.00  0.00    +0.000 A 
ATOM      5  N   UNL     1       5.292   6.436  15.946  0.00  0.00    +0.000 NA
ATOM      6  C   UNL     1       4.473   6.023  16.990  0.00  0.00    +0.000 A 
ATOM      7  C   UNL     1       3.714   6.856  17.841  0.00  0.00    +0.000 A 
ATOM      8  C   UNL     1       2.918   6.290  18.847  0.00  0.00    +0.000 A 
ATOM      9  C   UNL     1       2.878   4.905  19.010  0.00  0.00    +0.000 A 
ATOM     10  C   UNL     1       3.630   4.053  18.195  0.00  0.00    +0.000 A 
ATOM     11  C   UNL     1       4.410   4.643  17.188  0.00  0.00    +0.000 A 
ATOM     12  S   UNL     1       5.414   3.874  16.035  0.00  0.00    +0.000 S 
ATOM     13  H   UNL     1       6.775   6.427  13.928  0.00  0.00    +0.000 HD
ENDROOT
BRANCH   9  14
ATOM     14  S   UNL     1       1.947   4.195  20.353  0.00  0.00    +0.000 S 
ATOM     15  C   UNL     1       2.867   2.749  20.807  0.00  0.00    +0.000 C 
ATOM     16  O   UNL     1       2.000   5.127  21.459  0.00  0.00    +0.000 OA
ATOM     17  O   UNL     1       0.675   3.760  19.806  0.00  0.00    +0.000 OA
ENDBRANCH   9  14
BRANCH   1  19
ATOM     18  C   UNL     1       8.571   5.972  12.557  0.00  0.00    +0.000 C 
ATOM     19  C   UNL     1       7.659   4.822  12.150  0.00  0.00    +0.000 C 
ENDBRANCH   1  19
TORSDOF 2
ENDMDL
MODEL 5
REMARK VINA RESULT:      -6.2      1.121      1.373
REMARK  Name = 
REMARK  4 active torsions:
REMARK  status: ('A' for Active; 'I' for Inactive)
REMARK    1  A    between atoms: C_1  and  C_2
REMARK    2  A    between atoms: C_2  and  C_3
REMARK    3  A    between atoms: C_11  and  S_12
REMARK    4  A    between atoms: S_12  and  C_13
REMARK                            x       y       z     vdW  Elec       q    Type
REMARK                         _______ _______ _______ _____ _____    ______ ____
ROOT
ATOM      1  C   UNL     1       7.107   4.823  13.690  0.00  0.00    +0.000 C 
ATOM      2  O   UNL     1       6.571   3.744  13.465  0.00  0.00    +0.000 OA
ATOM      3  N   UNL     1       6.824   5.668  14.744  0.00  0.00    +0.000 N 
ATOM      4  C   UNL     1       5.915   5.386  15.736  0.00  0.00    +0.000 A 
ATOM      5  N   UNL     1       5.389   6.318  16.496  0.00  0.00    +0.000 NA
ATOM      6  C   UNL     1       4.443   5.745  17.338  0.00  0.00    +0.000 A 
ATOM      7  C   UNL     1       3.599   6.429  18.240  0.00  0.00    +0.000 A 
ATOM      8  C   UNL     1       2.679   5.712  19.018  0.00  0.00    +0.000 A 
ATOM      9  C   UNL     1       2.599   4.324  18.904  0.00  0.00    +0.000 A 
ATOM     10  C   UNL     1       3.432   3.615  18.032  0.00  0.00    +0.000 A 
ATOM     11  C   UNL     1       4.336   4.356  17.256  0.00  0.00    +0.000 A 
ATOM     12  S   UNL     1       5.462   3.784  16.101  0.00  0.00    +0.000 S 
ATOM     13  H   UNL     1       7.105   6.638  14.700  0.00  0.00    +0.000 HD
ENDROOT
BRANCH   9  14
ATOM     14  S   UNL     1       1.502   3.407  19.967  0.00  0.00    +0.000 S 
ATOM     15  C   UNL     1       0.686   2.270  18.878  0.00  0.00    +0.000 C 
ATOM     16  O   UNL     1       2.323   2.642  20.882  0.00  0.00    +0.000 OA
ATOM     17  O   UNL     1       0.508   4.341  20.462  0.00  0.00    +0.000 OA
ENDBRANCH   9  14
BRANCH   1  19
ATOM     18  C   UNL     1       7.559   5.792  11.431  0.00  0.00    +0.000 C 
ATOM     19  C   UNL     1       8.174   5.368  12.760  0.00  0.00    +0.000 C 
ENDBRANCH   1  19
TORSDOF 2
ENDMDL
MODEL 6
REMARK VINA RESULT:      -6.2      3.394      4.247
REMARK  Name = 
REMARK  4 active torsions:
REMARK  status: ('A' for Active; 'I' for Inactive)
REMARK    1  A    between atoms: C_1  and  C_2
REMARK    2  A    between atoms: C_2  and  C_3
REMARK    3  A    between atoms: C_11  and  S_12
REMARK    4  A    between atoms: S_12  and  C_13
REMARK                            x       y       z     vdW  Elec       q    Type
REMARK                         _______ _______ _______ _____ _____    ______ ____
ROOT
ATOM      1  C   UNL     1       6.134   5.413  15.892  0.00  0.00    +0.000 C 
ATOM      2  O   UNL     1       6.372   6.612  15.977  0.00  0.00    +0.000 OA
ATOM      3  N   UNL     1       5.152   4.727  16.578  0.00  0.00    +0.000 N 
ATOM      4  C   UNL     1       4.253   5.319  17.434  0.00  0.00    +0.000 A 
ATOM      5  N   UNL     1       3.593   4.640  18.343  0.00  0.00    +0.000 NA
ATOM      6  C   UNL     1       2.836   5.515  19.112  0.00  0.00    +0.000 A 
ATOM      7  C   UNL     1       2.059   5.182  20.243  0.00  0.00    +0.000 A 
ATOM      8  C   UNL     1       1.356   6.183  20.928  0.00  0.00    +0.000 A 
ATOM      9  C   UNL     1       1.422   7.507  20.493  0.00  0.00    +0.000 A 
ATOM     10  C   UNL     1       2.169   7.868  19.367  0.00  0.00    +0.000 A 
ATOM     11  C   UNL     1       2.872   6.850  18.704  0.00  0.00    +0.000 A 
ATOM     12  S   UNL     1       3.875   6.977  17.323  0.00  0.00    +0.000 S 
ATOM     13  H   UNL     1       5.204   3.722  16.660  0.00  0.00    +0.000 HD
ENDROOT
BRANCH   9  14
ATOM     14  S   UNL     1       0.448   8.759  21.304  0.00  0.00    +0.000 S 
ATOM     15  C   UNL     1       1.442   9.263  22.682  0.00  0.00    +0.000 C 
ATOM     16  O   UNL     1       0.337   9.880  20.395  0.00  0.00    +0.000 OA
ATOM     17  O   UNL     1      -0.738   8.104  21.826  0.00  0.00    +0.000 OA
ENDBRANCH   9  14
BRANCH   1  19
ATOM     18  C   UNL     1       6.094   3.895  13.907  0.00  0.00    +0.000 C 
ATOM     19  C   UNL     1       6.965   4.519  14.991  0.00  0.00    +0.000 C 
ENDBRANCH   1  19
TORSDOF 2
ENDMDL
MODEL 7
REMARK VINA RESULT:      -6.2      4.732      7.485
REMARK  Name = 
REMARK  4 active torsions:
REMARK  status: ('A' for Active; 'I' for Inactive)
REMARK    1  A    between atoms: C_1  and  C_2
REMARK    2  A    between atoms: C_2  and  C_3
REMARK    3  A    between atoms: C_11  and  S_12
REMARK    4  A    between atoms: S_12  and  C_13
REMARK                            x       y       z     vdW  Elec       q    Type
REMARK                         _______ _______ _______ _____ _____    ______ ____
ROOT
ATOM      1  C   UNL     1       0.670  10.800  21.144  0.00  0.00    +0.000 C 
ATOM      2  O   UNL     1       0.890  10.291  22.236  0.00  0.00    +0.000 OA
ATOM      3  N   UNL     1       0.915  10.224  19.913  0.00  0.00    +0.000 N 
ATOM      4  C   UNL     1       1.404   8.951  19.742  0.00  0.00    +0.000 A 
ATOM      5  N   UNL     1       1.975   8.559  18.626  0.00  0.00    +0.000 NA
ATOM      6  C   UNL     1       2.448   7.262  18.782  0.00  0.00    +0.000 A 
ATOM      7  C   UNL     1       3.197   6.522  17.841  0.00  0.00    +0.000 A 
ATOM      8  C   UNL     1       3.619   5.221  18.149  0.00  0.00    +0.000 A 
ATOM      9  C   UNL     1       3.297   4.655  19.383  0.00  0.00    +0.000 A 
ATOM     10  C   UNL     1       2.543   5.354  20.331  0.00  0.00    +0.000 A 
ATOM     11  C   UNL     1       2.142   6.659  20.004  0.00  0.00    +0.000 A 
ATOM     12  S   UNL     1       1.235   7.760  20.949  0.00  0.00    +0.000 S 
ATOM     13  H   UNL     1       0.965  10.804  19.088  0.00  0.00    +0.000 HD
ENDROOT
BRANCH   9  14
ATOM     14  S   UNL     1       3.746   2.967  19.730  0.00  0.00    +0.000 S 
ATOM     15  C   UNL     1       3.139   2.056  18.335  0.00  0.00    +0.000 C 
ATOM     16  O   UNL     1       5.192   2.891  19.720  0.00  0.00    +0.000 OA
ATOM     17  O   UNL     1       2.987   2.555  20.896  0.00  0.00    +0.000 OA
ENDBRANCH   9  14
BRANCH   1  19
ATOM     18  C   UNL     1      -0.695  12.549  22.294  0.00  0.00    +0.000 C 
ATOM     19  C   UNL     1       0.100  12.202  21.041  0.00  0.00    +0.000 C 
ENDBRANCH   1  19
TORSDOF 2
ENDMDL
MODEL 8
REMARK VINA RESULT:      -6.1      5.196      7.925
REMARK  Name = 
REMARK  4 active torsions:
REMARK  status: ('A' for Active; 'I' for Inactive)
REMARK    1  A    between atoms: C_1  and  C_2
REMARK    2  A    between atoms: C_2  and  C_3
REMARK    3  A    between atoms: C_11  and  S_12
REMARK    4  A    between atoms: S_12  and  C_13
REMARK                            x       y       z     vdW  Elec       q    Type
REMARK                         _______ _______ _______ _____ _____    ______ ____
ROOT
ATOM      1  C   UNL     1       0.041  10.991  21.595  0.00  0.00    +0.000 C 
ATOM      2  O   UNL     1       0.436  10.409  22.599  0.00  0.00    +0.000 OA
ATOM      3  N   UNL     1       0.284  10.617  20.289  0.00  0.00    +0.000 N 
ATOM      4  C   UNL     1       0.978   9.487  19.927  0.00  0.00    +0.000 A 
ATOM      5  N   UNL     1       1.517   9.340  18.739  0.00  0.00    +0.000 NA
ATOM      6  C   UNL     1       2.226   8.146  18.700  0.00  0.00    +0.000 A 
ATOM      7  C   UNL     1       3.016   7.673  17.629  0.00  0.00    +0.000 A 
ATOM      8  C   UNL     1       3.687   6.448  17.742  0.00  0.00    +0.000 A 
ATOM      9  C   UNL     1       3.573   5.693  18.910  0.00  0.00    +0.000 A 
ATOM     10  C   UNL     1       2.785   6.124  19.982  0.00  0.00    +0.000 A 
ATOM     11  C   UNL     1       2.132   7.359  19.849  0.00  0.00    +0.000 A 
ATOM     12  S   UNL     1       1.123   8.154  20.980  0.00  0.00    +0.000 S 
ATOM     13  H   UNL     1       0.163  11.288  19.543  0.00  0.00    +0.000 HD
ENDROOT
BRANCH   9  14
ATOM     14  S   UNL     1       4.343   4.090  19.011  0.00  0.00    +0.000 S 
ATOM     15  C   UNL     1       4.096   3.383  17.404  0.00  0.00    +0.000 C 
ATOM     16  O   UNL     1       5.763   4.301  19.195  0.00  0.00    +0.000 OA
ATOM     17  O   UNL     1       3.577   3.308  19.964  0.00  0.00    +0.000 OA
ENDBRANCH   9  14
BRANCH   1  19
ATOM     18  C   UNL     1      -1.700  12.413  20.505  0.00  0.00    +0.000 C 
ATOM     19  C   UNL     1      -0.777  12.264  21.707  0.00  0.00    +0.000 C 
ENDBRANCH   1  19
TORSDOF 2
ENDMDL
MODEL 9
REMARK VINA RESULT:      -6.1      4.007      4.873
REMARK  Name = 
REMARK  4 active torsions:
REMARK  status: ('A' for Active; 'I' for Inactive)
REMARK    1  A    between atoms: C_1  and  C_2
REMARK    2  A    between atoms: C_2  and  C_3
REMARK    3  A    between atoms: C_11  and  S_12
REMARK    4  A    between atoms: S_12  and  C_13
REMARK                            x       y       z     vdW  Elec       q    Type
REMARK                         _______ _______ _______ _____ _____    ______ ____
ROOT
ATOM      1  C   UNL     1       5.808   5.468  16.217  0.00  0.00    +0.000 C 
ATOM      2  O   UNL     1       6.092   6.657  16.129  0.00  0.00    +0.000 OA
ATOM      3  N   UNL     1       4.808   4.925  16.999  0.00  0.00    +0.000 N 
ATOM      4  C   UNL     1       3.942   5.666  17.766  0.00  0.00    +0.000 A 
ATOM      5  N   UNL     1       3.267   5.149  18.765  0.00  0.00    +0.000 NA
ATOM      6  C   UNL     1       2.551   6.153  19.406  0.00  0.00    +0.000 A 
ATOM      7  C   UNL     1       1.773   6.014  20.576  0.00  0.00    +0.000 A 
ATOM      8  C   UNL     1       1.116   7.129  21.117  0.00  0.00    +0.000 A 
ATOM      9  C   UNL     1       1.227   8.374  20.497  0.00  0.00    +0.000 A 
ATOM     10  C   UNL     1       1.975   8.542  19.327  0.00  0.00    +0.000 A 
ATOM     11  C   UNL     1       2.633   7.414  18.812  0.00  0.00    +0.000 A 
ATOM     12  S   UNL     1       3.625   7.305  17.422  0.00  0.00    +0.000 S 
ATOM     13  H   UNL     1       4.824   3.940  17.222  0.00  0.00    +0.000 HD
ENDROOT
BRANCH   9  14
ATOM     14  S   UNL     1       0.309   9.765  21.126  0.00  0.00    +0.000 S 
ATOM     15  C   UNL     1      -0.509   9.134  22.568  0.00  0.00    +0.000 C 
ATOM     16  O   UNL     1       1.268  10.761  21.554  0.00  0.00    +0.000 OA
ATOM     17  O   UNL     1      -0.709  10.085  20.142  0.00  0.00    +0.000 OA
ENDBRANCH   9  14
BRANCH   1  19
ATOM     18  C   UNL     1       5.945   4.151  14.097  0.00  0.00    +0.000 C 
ATOM     19  C   UNL     1       6.596   4.424  15.448  0.00  0.00    +0.000 C 
ENDBRANCH   1  19
TORSDOF 2
ENDMDL
