MODEL 1
REMARK VINA RESULT:      -7.4      0.000      0.000
REMARK  Name = 
REMARK  4 active torsions:
REMARK  status: ('A' for Active; 'I' for Inactive)
REMARK    1  A    between atoms: C_1  and  C_2
REMARK    2  A    between atoms: C_2  and  C_4
REMARK    3  A    between atoms: C_11  and  C_12
REMARK    4  A    between atoms: C_12  and  C_13
REMARK                            x       y       z     vdW  Elec       q    Type
REMARK                         _______ _______ _______ _____ _____    ______ ____
ROOT
ATOM      1  C   UNL     1       5.727   5.187  15.852  0.00  0.00    +0.000 A 
ATOM      2  C   UNL     1       5.170   6.466  16.061  0.00  0.00    +0.000 A 
ATOM      3  C   UNL     1       4.421   6.738  17.208  0.00  0.00    +0.000 A 
ATOM      4  C   UNL     1       4.239   5.718  18.117  0.00  0.00    +0.000 A 
ATOM      5  C   UNL     1       4.776   4.456  17.925  0.00  0.00    +0.000 A 
ATOM      6  C   UNL     1       5.525   4.168  16.798  0.00  0.00    +0.000 A 
ATOM      7  C   UNL     1       4.443   3.599  19.088  0.00  0.00    +0.000 C 
ATOM      8  C   UNL     1       3.371   4.479  19.761  0.00  0.00    +0.000 C 
ATOM      9  O   UNL     1       3.504   5.839  19.264  0.00  0.00    +0.000 OA
ENDROOT
BRANCH   8  10
ATOM     10  C   UNL     1       1.955   3.981  19.517  0.00  0.00    +0.000 C 
ATOM     11  C   UNL     1       1.480   3.845  18.101  0.00  0.00    +0.000 C 
ATOM     12  C   UNL     1       1.238   3.207  20.607  0.00  0.00    +0.000 C 
ATOM     13  O   UNL     1       0.979   4.597  20.380  0.00  0.00    +0.000 OA
ENDBRANCH   8  10
BRANCH   1  15
ATOM     14  C   UNL     1       6.027   3.884  13.647  0.00  0.00    +0.000 C 
ATOM     15  C   UNL     1       6.551   4.881  14.644  0.00  0.00    +0.000 C 
ATOM     16  O   UNL     1       7.635   5.438  14.484  0.00  0.00    +0.000 OA
ENDBRANCH   1  15
TORSDOF 2
ENDMDL
MODEL 2
REMARK VINA RESULT:      -7.3      1.229      1.273
REMARK  Name = 
REMARK  4 active torsions:
REMARK  status: ('A' for Active; 'I' for Inactive)
REMARK    1  A    between atoms: C_1  and  C_2
REMARK    2  A    between atoms: C_2  and  C_4
REMARK    3  A    between atoms: C_11  and  C_12
REMARK    4  A    between atoms: C_12  and  C_13
REMARK                            x       y       z     vdW  Elec       q    Type
REMARK                         _______ _______ _______ _____ _____    ______ ____
ROOT
ATOM      1  C   UNL     1       6.407   4.903  15.662  0.00  0.00    +0.000 A 
ATOM      2  C   UNL     1       6.828   5.896  16.570  0.00  0.00    +0.000 A 
ATOM      3  C   UNL     1       6.316   5.935  17.870  0.00  0.00    +0.000 A 
ATOM      4  C   UNL     1       5.388   4.982  18.227  0.00  0.00    +0.000 A 
ATOM      5  C   UNL     1       4.961   4.003  17.347  0.00  0.00    +0.000 A 
ATOM      6  C   UNL     1       5.459   3.943  16.056  0.00  0.00    +0.000 A 
ATOM      7  C   UNL     1       3.999   3.109  18.034  0.00  0.00    +0.000 C 
ATOM      8  C   UNL     1       3.717   3.951  19.294  0.00  0.00    +0.000 C 
ATOM      9  O   UNL     1       4.786   4.924  19.455  0.00  0.00    +0.000 OA
ENDROOT
BRANCH   8  10
ATOM     10  C   UNL     1       2.377   4.668  19.242  0.00  0.00    +0.000 C 
ATOM     11  C   UNL     1       1.616   4.668  17.950  0.00  0.00    +0.000 C 
ATOM     12  C   UNL     1       1.627   4.942  20.533  0.00  0.00    +0.000 C 
ATOM     13  O   UNL     1       2.397   5.959  19.882  0.00  0.00    +0.000 OA
ENDBRANCH   8  10
BRANCH   1  15
ATOM     14  C   UNL     1       6.331   3.867  13.302  0.00  0.00    +0.000 C 
ATOM     15  C   UNL     1       6.958   4.827  14.275  0.00  0.00    +0.000 C 
ATOM     16  O   UNL     1       7.906   5.539  13.952  0.00  0.00    +0.000 OA
ENDBRANCH   1  15
TORSDOF 2
ENDMDL
MODEL 3
REMARK VINA RESULT:      -7.2      1.607      1.966
REMARK  Name = 
REMARK  4 active torsions:
REMARK  status: ('A' for Active; 'I' for Inactive)
REMARK    1  A    between atoms: C_1  and  C_2
REMARK    2  A    between atoms: C_2  and  C_4
REMARK    3  A    between atoms: C_11  and  C_12
REMARK    4  A    between atoms: C_12  and  C_13
REMARK                            x       y       z     vdW  Elec       q    Type
REMARK                         _______ _______ _______ _____ _____    ______ ____
ROOT
ATOM      1  C   UNL     1       5.254   4.976  16.682  0.00  0.00    +0.000 A 
ATOM      2  C   UNL     1       5.797   5.438  17.898  0.00  0.00    +0.000 A 
ATOM      3  C   UNL     1       5.491   4.798  19.102  0.00  0.00    +0.000 A 
ATOM      4  C   UNL     1       4.640   3.715  19.060  0.00  0.00    +0.000 A 
ATOM      5  C   UNL     1       4.095   3.252  17.875  0.00  0.00    +0.000 A 
ATOM      6  C   UNL     1       4.390   3.868  16.671  0.00  0.00    +0.000 A 
ATOM      7  C   UNL     1       3.261   2.059  18.151  0.00  0.00    +0.000 C 
ATOM      8  C   UNL     1       3.166   2.158  19.686  0.00  0.00    +0.000 C 
ATOM      9  O   UNL     1       4.235   3.019  20.166  0.00  0.00    +0.000 OA
ENDROOT
BRANCH   8  10
ATOM     10  C   UNL     1       1.825   2.692  20.166  0.00  0.00    +0.000 C 
ATOM     11  C   UNL     1       0.723   2.859  19.162  0.00  0.00    +0.000 C 
ATOM     12  C   UNL     1       1.466   2.596  21.637  0.00  0.00    +0.000 C 
ATOM     13  O   UNL     1       1.946   3.815  21.060  0.00  0.00    +0.000 OA
ENDBRANCH   8  10
BRANCH   1  15
ATOM     14  C   UNL     1       6.343   4.838  14.348  0.00  0.00    +0.000 C 
ATOM     15  C   UNL     1       5.586   5.629  15.379  0.00  0.00    +0.000 C 
ATOM     16  O   UNL     1       5.244   6.791  15.171  0.00  0.00    +0.000 OA
ENDBRANCH   1  15
TORSDOF 2
ENDMDL
MODEL 4
REMARK VINA RESULT:      -7.1      2.027      2.883
REMARK  Name = 
REMARK  4 active torsions:
REMARK  status: ('A' for Active; 'I' for Inactive)
REMARK    1  A    between atoms: C_1  and  C_2
REMARK    2  A    between atoms: C_2  and  C_4
REMARK    3  A    between atoms: C_11  and  C_12
REMARK    4  A    between atoms: C_12  and  C_13
REMARK                            x       y       z     vdW  Elec       q    Type
REMARK                         _______ _______ _______ _____ _____    ______ ____
ROOT
ATOM      1  C   UNL     1       6.012   5.583  17.347  0.00  0.00    +0.000 A 
ATOM      2  C   UNL     1       6.033   4.347  16.669  0.00  0.00    +0.000 A 
ATOM      3  C   UNL     1       4.856   3.615  16.488  0.00  0.00    +0.000 A 
ATOM      4  C   UNL     1       3.687   4.136  16.998  0.00  0.00    +0.000 A 
ATOM      5  C   UNL     1       3.650   5.346  17.669  0.00  0.00    +0.000 A 
ATOM      6  C   UNL     1       4.804   6.089  17.855  0.00  0.00    +0.000 A 
ATOM      7  C   UNL     1       2.253   5.651  18.056  0.00  0.00    +0.000 C 
ATOM      8  C   UNL     1       1.606   4.276  17.798  0.00  0.00    +0.000 C 
ATOM      9  O   UNL     1       2.473   3.510  16.917  0.00  0.00    +0.000 OA
ENDROOT
BRANCH   8  10
ATOM     10  C   UNL     1       1.349   3.490  19.074  0.00  0.00    +0.000 C 
ATOM     11  C   UNL     1       1.379   4.223  20.382  0.00  0.00    +0.000 C 
ATOM     12  C   UNL     1       0.624   2.159  18.997  0.00  0.00    +0.000 C 
ATOM     13  O   UNL     1       2.049   2.232  19.118  0.00  0.00    +0.000 OA
ENDBRANCH   8  10
BRANCH   1  15
ATOM     14  C   UNL     1       7.959   6.341  18.859  0.00  0.00    +0.000 C 
ATOM     15  C   UNL     1       7.253   6.395  17.531  0.00  0.00    +0.000 C 
ATOM     16  O   UNL     1       7.676   7.089  16.609  0.00  0.00    +0.000 OA
ENDBRANCH   1  15
TORSDOF 2
ENDMDL
MODEL 5
REMARK VINA RESULT:      -7.0      1.706      5.564
REMARK  Name = 
REMARK  4 active torsions:
REMARK  status: ('A' for Active; 'I' for Inactive)
REMARK    1  A    between atoms: C_1  and  C_2
REMARK    2  A    between atoms: C_2  and  C_4
REMARK    3  A    between atoms: C_11  and  C_12
REMARK    4  A    between atoms: C_12  and  C_13
REMARK                            x       y       z     vdW  Elec       q    Type
REMARK                         _______ _______ _______ _____ _____    ______ ____
ROOT
ATOM      1  C   UNL     1       2.064   4.046  18.795  0.00  0.00    +0.000 A 
ATOM      2  C   UNL     1       1.961   5.417  19.111  0.00  0.00    +0.000 A 
ATOM      3  C   UNL     1       2.782   6.356  18.481  0.00  0.00    +0.000 A 
ATOM      4  C   UNL     1       3.695   5.899  17.556  0.00  0.00    +0.000 A 
ATOM      5  C   UNL     1       3.812   4.556  17.238  0.00  0.00    +0.000 A 
ATOM      6  C   UNL     1       3.005   3.610  17.847  0.00  0.00    +0.000 A 
ATOM      7  C   UNL     1       4.844   4.388  16.189  0.00  0.00    +0.000 C 
ATOM      8  C   UNL     1       5.495   5.784  16.239  0.00  0.00    +0.000 C 
ATOM      9  O   UNL     1       4.578   6.705  16.891  0.00  0.00    +0.000 OA
ENDROOT
BRANCH   8  10
ATOM     10  C   UNL     1       6.831   5.792  16.966  0.00  0.00    +0.000 C 
ATOM     11  C   UNL     1       7.422   7.113  17.358  0.00  0.00    +0.000 C 
ATOM     12  C   UNL     1       7.298   4.540  17.684  0.00  0.00    +0.000 C 
ATOM     13  O   UNL     1       7.798   4.893  16.390  0.00  0.00    +0.000 OA
ENDBRANCH   8  10
BRANCH   1  15
ATOM     14  C   UNL     1       1.255   2.846  20.930  0.00  0.00    +0.000 C 
ATOM     15  C   UNL     1       1.181   3.027  19.438  0.00  0.00    +0.000 C 
ATOM     16  O   UNL     1       0.416   2.356  18.749  0.00  0.00    +0.000 OA
ENDBRANCH   1  15
TORSDOF 2
ENDMDL
MODEL 6
REMARK VINA RESULT:      -6.9      1.955      2.363
REMARK  Name = 
REMARK  4 active torsions:
REMARK  status: ('A' for Active; 'I' for Inactive)
REMARK    1  A    between atoms: C_1  and  C_2
REMARK    2  A    between atoms: C_2  and  C_4
REMARK    3  A    between atoms: C_11  and  C_12
REMARK    4  A    between atoms: C_12  and  C_13
REMARK                            x       y       z     vdW  Elec       q    Type
REMARK                         _______ _______ _______ _____ _____    ______ ____
ROOT
ATOM      1  C   UNL     1       5.832   6.442  17.584  0.00  0.00    +0.000 A 
ATOM      2  C   UNL     1       4.658   7.192  17.368  0.00  0.00    +0.000 A 
ATOM      3  C   UNL     1       3.437   6.775  17.905  0.00  0.00    +0.000 A 
ATOM      4  C   UNL     1       3.420   5.609  18.640  0.00  0.00    +0.000 A 
ATOM      5  C   UNL     1       4.563   4.859  18.859  0.00  0.00    +0.000 A 
ATOM      6  C   UNL     1       5.783   5.258  18.340  0.00  0.00    +0.000 A 
ATOM      7  C   UNL     1       4.231   3.695  19.713  0.00  0.00    +0.000 C 
ATOM      8  C   UNL     1       2.693   3.746  19.635  0.00  0.00    +0.000 C 
ATOM      9  O   UNL     1       2.290   5.073  19.195  0.00  0.00    +0.000 OA
ENDROOT
BRANCH   8  10
ATOM     10  C   UNL     1       2.109   2.698  18.700  0.00  0.00    +0.000 C 
ATOM     11  C   UNL     1       3.054   1.820  17.935  0.00  0.00    +0.000 C 
ATOM     12  C   UNL     1       0.677   2.238  18.895  0.00  0.00    +0.000 C 
ATOM     13  O   UNL     1       1.026   3.197  17.891  0.00  0.00    +0.000 OA
ENDBRANCH   8  10
BRANCH   1  15
ATOM     14  C   UNL     1       7.818   8.087  17.647  0.00  0.00    +0.000 C 
ATOM     15  C   UNL     1       7.152   6.882  17.040  0.00  0.00    +0.000 C 
ATOM     16  O   UNL     1       7.669   6.264  16.112  0.00  0.00    +0.000 OA
ENDBRANCH   1  15
TORSDOF 2
ENDMDL
MODEL 7
REMARK VINA RESULT:      -6.8      0.729      1.163
REMARK  Name = 
REMARK  4 active torsions:
REMARK  status: ('A' for Active; 'I' for Inactive)
REMARK    1  A    between atoms: C_1  and  C_2
REMARK    2  A    between atoms: C_2  and  C_4
REMARK    3  A    between atoms: C_11  and  C_12
REMARK    4  A    between atoms: C_12  and  C_13
REMARK                            x       y       z     vdW  Elec       q    Type
REMARK                         _______ _______ _______ _____ _____    ______ ____
ROOT
ATOM      1  C   UNL     1       5.812   5.178  15.735  0.00  0.00    +0.000 A 
ATOM      2  C   UNL     1       5.242   6.453  15.930  0.00  0.00    +0.000 A 
ATOM      3  C   UNL     1       4.478   6.725  17.068  0.00  0.00    +0.000 A 
ATOM      4  C   UNL     1       4.297   5.709  17.981  0.00  0.00    +0.000 A 
ATOM      5  C   UNL     1       4.847   4.451  17.803  0.00  0.00    +0.000 A 
ATOM      6  C   UNL     1       5.611   4.163  16.685  0.00  0.00    +0.000 A 
ATOM      7  C   UNL     1       4.510   3.598  18.967  0.00  0.00    +0.000 C 
ATOM      8  C   UNL     1       3.423   4.472  19.624  0.00  0.00    +0.000 C 
ATOM      9  O   UNL     1       3.549   5.831  19.120  0.00  0.00    +0.000 OA
ENDROOT
BRANCH   8  10
ATOM     10  C   UNL     1       2.014   3.960  19.369  0.00  0.00    +0.000 C 
ATOM     11  C   UNL     1       1.057   3.903  20.521  0.00  0.00    +0.000 C 
ATOM     12  C   UNL     1       1.460   3.971  17.957  0.00  0.00    +0.000 C 
ATOM     13  O   UNL     1       1.979   2.775  18.550  0.00  0.00    +0.000 OA
ENDBRANCH   8  10
BRANCH   1  15
ATOM     14  C   UNL     1       6.153   3.855  13.547  0.00  0.00    +0.000 C 
ATOM     15  C   UNL     1       6.652   4.872  14.538  0.00  0.00    +0.000 C 
ATOM     16  O   UNL     1       7.728   5.445  14.380  0.00  0.00    +0.000 OA
ENDBRANCH   1  15
TORSDOF 2
ENDMDL
MODEL 8
REMARK VINA RESULT:      -6.8      1.920      5.512
REMARK  Name = 
REMARK  4 active torsions:
REMARK  status: ('A' for Active; 'I' for Inactive)
REMARK    1  A    between atoms: C_1  and  C_2
REMARK    2  A    between atoms: C_2  and  C_4
REMARK    3  A    between atoms: C_11  and  C_12
REMARK    4  A    between atoms: C_12  and  C_13
REMARK                            x       y       z     vdW  Elec       q    Type
REMARK                         _______ _______ _______ _____ _____    ______ ____
ROOT
ATOM      1  C   UNL     1       2.040   3.949  18.798  0.00  0.00    +0.000 A 
ATOM      2  C   UNL     1       1.881   5.323  19.075  0.00  0.00    +0.000 A 
ATOM      3  C   UNL     1       2.695   6.273  18.454  0.00  0.00    +0.000 A 
ATOM      4  C   UNL     1       3.657   5.824  17.575  0.00  0.00    +0.000 A 
ATOM      5  C   UNL     1       3.828   4.479  17.295  0.00  0.00    +0.000 A 
ATOM      6  C   UNL     1       3.028   3.522  17.895  0.00  0.00    +0.000 A 
ATOM      7  C   UNL     1       4.904   4.320  16.288  0.00  0.00    +0.000 C 
ATOM      8  C   UNL     1       5.508   5.737  16.328  0.00  0.00    +0.000 C 
ATOM      9  O   UNL     1       4.538   6.643  16.923  0.00  0.00    +0.000 OA
ENDROOT
BRANCH   8  10
ATOM     10  C   UNL     1       6.815   5.805  17.104  0.00  0.00    +0.000 C 
ATOM     11  C   UNL     1       7.578   4.535  17.329  0.00  0.00    +0.000 C 
ATOM     12  C   UNL     1       7.548   7.129  17.217  0.00  0.00    +0.000 C 
ATOM     13  O   UNL     1       6.734   6.629  18.283  0.00  0.00    +0.000 OA
ENDBRANCH   8  10
BRANCH   1  15
ATOM     14  C   UNL     1       1.265   2.700  20.918  0.00  0.00    +0.000 C 
ATOM     15  C   UNL     1       1.165   2.917  19.432  0.00  0.00    +0.000 C 
ATOM     16  O   UNL     1       0.386   2.264  18.741  0.00  0.00    +0.000 OA
ENDBRANCH   1  15
TORSDOF 2
ENDMDL
MODEL 9
REMARK VINA RESULT:      -6.7      2.241      2.993
REMARK  Name = 
REMARK  4 active torsions:
REMARK  status: ('A' for Active; 'I' for Inactive)
REMARK    1  A    between atoms: C_1  and  C_2
REMARK    2  A    between atoms: C_2  and  C_4
REMARK    3  A    between atoms: C_11  and  C_12
REMARK    4  A    between atoms: C_12  and  C_13
REMARK                            x       y       z     vdW  Elec       q    Type
REMARK                         _______ _______ _______ _____ _____    ______ ____
ROOT
ATOM      1  C   UNL     1       6.219   5.620  17.778  0.00  0.00    +0.000 A 
ATOM      2  C   UNL     1       6.333   4.617  16.794  0.00  0.00    +0.000 A 
ATOM      3  C   UNL     1       5.213   3.885  16.390  0.00  0.00    +0.000 A 
ATOM      4  C   UNL     1       4.005   4.171  16.989  0.00  0.00    +0.000 A 
ATOM      5  C   UNL     1       3.877   5.150  17.959  0.00  0.00    +0.000 A 
ATOM      6  C   UNL     1       4.973   5.890  18.370  0.00  0.00    +0.000 A 
ATOM      7  C   UNL     1       2.458   5.248  18.376  0.00  0.00    +0.000 C 
ATOM      8  C   UNL     1       1.912   3.954  17.740  0.00  0.00    +0.000 C 
ATOM      9  O   UNL     1       2.839   3.512  16.710  0.00  0.00    +0.000 OA
ENDROOT
BRANCH   8  10
ATOM     10  C   UNL     1       1.699   2.838  18.751  0.00  0.00    +0.000 C 
ATOM     11  C   UNL     1       2.737   1.761  18.853  0.00  0.00    +0.000 C 
ATOM     12  C   UNL     1       0.755   3.058  19.918  0.00  0.00    +0.000 C 
ATOM     13  O   UNL     1       0.353   2.324  18.756  0.00  0.00    +0.000 OA
ENDBRANCH   8  10
BRANCH   1  15
ATOM     14  C   UNL     1       7.668   7.738  17.511  0.00  0.00    +0.000 C 
ATOM     15  C   UNL     1       7.398   6.431  18.207  0.00  0.00    +0.000 C 
ATOM     16  O   UNL     1       8.126   6.025  19.110  0.00  0.00    +0.000 OA
ENDBRANCH   1  15
TORSDOF 2
ENDMDL
