MODEL 1
REMARK VINA RESULT:      -6.6      0.000      0.000
REMARK  Name = 
REMARK  7 active torsions:
REMARK  status: ('A' for Active; 'I' for Inactive)
REMARK    1  A    between atoms: N_1  and  S_2
REMARK    2  A    between atoms: S_2  and  C_5
REMARK    3  A    between atoms: C_8  and  C_9
REMARK    4  A    between atoms: N_11  and  C_12
REMARK    5  A    between atoms: C_12  and  C_13
REMARK    6  A    between atoms: C_13  and  C_14
REMARK    7  A    between atoms: C_14  and  O_16
REMARK                            x       y       z     vdW  Elec       q    Type
REMARK                         _______ _______ _______ _____ _____    ______ ____
ROOT
ATOM      1  C   UNL     1       5.540   5.247  17.480  0.00  0.00    +0.000 A 
ATOM      2  C   UNL     1       4.551   6.140  17.068  0.00  0.00    +0.000 A 
ATOM      3  C   UNL     1       3.490   6.431  17.935  0.00  0.00    +0.000 A 
ATOM      4  C   UNL     1       3.409   5.832  19.207  0.00  0.00    +0.000 A 
ATOM      5  C   UNL     1       4.406   4.924  19.593  0.00  0.00    +0.000 A 
ATOM      6  C   UNL     1       5.465   4.631  18.730  0.00  0.00    +0.000 A 
ENDROOT
BRANCH   4   7
ATOM      7  C   UNL     1       2.260   6.206  20.088  0.00  0.00    +0.000 C 
ATOM      8  O   UNL     1       1.531   5.333  20.554  0.00  0.00    +0.000 OA
ATOM      9  N   UNL     1       2.064   7.543  20.365  0.00  0.00    +0.000 N 
ATOM     10  H   UNL     1       2.764   8.232  20.123  0.00  0.00    +0.000 HD
BRANCH   9  11
ATOM     11  C   UNL     1       1.018   8.008  21.253  0.00  0.00    +0.000 C 
BRANCH  11  12
ATOM     12  C   UNL     1       1.109   9.505  21.528  0.00  0.00    +0.000 C 
BRANCH  12  13
ATOM     13  C   UNL     1       0.166   9.920  22.631  0.00  0.00    +0.000 C 
ATOM     14  O   UNL     1       0.317   9.678  23.818  0.00  0.00    +0.000 OA
BRANCH  13  15
ATOM     15  O   UNL     1      -0.905  10.606  22.165  0.00  0.00    +0.000 OA
ATOM     16  H   UNL     1      -1.075  11.442  22.640  0.00  0.00    +0.000 HD
ENDBRANCH  13  15
ENDBRANCH  12  13
ENDBRANCH  11  12
ENDBRANCH   9  11
ENDBRANCH   4   7
BRANCH   1  17
ATOM     17  S   UNL     1       6.894   4.849  16.412  0.00  0.00    +0.000 S 
ATOM     18  O   UNL     1       7.499   6.068  15.932  0.00  0.00    +0.000 OA
ATOM     19  O   UNL     1       6.501   3.776  15.532  0.00  0.00    +0.000 OA
BRANCH  17  20
ATOM     20  N   UNL     1       7.988   4.178  17.495  0.00  0.00    +0.000 NA
ATOM     21  H   UNL     1       7.619   4.247  18.443  0.00  0.00    +0.000 HD
ATOM     22  H   UNL     1       8.908   4.602  17.378  0.00  0.00    +0.000 HD
ENDBRANCH  17  20
ENDBRANCH   1  17
TORSDOF 7
ENDMDL
MODEL 2
REMARK VINA RESULT:      -6.6      4.515      8.317
REMARK  Name = 
REMARK  7 active torsions:
REMARK  status: ('A' for Active; 'I' for Inactive)
REMARK    1  A    between atoms: N_1  and  S_2
REMARK    2  A    between atoms: S_2  and  C_5
REMARK    3  A    between atoms: C_8  and  C_9
REMARK    4  A    between atoms: N_11  and  C_12
REMARK    5  A    between atoms: C_12  and  C_13
REMARK    6  A    between atoms: C_13  and  C_14
REMARK    7  A    between atoms: C_14  and  O_16
REMARK                            x       y       z     vdW  Elec       q    Type
REMARK                         _______ _______ _______ _____ _____    ______ ____
ROOT
ATOM      1  C   UNL     1       3.877   3.684  18.605  0.00  0.00    +0.000 A 
ATOM      2  C   UNL     1       3.673   3.488  17.239  0.00  0.00    +0.000 A 
ATOM      3  C   UNL     1       4.613   3.989  16.331  0.00  0.00    +0.000 A 
ATOM      4  C   UNL     1       5.751   4.688  16.777  0.00  0.00    +0.000 A 
ATOM      5  C   UNL     1       5.926   4.887  18.154  0.00  0.00    +0.000 A 
ATOM      6  C   UNL     1       4.989   4.389  19.064  0.00  0.00    +0.000 A 
ENDROOT
BRANCH   4   7
ATOM      7  C   UNL     1       6.725   5.175  15.752  0.00  0.00    +0.000 C 
ATOM      8  O   UNL     1       7.542   6.046  16.043  0.00  0.00    +0.000 OA
ATOM      9  N   UNL     1       6.680   4.609  14.495  0.00  0.00    +0.000 N 
ATOM     10  H   UNL     1       6.127   3.781  14.318  0.00  0.00    +0.000 HD
BRANCH   9  11
ATOM     11  C   UNL     1       7.614   4.967  13.447  0.00  0.00    +0.000 C 
BRANCH  11  12
ATOM     12  C   UNL     1       7.172   4.471  12.076  0.00  0.00    +0.000 C 
BRANCH  12  13
ATOM     13  C   UNL     1       6.130   3.385  12.193  0.00  0.00    +0.000 C 
ATOM     14  O   UNL     1       4.958   3.558  12.492  0.00  0.00    +0.000 OA
BRANCH  13  15
ATOM     15  O   UNL     1       6.633   2.155  11.933  0.00  0.00    +0.000 OA
ATOM     16  H   UNL     1       7.349   2.153  11.269  0.00  0.00    +0.000 HD
ENDBRANCH  13  15
ENDBRANCH  12  13
ENDBRANCH  11  12
ENDBRANCH   9  11
ENDBRANCH   4   7
BRANCH   1  17
ATOM     17  S   UNL     1       2.709   3.070  19.786  0.00  0.00    +0.000 S 
ATOM     18  O   UNL     1       1.639   4.027  19.941  0.00  0.00    +0.000 OA
ATOM     19  O   UNL     1       3.422   2.512  20.909  0.00  0.00    +0.000 OA
BRANCH  17  20
ATOM     20  N   UNL     1       2.054   1.763  18.961  0.00  0.00    +0.000 NA
ATOM     21  H   UNL     1       2.550   0.911  19.219  0.00  0.00    +0.000 HD
ATOM     22  H   UNL     1       2.042   1.947  17.958  0.00  0.00    +0.000 HD
ENDBRANCH  17  20
ENDBRANCH   1  17
TORSDOF 7
ENDMDL
MODEL 3
REMARK VINA RESULT:      -6.5      0.883      1.255
REMARK  Name = 
REMARK  7 active torsions:
REMARK  status: ('A' for Active; 'I' for Inactive)
REMARK    1  A    between atoms: N_1  and  S_2
REMARK    2  A    between atoms: S_2  and  C_5
REMARK    3  A    between atoms: C_8  and  C_9
REMARK    4  A    between atoms: N_11  and  C_12
REMARK    5  A    between atoms: C_12  and  C_13
REMARK    6  A    between atoms: C_13  and  C_14
REMARK    7  A    between atoms: C_14  and  O_16
REMARK                            x       y       z     vdW  Elec       q    Type
REMARK                         _______ _______ _______ _____ _____    ______ ____
ROOT
ATOM      1  C   UNL     1       5.647   5.143  17.443  0.00  0.00    +0.000 A 
ATOM      2  C   UNL     1       4.728   6.117  17.055  0.00  0.00    +0.000 A 
ATOM      3  C   UNL     1       3.646   6.407  17.896  0.00  0.00    +0.000 A 
ATOM      4  C   UNL     1       3.474   5.726  19.117  0.00  0.00    +0.000 A 
ATOM      5  C   UNL     1       4.402   4.738  19.477  0.00  0.00    +0.000 A 
ATOM      6  C   UNL     1       5.482   4.446  18.640  0.00  0.00    +0.000 A 
ENDROOT
BRANCH   4   7
ATOM      7  C   UNL     1       2.308   6.102  19.975  0.00  0.00    +0.000 C 
ATOM      8  O   UNL     1       1.609   5.228  20.482  0.00  0.00    +0.000 OA
ATOM      9  N   UNL     1       2.063   7.444  20.181  0.00  0.00    +0.000 N 
ATOM     10  H   UNL     1       2.738   8.144  19.907  0.00  0.00    +0.000 HD
BRANCH   9  11
ATOM     11  C   UNL     1       0.996   7.915  21.041  0.00  0.00    +0.000 C 
BRANCH  11  12
ATOM     12  C   UNL     1       1.454   9.017  21.989  0.00  0.00    +0.000 C 
BRANCH  12  13
ATOM     13  C   UNL     1       0.282   9.777  22.559  0.00  0.00    +0.000 C 
ATOM     14  O   UNL     1      -0.553  10.384  21.906  0.00  0.00    +0.000 OA
BRANCH  13  15
ATOM     15  O   UNL     1       0.241   9.727  23.912  0.00  0.00    +0.000 OA
ATOM     16  H   UNL     1       0.774   9.005  24.297  0.00  0.00    +0.000 HD
ENDBRANCH  13  15
ENDBRANCH  12  13
ENDBRANCH  11  12
ENDBRANCH   9  11
ENDBRANCH   4   7
BRANCH   1  17
ATOM     17  S   UNL     1       7.026   4.744  16.406  0.00  0.00    +0.000 S 
ATOM     18  O   UNL     1       8.081   4.177  17.212  0.00  0.00    +0.000 OA
ATOM     19  O   UNL     1       7.250   5.828  15.481  0.00  0.00    +0.000 OA
BRANCH  17  20
ATOM     20  N   UNL     1       6.403   3.481  15.492  0.00  0.00    +0.000 NA
ATOM     21  H   UNL     1       5.610   3.063  15.979  0.00  0.00    +0.000 HD
ATOM     22  H   UNL     1       7.140   2.816  15.257  0.00  0.00    +0.000 HD
ENDBRANCH  17  20
ENDBRANCH   1  17
TORSDOF 7
ENDMDL
MODEL 4
REMARK VINA RESULT:      -6.5      0.869      1.589
REMARK  Name = 
REMARK  7 active torsions:
REMARK  status: ('A' for Active; 'I' for Inactive)
REMARK    1  A    between atoms: N_1  and  S_2
REMARK    2  A    between atoms: S_2  and  C_5
REMARK    3  A    between atoms: C_8  and  C_9
REMARK    4  A    between atoms: N_11  and  C_12
REMARK    5  A    between atoms: C_12  and  C_13
REMARK    6  A    between atoms: C_13  and  C_14
REMARK    7  A    between atoms: C_14  and  O_16
REMARK                            x       y       z     vdW  Elec       q    Type
REMARK                         _______ _______ _______ _____ _____    ______ ____
ROOT
ATOM      1  C   UNL     1       5.489   5.178  17.346  0.00  0.00    +0.000 A 
ATOM      2  C   UNL     1       5.189   4.342  18.420  0.00  0.00    +0.000 A 
ATOM      3  C   UNL     1       4.137   4.685  19.278  0.00  0.00    +0.000 A 
ATOM      4  C   UNL     1       3.387   5.860  19.072  0.00  0.00    +0.000 A 
ATOM      5  C   UNL     1       3.719   6.694  17.995  0.00  0.00    +0.000 A 
ATOM      6  C   UNL     1       4.769   6.355  17.137  0.00  0.00    +0.000 A 
ENDROOT
BRANCH   4   7
ATOM      7  C   UNL     1       2.263   6.152  20.015  0.00  0.00    +0.000 C 
ATOM      8  O   UNL     1       1.623   5.229  20.515  0.00  0.00    +0.000 OA
ATOM      9  N   UNL     1       1.990   7.471  20.307  0.00  0.00    +0.000 N 
ATOM     10  H   UNL     1       2.626   8.208  20.032  0.00  0.00    +0.000 HD
BRANCH   9  11
ATOM     11  C   UNL     1       0.962   7.862  21.251  0.00  0.00    +0.000 C 
BRANCH  11  12
ATOM     12  C   UNL     1       1.288   9.170  21.961  0.00  0.00    +0.000 C 
BRANCH  12  13
ATOM     13  C   UNL     1       0.874  10.363  21.135  0.00  0.00    +0.000 C 
ATOM     14  O   UNL     1       0.787  10.384  19.917  0.00  0.00    +0.000 OA
BRANCH  13  15
ATOM     15  O   UNL     1       0.606  11.451  21.895  0.00  0.00    +0.000 OA
ATOM     16  H   UNL     1       0.352  12.241  21.380  0.00  0.00    +0.000 HD
ENDBRANCH  13  15
ENDBRANCH  12  13
ENDBRANCH  11  12
ENDBRANCH   9  11
ENDBRANCH   4   7
BRANCH   1  17
ATOM     17  S   UNL     1       6.815   4.783  16.241  0.00  0.00    +0.000 S 
ATOM     18  O   UNL     1       7.361   6.003  15.694  0.00  0.00    +0.000 OA
ATOM     19  O   UNL     1       6.425   3.666  15.416  0.00  0.00    +0.000 OA
BRANCH  17  20
ATOM     20  N   UNL     1       7.970   4.189  17.304  0.00  0.00    +0.000 NA
ATOM     21  H   UNL     1       8.745   4.848  17.374  0.00  0.00    +0.000 HD
ATOM     22  H   UNL     1       8.252   3.247  17.030  0.00  0.00    +0.000 HD
ENDBRANCH  17  20
ENDBRANCH   1  17
TORSDOF 7
ENDMDL
MODEL 5
REMARK VINA RESULT:      -6.4      4.240      8.361
REMARK  Name = 
REMARK  7 active torsions:
REMARK  status: ('A' for Active; 'I' for Inactive)
REMARK    1  A    between atoms: N_1  and  S_2
REMARK    2  A    between atoms: S_2  and  C_5
REMARK    3  A    between atoms: C_8  and  C_9
REMARK    4  A    between atoms: N_11  and  C_12
REMARK    5  A    between atoms: C_12  and  C_13
REMARK    6  A    between atoms: C_13  and  C_14
REMARK    7  A    between atoms: C_14  and  O_16
REMARK                            x       y       z     vdW  Elec       q    Type
REMARK                         _______ _______ _______ _____ _____    ______ ____
ROOT
ATOM      1  C   UNL     1       3.491   3.867  18.723  0.00  0.00    +0.000 A 
ATOM      2  C   UNL     1       4.764   4.208  19.179  0.00  0.00    +0.000 A 
ATOM      3  C   UNL     1       5.794   4.400  18.250  0.00  0.00    +0.000 A 
ATOM      4  C   UNL     1       5.561   4.248  16.869  0.00  0.00    +0.000 A 
ATOM      5  C   UNL     1       4.277   3.888  16.435  0.00  0.00    +0.000 A 
ATOM      6  C   UNL     1       3.248   3.694  17.360  0.00  0.00    +0.000 A 
ENDROOT
BRANCH   4   7
ATOM      7  C   UNL     1       6.702   4.490  15.933  0.00  0.00    +0.000 C 
ATOM      8  O   UNL     1       7.848   4.582  16.368  0.00  0.00    +0.000 OA
ATOM      9  N   UNL     1       6.424   4.587  14.585  0.00  0.00    +0.000 N 
ATOM     10  H   UNL     1       5.513   4.338  14.223  0.00  0.00    +0.000 HD
BRANCH   9  11
ATOM     11  C   UNL     1       7.461   4.762  13.588  0.00  0.00    +0.000 C 
BRANCH  11  12
ATOM     12  C   UNL     1       7.003   4.356  12.192  0.00  0.00    +0.000 C 
BRANCH  12  13
ATOM     13  C   UNL     1       5.880   3.349  12.252  0.00  0.00    +0.000 C 
ATOM     14  O   UNL     1       4.716   3.604  12.519  0.00  0.00    +0.000 OA
BRANCH  13  15
ATOM     15  O   UNL     1       6.299   2.091  11.979  0.00  0.00    +0.000 OA
ATOM     16  H   UNL     1       6.695   1.990  11.092  0.00  0.00    +0.000 HD
ENDBRANCH  13  15
ENDBRANCH  12  13
ENDBRANCH  11  12
ENDBRANCH   9  11
ENDBRANCH   4   7
BRANCH   1  17
ATOM     17  S   UNL     1       2.164   3.611  19.866  0.00  0.00    +0.000 S 
ATOM     18  O   UNL     1       1.595   4.887  20.231  0.00  0.00    +0.000 OA
ATOM     19  O   UNL     1       2.566   2.630  20.844  0.00  0.00    +0.000 OA
BRANCH  17  20
ATOM     20  N   UNL     1       1.026   2.852  18.893  0.00  0.00    +0.000 NA
ATOM     21  H   UNL     1       1.320   1.894  18.705  0.00  0.00    +0.000 HD
ATOM     22  H   UNL     1       0.854   3.404  18.052  0.00  0.00    +0.000 HD
ENDBRANCH  17  20
ENDBRANCH   1  17
TORSDOF 7
ENDMDL
MODEL 6
REMARK VINA RESULT:      -6.4      0.889      1.554
REMARK  Name = 
REMARK  7 active torsions:
REMARK  status: ('A' for Active; 'I' for Inactive)
REMARK    1  A    between atoms: N_1  and  S_2
REMARK    2  A    between atoms: S_2  and  C_5
REMARK    3  A    between atoms: C_8  and  C_9
REMARK    4  A    between atoms: N_11  and  C_12
REMARK    5  A    between atoms: C_12  and  C_13
REMARK    6  A    between atoms: C_13  and  C_14
REMARK    7  A    between atoms: C_14  and  O_16
REMARK                            x       y       z     vdW  Elec       q    Type
REMARK                         _______ _______ _______ _____ _____    ______ ____
ROOT
ATOM      1  C   UNL     1       5.603   5.113  17.560  0.00  0.00    +0.000 A 
ATOM      2  C   UNL     1       5.542   4.683  18.885  0.00  0.00    +0.000 A 
ATOM      3  C   UNL     1       4.456   5.073  19.679  0.00  0.00    +0.000 A 
ATOM      4  C   UNL     1       3.437   5.894  19.160  0.00  0.00    +0.000 A 
ATOM      5  C   UNL     1       3.529   6.328  17.829  0.00  0.00    +0.000 A 
ATOM      6  C   UNL     1       4.611   5.941  17.034  0.00  0.00    +0.000 A 
ENDROOT
BRANCH   4   7
ATOM      7  C   UNL     1       2.296   6.254  20.058  0.00  0.00    +0.000 C 
ATOM      8  O   UNL     1       1.564   5.375  20.506  0.00  0.00    +0.000 OA
ATOM      9  N   UNL     1       2.113   7.585  20.370  0.00  0.00    +0.000 N 
ATOM     10  H   UNL     1       2.816   8.275  20.141  0.00  0.00    +0.000 HD
BRANCH   9  11
ATOM     11  C   UNL     1       1.076   8.036  21.276  0.00  0.00    +0.000 C 
BRANCH  11  12
ATOM     12  C   UNL     1       0.793   9.527  21.145  0.00  0.00    +0.000 C 
BRANCH  12  13
ATOM     13  C   UNL     1       0.370  10.127  22.463  0.00  0.00    +0.000 C 
ATOM     14  O   UNL     1       0.531   9.610  23.559  0.00  0.00    +0.000 OA
BRANCH  13  15
ATOM     15  O   UNL     1      -0.232  11.331  22.315  0.00  0.00    +0.000 OA
ATOM     16  H   UNL     1      -1.158  11.349  22.622  0.00  0.00    +0.000 HD
ENDBRANCH  13  15
ENDBRANCH  12  13
ENDBRANCH  11  12
ENDBRANCH   9  11
ENDBRANCH   4   7
BRANCH   1  17
ATOM     17  S   UNL     1       6.961   4.645  16.525  0.00  0.00    +0.000 S 
ATOM     18  O   UNL     1       6.464   3.900  15.393  0.00  0.00    +0.000 OA
ATOM     19  O   UNL     1       8.044   4.172  17.352  0.00  0.00    +0.000 OA
BRANCH  17  20
ATOM     20  N   UNL     1       7.454   6.134  15.927  0.00  0.00    +0.000 NA
ATOM     21  H   UNL     1       6.705   6.816  16.044  0.00  0.00    +0.000 HD
ATOM     22  H   UNL     1       7.780   6.039  14.964  0.00  0.00    +0.000 HD
ENDBRANCH  17  20
ENDBRANCH   1  17
TORSDOF 7
ENDMDL
MODEL 7
REMARK VINA RESULT:      -6.4      1.479      1.726
REMARK  Name = 
REMARK  7 active torsions:
REMARK  status: ('A' for Active; 'I' for Inactive)
REMARK    1  A    between atoms: N_1  and  S_2
REMARK    2  A    between atoms: S_2  and  C_5
REMARK    3  A    between atoms: C_8  and  C_9
REMARK    4  A    between atoms: N_11  and  C_12
REMARK    5  A    between atoms: C_12  and  C_13
REMARK    6  A    between atoms: C_13  and  C_14
REMARK    7  A    between atoms: C_14  and  O_16
REMARK                            x       y       z     vdW  Elec       q    Type
REMARK                         _______ _______ _______ _____ _____    ______ ____
ROOT
ATOM      1  C   UNL     1       5.437   5.219  17.237  0.00  0.00    +0.000 A 
ATOM      2  C   UNL     1       4.720   6.400  17.048  0.00  0.00    +0.000 A 
ATOM      3  C   UNL     1       3.702   6.732  17.951  0.00  0.00    +0.000 A 
ATOM      4  C   UNL     1       3.391   5.888  19.035  0.00  0.00    +0.000 A 
ATOM      5  C   UNL     1       4.114   4.697  19.194  0.00  0.00    +0.000 A 
ATOM      6  C   UNL     1       5.130   4.363  18.295  0.00  0.00    +0.000 A 
ENDROOT
BRANCH   4   7
ATOM      7  C   UNL     1       2.306   6.316  19.971  0.00  0.00    +0.000 C 
ATOM      8  O   UNL     1       1.546   5.481  20.457  0.00  0.00    +0.000 OA
ATOM      9  N   UNL     1       2.204   7.658  20.274  0.00  0.00    +0.000 N 
ATOM     10  H   UNL     1       2.932   8.307  20.010  0.00  0.00    +0.000 HD
BRANCH   9  11
ATOM     11  C   UNL     1       1.227   8.170  21.213  0.00  0.00    +0.000 C 
BRANCH  11  12
ATOM     12  C   UNL     1       0.215   9.100  20.553  0.00  0.00    +0.000 C 
BRANCH  12  13
ATOM     13  C   UNL     1       0.871   9.987  19.524  0.00  0.00    +0.000 C 
ATOM     14  O   UNL     1       1.231  11.139  19.709  0.00  0.00    +0.000 OA
BRANCH  13  15
ATOM     15  O   UNL     1       1.023   9.368  18.329  0.00  0.00    +0.000 OA
ATOM     16  H   UNL     1       1.696   8.660  18.333  0.00  0.00    +0.000 HD
ENDBRANCH  13  15
ENDBRANCH  12  13
ENDBRANCH  11  12
ENDBRANCH   9  11
ENDBRANCH   4   7
BRANCH   1  17
ATOM     17  S   UNL     1       6.729   4.762  16.116  0.00  0.00    +0.000 S 
ATOM     18  O   UNL     1       7.278   5.950  15.509  0.00  0.00    +0.000 OA
ATOM     19  O   UNL     1       6.301   3.620  15.344  0.00  0.00    +0.000 OA
BRANCH  17  20
ATOM     20  N   UNL     1       7.901   4.190  17.172  0.00  0.00    +0.000 NA
ATOM     21  H   UNL     1       8.780   4.060  16.672  0.00  0.00    +0.000 HD
ATOM     22  H   UNL     1       7.570   3.351  17.650  0.00  0.00    +0.000 HD
ENDBRANCH  17  20
ENDBRANCH   1  17
TORSDOF 7
ENDMDL
MODEL 8
REMARK VINA RESULT:      -6.4      3.031      7.695
REMARK  Name = 
REMARK  7 active torsions:
REMARK  status: ('A' for Active; 'I' for Inactive)
REMARK    1  A    between atoms: N_1  and  S_2
REMARK    2  A    between atoms: S_2  and  C_5
REMARK    3  A    between atoms: C_8  and  C_9
REMARK    4  A    between atoms: N_11  and  C_12
REMARK    5  A    between atoms: C_12  and  C_13
REMARK    6  A    between atoms: C_13  and  C_14
REMARK    7  A    between atoms: C_14  and  O_16
REMARK                            x       y       z     vdW  Elec       q    Type
REMARK                         _______ _______ _______ _____ _____    ______ ____
ROOT
ATOM      1  C   UNL     1       1.638   7.899  20.242  0.00  0.00    +0.000 A 
ATOM      2  C   UNL     1       2.096   8.186  18.957  0.00  0.00    +0.000 A 
ATOM      3  C   UNL     1       2.607   7.149  18.167  0.00  0.00    +0.000 A 
ATOM      4  C   UNL     1       2.670   5.830  18.656  0.00  0.00    +0.000 A 
ATOM      5  C   UNL     1       2.219   5.568  19.958  0.00  0.00    +0.000 A 
ATOM      6  C   UNL     1       1.709   6.601  20.749  0.00  0.00    +0.000 A 
ENDROOT
BRANCH   4   7
ATOM      7  C   UNL     1       3.208   4.768  17.750  0.00  0.00    +0.000 C 
ATOM      8  O   UNL     1       2.470   3.875  17.340  0.00  0.00    +0.000 OA
ATOM      9  N   UNL     1       4.537   4.838  17.389  0.00  0.00    +0.000 N 
ATOM     10  H   UNL     1       5.087   5.663  17.587  0.00  0.00    +0.000 HD
BRANCH   9  11
ATOM     11  C   UNL     1       5.144   3.895  16.471  0.00  0.00    +0.000 C 
BRANCH  11  12
ATOM     12  C   UNL     1       5.608   4.556  15.178  0.00  0.00    +0.000 C 
BRANCH  12  13
ATOM     13  C   UNL     1       7.079   4.887  15.225  0.00  0.00    +0.000 C 
ATOM     14  O   UNL     1       7.703   5.462  14.347  0.00  0.00    +0.000 OA
BRANCH  13  15
ATOM     15  O   UNL     1       7.668   4.466  16.370  0.00  0.00    +0.000 OA
ATOM     16  H   UNL     1       8.465   4.974  16.614  0.00  0.00    +0.000 HD
ENDBRANCH  13  15
ENDBRANCH  12  13
ENDBRANCH  11  12
ENDBRANCH   9  11
ENDBRANCH   4   7
BRANCH   1  17
ATOM     17  S   UNL     1       0.989   9.183  21.274  0.00  0.00    +0.000 S 
ATOM     18  O   UNL     1       0.691  10.341  20.465  0.00  0.00    +0.000 OA
ATOM     19  O   UNL     1       1.772   9.259  22.483  0.00  0.00    +0.000 OA
BRANCH  17  20
ATOM     20  N   UNL     1      -0.492   8.533  21.725  0.00  0.00    +0.000 NA
ATOM     21  H   UNL     1      -1.229   9.220  21.571  0.00  0.00    +0.000 HD
ATOM     22  H   UNL     1      -0.447   8.181  22.682  0.00  0.00    +0.000 HD
ENDBRANCH  17  20
ENDBRANCH   1  17
TORSDOF 7
ENDMDL
MODEL 9
REMARK VINA RESULT:      -6.3      3.617      7.311
REMARK  Name = 
REMARK  7 active torsions:
REMARK  status: ('A' for Active; 'I' for Inactive)
REMARK    1  A    between atoms: N_1  and  S_2
REMARK    2  A    between atoms: S_2  and  C_5
REMARK    3  A    between atoms: C_8  and  C_9
REMARK    4  A    between atoms: N_11  and  C_12
REMARK    5  A    between atoms: C_12  and  C_13
REMARK    6  A    between atoms: C_13  and  C_14
REMARK    7  A    between atoms: C_14  and  O_16
REMARK                            x       y       z     vdW  Elec       q    Type
REMARK                         _______ _______ _______ _____ _____    ______ ____
ROOT
ATOM      1  C   UNL     1       1.197   9.286  19.832  0.00  0.00    +0.000 A 
ATOM      2  C   UNL     1       1.564   9.298  18.487  0.00  0.00    +0.000 A 
ATOM      3  C   UNL     1       2.195   8.173  17.942  0.00  0.00    +0.000 A 
ATOM      4  C   UNL     1       2.467   7.040  18.733  0.00  0.00    +0.000 A 
ATOM      5  C   UNL     1       2.104   7.058  20.088  0.00  0.00    +0.000 A 
ATOM      6  C   UNL     1       1.475   8.179  20.635  0.00  0.00    +0.000 A 
ENDROOT
BRANCH   4   7
ATOM      7  C   UNL     1       3.124   5.866  18.080  0.00  0.00    +0.000 C 
ATOM      8  O   UNL     1       4.170   6.016  17.452  0.00  0.00    +0.000 OA
ATOM      9  N   UNL     1       2.528   4.630  18.220  0.00  0.00    +0.000 N 
ATOM     10  H   UNL     1       1.772   4.488  18.876  0.00  0.00    +0.000 HD
BRANCH   9  11
ATOM     11  C   UNL     1       3.112   3.420  17.677  0.00  0.00    +0.000 C 
BRANCH  11  12
ATOM     12  C   UNL     1       3.278   2.329  18.728  0.00  0.00    +0.000 C 
BRANCH  12  13
ATOM     13  C   UNL     1       4.550   2.514  19.518  0.00  0.00    +0.000 C 
ATOM     14  O   UNL     1       4.853   1.896  20.527  0.00  0.00    +0.000 OA
BRANCH  13  15
ATOM     15  O   UNL     1       5.352   3.470  18.991  0.00  0.00    +0.000 OA
ATOM     16  H   UNL     1       5.991   3.845  19.627  0.00  0.00    +0.000 HD
ENDBRANCH  13  15
ENDBRANCH  12  13
ENDBRANCH  11  12
ENDBRANCH   9  11
ENDBRANCH   4   7
BRANCH   1  17
ATOM     17  S   UNL     1       0.402  10.690  20.561  0.00  0.00    +0.000 S 
ATOM     18  O   UNL     1      -1.005  10.663  20.238  0.00  0.00    +0.000 OA
ATOM     19  O   UNL     1       1.225  11.857  20.355  0.00  0.00    +0.000 OA
BRANCH  17  20
ATOM     20  N   UNL     1       0.516  10.328  22.196  0.00  0.00    +0.000 NA
ATOM     21  H   UNL     1      -0.411  10.129  22.569  0.00  0.00    +0.000 HD
ATOM     22  H   UNL     1       1.009  11.073  22.690  0.00  0.00    +0.000 HD
ENDBRANCH  17  20
ENDBRANCH   1  17
TORSDOF 7
ENDMDL
