MODEL 1
REMARK VINA RESULT:      -7.2      0.000      0.000
REMARK  Name = 
REMARK  8 active torsions:
REMARK  status: ('A' for Active; 'I' for Inactive)
REMARK    1  A    between atoms: C_1  and  C_2
REMARK    2  A    between atoms: C_6  and  C_7
REMARK    3  A    between atoms: C_11  and  S_12
REMARK    4  A    between atoms: N_13  and  C_14
REMARK    5  A    between atoms: C_14  and  C_15
REMARK    6  A    between atoms: C_15  and  C_16
REMARK    7  A    between atoms: C_15  and  C_17
REMARK    8  A    between atoms: C_23  and  C_24
REMARK                            x       y       z     vdW  Elec       q    Type
REMARK                         _______ _______ _______ _____ _____    ______ ____
ROOT
ATOM      1  C   UNL     1       7.608   6.401  17.360  0.00  0.00    +0.000 C 
ATOM      2  C   UNL     1       6.359   6.423  16.475  0.00  0.00    +0.000 C 
ATOM      3  C   UNL     1       5.083   6.693  17.272  0.00  0.00    +0.000 C 
ATOM      4  N   UNL     1       4.955   5.714  18.347  0.00  0.00    +0.000 N 
ATOM      5  C   UNL     1       3.884   4.858  18.551  0.00  0.00    +0.000 C 
ATOM      6  N   UNL     1       4.042   3.755  19.201  0.00  0.00    +0.000 NA
ATOM      7  C   UNL     1       6.084   5.711  19.289  0.00  0.00    +0.000 C 
ATOM      8  C   UNL     1       7.400   5.459  18.553  0.00  0.00    +0.000 C 
ENDROOT
BRANCH   1  14
ATOM      9  C   UNL     1       8.918  13.619  18.442  0.00  0.00    +0.000 C 
ATOM     10  C   UNL     1       8.933  12.130  18.668  0.00  0.00    +0.000 A 
ATOM     11  C   UNL     1       8.299  11.297  17.723  0.00  0.00    +0.000 A 
ATOM     12  C   UNL     1       8.293   9.911  17.922  0.00  0.00    +0.000 A 
ATOM     13  N   UNL     1       7.751   8.914  17.151  0.00  0.00    +0.000 NA
ATOM     14  C   UNL     1       7.999   7.787  17.787  0.00  0.00    +0.000 A 
ATOM     15  N   UNL     1       8.707   8.033  18.939  0.00  0.00    +0.000 N 
ATOM     16  C   UNL     1       8.908   9.382  19.046  0.00  0.00    +0.000 A 
ATOM     17  C   UNL     1       9.553  10.170  20.003  0.00  0.00    +0.000 A 
ATOM     18  C   UNL     1       9.562  11.564  19.800  0.00  0.00    +0.000 A 
ATOM     19  C   UNL     1      10.259  12.435  20.814  0.00  0.00    +0.000 C 
ATOM     20  H   UNL     1       9.024   7.334  19.600  0.00  0.00    +0.000 HD
ENDBRANCH   1  14
BRANCH   5  21
ATOM     21  S   UNL     1       2.302   5.337  17.921  0.00  0.00    +0.000 S 
ATOM     22  H   UNL     1       2.584   6.625  17.706  0.00  0.00    +0.000 HD
ENDBRANCH   5  21
BRANCH   6  23
ATOM     23  C   UNL     1       2.935   2.835  19.444  0.00  0.00    +0.000 C 
BRANCH  23  24
ATOM     24  C   UNL     1       2.058   3.359  20.595  0.00  0.00    +0.000 C 
ATOM     25  C   UNL     1       0.569   3.236  20.275  0.00  0.00    +0.000 C 
ATOM     26  C   UNL     1       2.388   2.670  21.919  0.00  0.00    +0.000 C 
ENDBRANCH  23  24
ENDBRANCH   6  23
TORSDOF 4
ENDMDL
MODEL 2
REMARK VINA RESULT:      -7.1      0.796      1.190
REMARK  Name = 
REMARK  8 active torsions:
REMARK  status: ('A' for Active; 'I' for Inactive)
REMARK    1  A    between atoms: C_1  and  C_2
REMARK    2  A    between atoms: C_6  and  C_7
REMARK    3  A    between atoms: C_11  and  S_12
REMARK    4  A    between atoms: N_13  and  C_14
REMARK    5  A    between atoms: C_14  and  C_15
REMARK    6  A    between atoms: C_15  and  C_16
REMARK    7  A    between atoms: C_15  and  C_17
REMARK    8  A    between atoms: C_23  and  C_24
REMARK                            x       y       z     vdW  Elec       q    Type
REMARK                         _______ _______ _______ _____ _____    ______ ____
ROOT
ATOM      1  C   UNL     1       7.181   6.466  17.228  0.00  0.00    +0.000 C 
ATOM      2  C   UNL     1       5.738   6.592  16.734  0.00  0.00    +0.000 C 
ATOM      3  C   UNL     1       4.743   6.793  17.877  0.00  0.00    +0.000 C 
ATOM      4  N   UNL     1       4.879   5.710  18.846  0.00  0.00    +0.000 N 
ATOM      5  C   UNL     1       3.874   4.849  19.257  0.00  0.00    +0.000 C 
ATOM      6  N   UNL     1       4.163   3.683  19.730  0.00  0.00    +0.000 NA
ATOM      7  C   UNL     1       6.224   5.598  19.431  0.00  0.00    +0.000 C 
ATOM      8  C   UNL     1       7.275   5.409  18.336  0.00  0.00    +0.000 C 
ENDROOT
BRANCH   1  14
ATOM      9  C   UNL     1       9.222  13.499  18.395  0.00  0.00    +0.000 C 
ATOM     10  C   UNL     1       9.119  12.008  18.579  0.00  0.00    +0.000 A 
ATOM     11  C   UNL     1       8.340  11.266  17.666  0.00  0.00    +0.000 A 
ATOM     12  C   UNL     1       8.223   9.881  17.828  0.00  0.00    +0.000 A 
ATOM     13  N   UNL     1       7.536   8.962  17.076  0.00  0.00    +0.000 NA
ATOM     14  C   UNL     1       7.728   7.797  17.660  0.00  0.00    +0.000 A 
ATOM     15  N   UNL     1       8.543   7.940  18.758  0.00  0.00    +0.000 N 
ATOM     16  C   UNL     1       8.873   9.262  18.885  0.00  0.00    +0.000 A 
ATOM     17  C   UNL     1       9.659   9.956  19.807  0.00  0.00    +0.000 A 
ATOM     18  C   UNL     1       9.779  11.350  19.642  0.00  0.00    +0.000 A 
ATOM     19  C   UNL     1      10.628  12.121  20.620  0.00  0.00    +0.000 C 
ATOM     20  H   UNL     1       8.845   7.193  19.372  0.00  0.00    +0.000 HD
ENDBRANCH   1  14
BRANCH   5  21
ATOM     21  S   UNL     1       2.200   5.407  19.143  0.00  0.00    +0.000 S 
ATOM     22  H   UNL     1       2.111   5.415  17.809  0.00  0.00    +0.000 HD
ENDBRANCH   5  21
BRANCH   6  23
ATOM     23  C   UNL     1       3.132   2.756  20.183  0.00  0.00    +0.000 C 
BRANCH  23  24
ATOM     24  C   UNL     1       2.706   1.835  19.025  0.00  0.00    +0.000 C 
ATOM     25  C   UNL     1       1.257   2.085  18.606  0.00  0.00    +0.000 C 
ATOM     26  C   UNL     1       3.646   1.959  17.826  0.00  0.00    +0.000 C 
ENDBRANCH  23  24
ENDBRANCH   6  23
TORSDOF 4
ENDMDL
MODEL 3
REMARK VINA RESULT:      -7.1      0.833      1.902
REMARK  Name = 
REMARK  8 active torsions:
REMARK  status: ('A' for Active; 'I' for Inactive)
REMARK    1  A    between atoms: C_1  and  C_2
REMARK    2  A    between atoms: C_6  and  C_7
REMARK    3  A    between atoms: C_11  and  S_12
REMARK    4  A    between atoms: N_13  and  C_14
REMARK    5  A    between atoms: C_14  and  C_15
REMARK    6  A    between atoms: C_15  and  C_16
REMARK    7  A    between atoms: C_15  and  C_17
REMARK    8  A    between atoms: C_23  and  C_24
REMARK                            x       y       z     vdW  Elec       q    Type
REMARK                         _______ _______ _______ _____ _____    ______ ____
ROOT
ATOM      1  C   UNL     1       7.148   6.506  17.233  0.00  0.00    +0.000 C 
ATOM      2  C   UNL     1       5.684   6.694  16.826  0.00  0.00    +0.000 C 
ATOM      3  C   UNL     1       4.755   6.839  18.031  0.00  0.00    +0.000 C 
ATOM      4  N   UNL     1       4.916   5.692  18.919  0.00  0.00    +0.000 N 
ATOM      5  C   UNL     1       3.913   4.827  19.328  0.00  0.00    +0.000 C 
ATOM      6  N   UNL     1       4.199   3.627  19.707  0.00  0.00    +0.000 NA
ATOM      7  C   UNL     1       6.286   5.515  19.423  0.00  0.00    +0.000 C 
ATOM      8  C   UNL     1       7.274   5.377  18.264  0.00  0.00    +0.000 C 
ENDROOT
BRANCH   1  14
ATOM      9  C   UNL     1      10.686  12.148  20.495  0.00  0.00    +0.000 C 
ATOM     10  C   UNL     1       9.794  11.403  19.538  0.00  0.00    +0.000 A 
ATOM     11  C   UNL     1       9.653  10.009  19.691  0.00  0.00    +0.000 A 
ATOM     12  C   UNL     1       8.836   9.297  18.804  0.00  0.00    +0.000 A 
ATOM     13  N   UNL     1       8.546   7.958  18.757  0.00  0.00    +0.000 NA
ATOM     14  C   UNL     1       7.748   7.795  17.721  0.00  0.00    +0.000 A 
ATOM     15  N   UNL     1       7.499   9.002  17.113  0.00  0.00    +0.000 N 
ATOM     16  C   UNL     1       8.183   9.977  17.787  0.00  0.00    +0.000 A 
ATOM     17  C   UNL     1       8.288  11.358  17.603  0.00  0.00    +0.000 A 
ATOM     18  C   UNL     1       9.108  12.073  18.499  0.00  0.00    +0.000 A 
ATOM     19  C   UNL     1       9.232  13.565  18.326  0.00  0.00    +0.000 C 
ATOM     20  H   UNL     1       6.912   9.146  16.300  0.00  0.00    +0.000 HD
ENDBRANCH   1  14
BRANCH   5  21
ATOM     21  S   UNL     1       2.249   5.425  19.339  0.00  0.00    +0.000 S 
ATOM     22  H   UNL     1       1.946   5.117  18.074  0.00  0.00    +0.000 HD
ENDBRANCH   5  21
BRANCH   6  23
ATOM     23  C   UNL     1       3.170   2.693  20.154  0.00  0.00    +0.000 C 
BRANCH  23  24
ATOM     24  C   UNL     1       2.682   1.841  18.968  0.00  0.00    +0.000 C 
ATOM     25  C   UNL     1       1.230   2.153  18.605  0.00  0.00    +0.000 C 
ATOM     26  C   UNL     1       3.591   1.992  17.748  0.00  0.00    +0.000 C 
ENDBRANCH  23  24
ENDBRANCH   6  23
TORSDOF 4
ENDMDL
MODEL 4
REMARK VINA RESULT:      -7.0      0.120      1.467
REMARK  Name = 
REMARK  8 active torsions:
REMARK  status: ('A' for Active; 'I' for Inactive)
REMARK    1  A    between atoms: C_1  and  C_2
REMARK    2  A    between atoms: C_6  and  C_7
REMARK    3  A    between atoms: C_11  and  S_12
REMARK    4  A    between atoms: N_13  and  C_14
REMARK    5  A    between atoms: C_14  and  C_15
REMARK    6  A    between atoms: C_15  and  C_16
REMARK    7  A    between atoms: C_15  and  C_17
REMARK    8  A    between atoms: C_23  and  C_24
REMARK                            x       y       z     vdW  Elec       q    Type
REMARK                         _______ _______ _______ _____ _____    ______ ____
ROOT
ATOM      1  C   UNL     1       7.528   6.379  17.292  0.00  0.00    +0.000 C 
ATOM      2  C   UNL     1       6.239   6.493  16.473  0.00  0.00    +0.000 C 
ATOM      3  C   UNL     1       5.010   6.735  17.349  0.00  0.00    +0.000 C 
ATOM      4  N   UNL     1       4.908   5.684  18.358  0.00  0.00    +0.000 N 
ATOM      5  C   UNL     1       3.826   4.841  18.553  0.00  0.00    +0.000 C 
ATOM      6  N   UNL     1       3.986   3.690  19.116  0.00  0.00    +0.000 NA
ATOM      7  C   UNL     1       6.080   5.589  19.241  0.00  0.00    +0.000 C 
ATOM      8  C   UNL     1       7.353   5.360  18.424  0.00  0.00    +0.000 C 
ENDROOT
BRANCH   1  14
ATOM      9  C   UNL     1      10.303  12.358  20.689  0.00  0.00    +0.000 C 
ATOM     10  C   UNL     1       9.553  11.524  19.685  0.00  0.00    +0.000 A 
ATOM     11  C   UNL     1       9.524  10.124  19.855  0.00  0.00    +0.000 A 
ATOM     12  C   UNL     1       8.843   9.331  18.925  0.00  0.00    +0.000 A 
ATOM     13  N   UNL     1       8.675   7.970  18.884  0.00  0.00    +0.000 NA
ATOM     14  C   UNL     1       7.974   7.723  17.795  0.00  0.00    +0.000 A 
ATOM     15  N   UNL     1       7.667   8.895  17.147  0.00  0.00    +0.000 N 
ATOM     16  C   UNL     1       8.210   9.936  17.849  0.00  0.00    +0.000 A 
ATOM     17  C   UNL     1       8.207  11.318  17.646  0.00  0.00    +0.000 A 
ATOM     18  C   UNL     1       8.892  12.115  18.585  0.00  0.00    +0.000 A 
ATOM     19  C   UNL     1       8.897  13.610  18.392  0.00  0.00    +0.000 C 
ATOM     20  H   UNL     1       7.132   8.974  16.290  0.00  0.00    +0.000 HD
ENDBRANCH   1  14
BRANCH   5  21
ATOM     21  S   UNL     1       2.229   5.399  18.038  0.00  0.00    +0.000 S 
ATOM     22  H   UNL     1       1.518   4.802  18.999  0.00  0.00    +0.000 HD
ENDBRANCH   5  21
BRANCH   6  23
ATOM     23  C   UNL     1       2.868   2.781  19.348  0.00  0.00    +0.000 C 
BRANCH  23  24
ATOM     24  C   UNL     1       2.031   3.271  20.544  0.00  0.00    +0.000 C 
ATOM     25  C   UNL     1       0.531   3.198  20.253  0.00  0.00    +0.000 C 
ATOM     26  C   UNL     1       2.373   2.511  21.825  0.00  0.00    +0.000 C 
ENDBRANCH  23  24
ENDBRANCH   6  23
TORSDOF 4
ENDMDL
MODEL 5
REMARK VINA RESULT:      -6.8      4.825      7.188
REMARK  Name = 
REMARK  8 active torsions:
REMARK  status: ('A' for Active; 'I' for Inactive)
REMARK    1  A    between atoms: C_1  and  C_2
REMARK    2  A    between atoms: C_6  and  C_7
REMARK    3  A    between atoms: C_11  and  S_12
REMARK    4  A    between atoms: N_13  and  C_14
REMARK    5  A    between atoms: C_14  and  C_15
REMARK    6  A    between atoms: C_15  and  C_16
REMARK    7  A    between atoms: C_15  and  C_17
REMARK    8  A    between atoms: C_23  and  C_24
REMARK                            x       y       z     vdW  Elec       q    Type
REMARK                         _______ _______ _______ _____ _____    ______ ____
ROOT
ATOM      1  C   UNL     1       2.370   5.183  19.617  0.00  0.00    +0.000 C 
ATOM      2  C   UNL     1       3.809   4.972  20.094  0.00  0.00    +0.000 C 
ATOM      3  C   UNL     1       4.824   5.739  19.246  0.00  0.00    +0.000 C 
ATOM      4  N   UNL     1       4.672   5.374  17.841  0.00  0.00    +0.000 N 
ATOM      5  C   UNL     1       5.658   4.853  17.020  0.00  0.00    +0.000 C 
ATOM      6  N   UNL     1       5.344   4.149  15.985  0.00  0.00    +0.000 NA
ATOM      7  C   UNL     1       3.332   5.644  17.297  0.00  0.00    +0.000 C 
ATOM      8  C   UNL     1       2.262   4.915  18.111  0.00  0.00    +0.000 C 
ENDROOT
BRANCH   1  14
ATOM      9  C   UNL     1       0.346  12.278  20.359  0.00  0.00    +0.000 C 
ATOM     10  C   UNL     1       0.527  10.819  20.683  0.00  0.00    +0.000 A 
ATOM     11  C   UNL     1       1.211  10.001  19.759  0.00  0.00    +0.000 A 
ATOM     12  C   UNL     1       1.379   8.640  20.037  0.00  0.00    +0.000 A 
ATOM     13  N   UNL     1       2.003   7.663  19.304  0.00  0.00    +0.000 NA
ATOM     14  C   UNL     1       1.866   6.548  19.992  0.00  0.00    +0.000 A 
ATOM     15  N   UNL     1       1.187   6.788  21.163  0.00  0.00    +0.000 N 
ATOM     16  C   UNL     1       0.867   8.117  21.214  0.00  0.00    +0.000 A 
ATOM     17  C   UNL     1       0.189   8.891  22.160  0.00  0.00    +0.000 A 
ATOM     18  C   UNL     1       0.023  10.263  21.880  0.00  0.00    +0.000 A 
ATOM     19  C   UNL     1      -0.697  11.121  22.888  0.00  0.00    +0.000 C 
ATOM     20  H   UNL     1       0.959   6.097  21.868  0.00  0.00    +0.000 HD
ENDBRANCH   1  14
BRANCH   5  21
ATOM     21  S   UNL     1       7.346   5.204  17.417  0.00  0.00    +0.000 S 
ATOM     22  H   UNL     1       7.585   4.107  18.141  0.00  0.00    +0.000 HD
ENDBRANCH   5  21
BRANCH   6  23
ATOM     23  C   UNL     1       6.356   3.594  15.092  0.00  0.00    +0.000 C 
BRANCH  23  24
ATOM     24  C   UNL     1       6.321   4.324  13.737  0.00  0.00    +0.000 C 
ATOM     25  C   UNL     1       7.620   5.085  13.469  0.00  0.00    +0.000 C 
ATOM     26  C   UNL     1       6.003   3.370  12.585  0.00  0.00    +0.000 C 
ENDBRANCH  23  24
ENDBRANCH   6  23
TORSDOF 4
ENDMDL
MODEL 6
REMARK VINA RESULT:      -6.7      4.936      7.151
REMARK  Name = 
REMARK  8 active torsions:
REMARK  status: ('A' for Active; 'I' for Inactive)
REMARK    1  A    between atoms: C_1  and  C_2
REMARK    2  A    between atoms: C_6  and  C_7
REMARK    3  A    between atoms: C_11  and  S_12
REMARK    4  A    between atoms: N_13  and  C_14
REMARK    5  A    between atoms: C_14  and  C_15
REMARK    6  A    between atoms: C_15  and  C_16
REMARK    7  A    between atoms: C_15  and  C_17
REMARK    8  A    between atoms: C_23  and  C_24
REMARK                            x       y       z     vdW  Elec       q    Type
REMARK                         _______ _______ _______ _____ _____    ______ ____
ROOT
ATOM      1  C   UNL     1       4.887   4.361  17.987  0.00  0.00    +0.000 C 
ATOM      2  C   UNL     1       6.297   4.879  17.692  0.00  0.00    +0.000 C 
ATOM      3  C   UNL     1       6.367   5.673  16.388  0.00  0.00    +0.000 C 
ATOM      4  N   UNL     1       5.859   4.861  15.286  0.00  0.00    +0.000 N 
ATOM      5  C   UNL     1       6.545   4.532  14.128  0.00  0.00    +0.000 C 
ATOM      6  N   UNL     1       6.226   3.478  13.455  0.00  0.00    +0.000 NA
ATOM      7  C   UNL     1       4.470   4.412  15.468  0.00  0.00    +0.000 C 
ATOM      8  C   UNL     1       4.325   3.619  16.767  0.00  0.00    +0.000 C 
ENDROOT
BRANCH   1  14
ATOM      9  C   UNL     1       0.405   9.217  21.353  0.00  0.00    +0.000 C 
ATOM     10  C   UNL     1       1.241   8.576  20.277  0.00  0.00    +0.000 A 
ATOM     11  C   UNL     1       1.890   7.356  20.562  0.00  0.00    +0.000 A 
ATOM     12  C   UNL     1       2.681   6.751  19.578  0.00  0.00    +0.000 A 
ATOM     13  N   UNL     1       3.394   5.580  19.620  0.00  0.00    +0.000 NA
ATOM     14  C   UNL     1       3.983   5.470  18.447  0.00  0.00    +0.000 A 
ATOM     15  N   UNL     1       3.647   6.532  17.641  0.00  0.00    +0.000 N 
ATOM     16  C   UNL     1       2.816   7.363  18.341  0.00  0.00    +0.000 A 
ATOM     17  C   UNL     1       2.187   8.567  18.014  0.00  0.00    +0.000 A 
ATOM     18  C   UNL     1       1.388   9.174  19.005  0.00  0.00    +0.000 A 
ATOM     19  C   UNL     1       0.692  10.469  18.674  0.00  0.00    +0.000 C 
ATOM     20  H   UNL     1       3.966   6.678  16.691  0.00  0.00    +0.000 HD
ENDBRANCH   1  14
BRANCH   5  21
ATOM     21  S   UNL     1       7.842   5.609  13.592  0.00  0.00    +0.000 S 
ATOM     22  H   UNL     1       8.483   5.703  14.761  0.00  0.00    +0.000 HD
ENDBRANCH   5  21
BRANCH   6  23
ATOM     23  C   UNL     1       6.919   3.107  12.226  0.00  0.00    +0.000 C 
BRANCH  23  24
ATOM     24  C   UNL     1       5.927   2.481  11.230  0.00  0.00    +0.000 C 
ATOM     25  C   UNL     1       5.994   0.953  11.247  0.00  0.00    +0.000 C 
ATOM     26  C   UNL     1       4.497   2.963  11.474  0.00  0.00    +0.000 C 
ENDBRANCH  23  24
ENDBRANCH   6  23
TORSDOF 4
ENDMDL
MODEL 7
REMARK VINA RESULT:      -6.6      4.931      7.058
REMARK  Name = 
REMARK  8 active torsions:
REMARK  status: ('A' for Active; 'I' for Inactive)
REMARK    1  A    between atoms: C_1  and  C_2
REMARK    2  A    between atoms: C_6  and  C_7
REMARK    3  A    between atoms: C_11  and  S_12
REMARK    4  A    between atoms: N_13  and  C_14
REMARK    5  A    between atoms: C_14  and  C_15
REMARK    6  A    between atoms: C_15  and  C_16
REMARK    7  A    between atoms: C_15  and  C_17
REMARK    8  A    between atoms: C_23  and  C_24
REMARK                            x       y       z     vdW  Elec       q    Type
REMARK                         _______ _______ _______ _____ _____    ______ ____
ROOT
ATOM      1  C   UNL     1       4.926   4.495  17.896  0.00  0.00    +0.000 C 
ATOM      2  C   UNL     1       6.330   5.013  17.578  0.00  0.00    +0.000 C 
ATOM      3  C   UNL     1       6.391   5.757  16.244  0.00  0.00    +0.000 C 
ATOM      4  N   UNL     1       5.888   4.898  15.176  0.00  0.00    +0.000 N 
ATOM      5  C   UNL     1       6.575   4.530  14.030  0.00  0.00    +0.000 C 
ATOM      6  N   UNL     1       6.264   3.448  13.400  0.00  0.00    +0.000 NA
ATOM      7  C   UNL     1       4.504   4.444  15.378  0.00  0.00    +0.000 C 
ATOM      8  C   UNL     1       4.368   3.701  16.708  0.00  0.00    +0.000 C 
ENDROOT
BRANCH   1  14
ATOM      9  C   UNL     1       0.634  10.473  18.813  0.00  0.00    +0.000 C 
ATOM     10  C   UNL     1       1.340   9.179  19.121  0.00  0.00    +0.000 A 
ATOM     11  C   UNL     1       2.180   8.616  18.138  0.00  0.00    +0.000 A 
ATOM     12  C   UNL     1       2.835   7.408  18.401  0.00  0.00    +0.000 A 
ATOM     13  N   UNL     1       3.692   6.682  17.614  0.00  0.00    +0.000 NA
ATOM     14  C   UNL     1       4.013   5.613  18.315  0.00  0.00    +0.000 A 
ATOM     15  N   UNL     1       3.401   5.646  19.545  0.00  0.00    +0.000 N 
ATOM     16  C   UNL     1       2.644   6.783  19.624  0.00  0.00    +0.000 A 
ATOM     17  C   UNL     1       1.827   7.308  20.628  0.00  0.00    +0.000 A 
ATOM     18  C   UNL     1       1.170   8.526  20.363  0.00  0.00    +0.000 A 
ATOM     19  C   UNL     1       0.289   9.117  21.434  0.00  0.00    +0.000 C 
ATOM     20  H   UNL     1       3.492   4.944  20.270  0.00  0.00    +0.000 HD
ENDBRANCH   1  14
BRANCH   5  21
ATOM     21  S   UNL     1       7.861   5.597  13.450  0.00  0.00    +0.000 S 
ATOM     22  H   UNL     1       7.148   6.727  13.421  0.00  0.00    +0.000 HD
ENDBRANCH   5  21
BRANCH   6  23
ATOM     23  C   UNL     1       6.958   3.036  12.184  0.00  0.00    +0.000 C 
BRANCH  23  24
ATOM     24  C   UNL     1       5.961   2.402  11.197  0.00  0.00    +0.000 C 
ATOM     25  C   UNL     1       6.038   0.875  11.215  0.00  0.00    +0.000 C 
ATOM     26  C   UNL     1       4.530   2.876  11.453  0.00  0.00    +0.000 C 
ENDBRANCH  23  24
ENDBRANCH   6  23
TORSDOF 4
ENDMDL
MODEL 8
REMARK VINA RESULT:      -6.6      4.857      7.247
REMARK  Name = 
REMARK  8 active torsions:
REMARK  status: ('A' for Active; 'I' for Inactive)
REMARK    1  A    between atoms: C_1  and  C_2
REMARK    2  A    between atoms: C_6  and  C_7
REMARK    3  A    between atoms: C_11  and  S_12
REMARK    4  A    between atoms: N_13  and  C_14
REMARK    5  A    between atoms: C_14  and  C_15
REMARK    6  A    between atoms: C_15  and  C_16
REMARK    7  A    between atoms: C_15  and  C_17
REMARK    8  A    between atoms: C_23  and  C_24
REMARK                            x       y       z     vdW  Elec       q    Type
REMARK                         _______ _______ _______ _____ _____    ______ ____
ROOT
ATOM      1  C   UNL     1       2.322   5.065  19.615  0.00  0.00    +0.000 C 
ATOM      2  C   UNL     1       3.751   4.833  20.112  0.00  0.00    +0.000 C 
ATOM      3  C   UNL     1       4.784   5.627  19.313  0.00  0.00    +0.000 C 
ATOM      4  N   UNL     1       4.659   5.313  17.893  0.00  0.00    +0.000 N 
ATOM      5  C   UNL     1       5.660   4.819  17.073  0.00  0.00    +0.000 C 
ATOM      6  N   UNL     1       5.365   4.154  16.007  0.00  0.00    +0.000 NA
ATOM      7  C   UNL     1       3.331   5.607  17.333  0.00  0.00    +0.000 C 
ATOM      8  C   UNL     1       2.243   4.852  18.098  0.00  0.00    +0.000 C 
ENDROOT
BRANCH   1  14
ATOM      9  C   UNL     1      -0.582  11.151  22.701  0.00  0.00    +0.000 C 
ATOM     10  C   UNL     1       0.116  10.270  21.699  0.00  0.00    +0.000 A 
ATOM     11  C   UNL     1       0.244   8.894  21.983  0.00  0.00    +0.000 A 
ATOM     12  C   UNL     1       0.901   8.061  21.069  0.00  0.00    +0.000 A 
ATOM     13  N   UNL     1       1.141   6.712  21.124  0.00  0.00    +0.000 NA
ATOM     14  C   UNL     1       1.813   6.417  20.029  0.00  0.00    +0.000 A 
ATOM     15  N   UNL     1       1.991   7.541  19.259  0.00  0.00    +0.000 N 
ATOM     16  C   UNL     1       1.417   8.604  19.902  0.00  0.00    +0.000 A 
ATOM     17  C   UNL     1       1.306   9.958  19.578  0.00  0.00    +0.000 A 
ATOM     18  C   UNL     1       0.642  10.795  20.497  0.00  0.00    +0.000 A 
ATOM     19  C   UNL     1       0.502  12.259  20.167  0.00  0.00    +0.000 C 
ATOM     20  H   UNL     1       2.471   7.579  18.368  0.00  0.00    +0.000 HD
ENDBRANCH   1  14
BRANCH   5  21
ATOM     21  S   UNL     1       7.340   5.151  17.516  0.00  0.00    +0.000 S 
ATOM     22  H   UNL     1       7.097   6.106  18.417  0.00  0.00    +0.000 HD
ENDBRANCH   5  21
BRANCH   6  23
ATOM     23  C   UNL     1       6.393   3.629  15.115  0.00  0.00    +0.000 C 
BRANCH  23  24
ATOM     24  C   UNL     1       6.330   4.349  13.756  0.00  0.00    +0.000 C 
ATOM     25  C   UNL     1       7.625   5.103  13.453  0.00  0.00    +0.000 C 
ATOM     26  C   UNL     1       5.983   3.388  12.619  0.00  0.00    +0.000 C 
ENDBRANCH  23  24
ENDBRANCH   6  23
TORSDOF 4
ENDMDL
MODEL 9
REMARK VINA RESULT:      -6.6      4.068      7.042
REMARK  Name = 
REMARK  8 active torsions:
REMARK  status: ('A' for Active; 'I' for Inactive)
REMARK    1  A    between atoms: C_1  and  C_2
REMARK    2  A    between atoms: C_6  and  C_7
REMARK    3  A    between atoms: C_11  and  S_12
REMARK    4  A    between atoms: N_13  and  C_14
REMARK    5  A    between atoms: C_14  and  C_15
REMARK    6  A    between atoms: C_15  and  C_16
REMARK    7  A    between atoms: C_15  and  C_17
REMARK    8  A    between atoms: C_23  and  C_24
REMARK                            x       y       z     vdW  Elec       q    Type
REMARK                         _______ _______ _______ _____ _____    ______ ____
ROOT
ATOM      1  C   UNL     1       6.168   6.192  17.637  0.00  0.00    +0.000 C 
ATOM      2  C   UNL     1       5.878   5.168  18.737  0.00  0.00    +0.000 C 
ATOM      3  C   UNL     1       4.421   4.708  18.738  0.00  0.00    +0.000 C 
ATOM      4  N   UNL     1       3.537   5.865  18.844  0.00  0.00    +0.000 N 
ATOM      5  C   UNL     1       2.581   6.078  19.824  0.00  0.00    +0.000 C 
ATOM      6  N   UNL     1       2.191   7.274  20.109  0.00  0.00    +0.000 NA
ATOM      7  C   UNL     1       3.702   6.842  17.757  0.00  0.00    +0.000 C 
ATOM      8  C   UNL     1       5.148   7.336  17.690  0.00  0.00    +0.000 C 
ENDROOT
BRANCH   1  14
ATOM      9  C   UNL     1       7.655   3.317  10.965  0.00  0.00    +0.000 C 
ATOM     10  C   UNL     1       6.880   3.704  12.197  0.00  0.00    +0.000 A 
ATOM     11  C   UNL     1       7.539   4.431  13.209  0.00  0.00    +0.000 A 
ATOM     12  C   UNL     1       6.838   4.790  14.367  0.00  0.00    +0.000 A 
ATOM     13  N   UNL     1       7.258   5.490  15.469  0.00  0.00    +0.000 NA
ATOM     14  C   UNL     1       6.225   5.539  16.285  0.00  0.00    +0.000 A 
ATOM     15  N   UNL     1       5.141   4.906  15.724  0.00  0.00    +0.000 N 
ATOM     16  C   UNL     1       5.508   4.420  14.499  0.00  0.00    +0.000 A 
ATOM     17  C   UNL     1       4.814   3.706  13.518  0.00  0.00    +0.000 A 
ATOM     18  C   UNL     1       5.521   3.348  12.352  0.00  0.00    +0.000 A 
ATOM     19  C   UNL     1       4.793   2.585  11.276  0.00  0.00    +0.000 C 
ATOM     20  H   UNL     1       4.226   4.811  16.148  0.00  0.00    +0.000 HD
ENDBRANCH   1  14
BRANCH   5  21
ATOM     21  S   UNL     1       1.898   4.666  20.643  0.00  0.00    +0.000 S 
ATOM     22  H   UNL     1       1.790   3.879  19.569  0.00  0.00    +0.000 HD
ENDBRANCH   5  21
BRANCH   6  23
ATOM     23  C   UNL     1       1.178   7.534  21.127  0.00  0.00    +0.000 C 
BRANCH  23  24
ATOM     24  C   UNL     1       1.033   9.050  21.351  0.00  0.00    +0.000 C 
ATOM     25  C   UNL     1       0.681   9.784  20.056  0.00  0.00    +0.000 C 
ATOM     26  C   UNL     1       0.017   9.368  22.448  0.00  0.00    +0.000 C 
ENDBRANCH  23  24
ENDBRANCH   6  23
TORSDOF 4
ENDMDL
