MODEL 1
REMARK VINA RESULT:      -7.6      0.000      0.000
REMARK  Name = 
REMARK  5 active torsions:
REMARK  status: ('A' for Active; 'I' for Inactive)
REMARK    1  A    between atoms: C_1  and  O_2
REMARK    2  A    between atoms: O_2  and  C_3
REMARK    3  A    between atoms: C_9  and  C_10
REMARK    4  A    between atoms: C_13  and  S_14
REMARK    5  A    between atoms: N_15  and  C_16
REMARK                            x       y       z     vdW  Elec       q    Type
REMARK                         _______ _______ _______ _____ _____    ______ ____
ROOT
ATOM      1  C   UNL     1       4.032   6.316  17.942  0.00  0.00    +0.000 A 
ATOM      2  N   UNL     1       3.738   7.543  17.544  0.00  0.00    +0.000 NA
ATOM      3  N   UNL     1       2.767   8.060  18.326  0.00  0.00    +0.000 NA
ATOM      4  C   UNL     1       2.482   7.176  19.242  0.00  0.00    +0.000 A 
ATOM      5  N   UNL     1       3.217   6.016  19.063  0.00  0.00    +0.000 N 
ENDROOT
BRANCH   1  12
ATOM      6  C   UNL     1       6.296   5.187  17.791  0.00  0.00    +0.000 A 
ATOM      7  C   UNL     1       7.285   4.522  17.048  0.00  0.00    +0.000 A 
ATOM      8  C   UNL     1       7.035   4.134  15.737  0.00  0.00    +0.000 A 
ATOM      9  C   UNL     1       5.781   4.357  15.187  0.00  0.00    +0.000 A 
ATOM     10 CL   UNL     1       5.486   3.941  13.543  0.00  0.00    +0.000 Cl
ATOM     11  C   UNL     1       4.772   4.975  15.933  0.00  0.00    +0.000 A 
ATOM     12  C   UNL     1       5.031   5.500  17.208  0.00  0.00    +0.000 A 
BRANCH   6  14
ATOM     13  C   UNL     1       7.935   5.871  19.370  0.00  0.00    +0.000 C 
ATOM     14  O   UNL     1       6.562   5.618  19.071  0.00  0.00    +0.000 OA
ENDBRANCH   6  14
ENDBRANCH   1  12
BRANCH   5  15
ATOM     15  C   UNL     1       3.298   4.819  19.924  0.00  0.00    +0.000 C 
ATOM     16  C   UNL     1       2.173   4.508  20.944  0.00  0.00    +0.000 C 
ATOM     17  C   UNL     1       0.905   3.907  20.322  0.00  0.00    +0.000 C 
ATOM     18  C   UNL     1       1.179   2.690  19.449  0.00  0.00    +0.000 C 
ATOM     19  C   UNL     1       2.334   2.919  18.487  0.00  0.00    +0.000 C 
ATOM     20  C   UNL     1       3.558   3.470  19.199  0.00  0.00    +0.000 C 
ENDBRANCH   5  15
BRANCH   4  21
ATOM     21  S   UNL     1       1.346   7.597  20.475  0.00  0.00    +0.000 S 
ATOM     22  H   UNL     1       0.357   7.960  19.645  0.00  0.00    +0.000 HD
ENDBRANCH   4  21
TORSDOF 4
ENDMDL
MODEL 2
REMARK VINA RESULT:      -6.9      2.167      3.143
REMARK  Name = 
REMARK  5 active torsions:
REMARK  status: ('A' for Active; 'I' for Inactive)
REMARK    1  A    between atoms: C_1  and  O_2
REMARK    2  A    between atoms: O_2  and  C_3
REMARK    3  A    between atoms: C_9  and  C_10
REMARK    4  A    between atoms: C_13  and  S_14
REMARK    5  A    between atoms: N_15  and  C_16
REMARK                            x       y       z     vdW  Elec       q    Type
REMARK                         _______ _______ _______ _____ _____    ______ ____
ROOT
ATOM      1  C   UNL     1       4.566   3.397  18.961  0.00  0.00    +0.000 A 
ATOM      2  N   UNL     1       5.107   2.464  19.728  0.00  0.00    +0.000 NA
ATOM      3  N   UNL     1       4.249   2.125  20.713  0.00  0.00    +0.000 NA
ATOM      4  C   UNL     1       3.153   2.810  20.540  0.00  0.00    +0.000 A 
ATOM      5  N   UNL     1       3.268   3.673  19.463  0.00  0.00    +0.000 N 
ENDROOT
BRANCH   1  12
ATOM      6  C   UNL     1       6.384   4.923  18.074  0.00  0.00    +0.000 A 
ATOM      7  C   UNL     1       7.020   5.577  17.007  0.00  0.00    +0.000 A 
ATOM      8  C   UNL     1       6.650   5.304  15.696  0.00  0.00    +0.000 A 
ATOM      9  C   UNL     1       5.686   4.338  15.447  0.00  0.00    +0.000 A 
ATOM     10 CL   UNL     1       5.173   4.043  13.831  0.00  0.00    +0.000 Cl
ATOM     11  C   UNL     1       5.078   3.645  16.499  0.00  0.00    +0.000 A 
ATOM     12  C   UNL     1       5.330   3.991  17.835  0.00  0.00    +0.000 A 
BRANCH   6  14
ATOM     13  C   UNL     1       7.988   5.849  19.563  0.00  0.00    +0.000 C 
ATOM     14  O   UNL     1       6.714   5.234  19.374  0.00  0.00    +0.000 OA
ENDBRANCH   6  14
ENDBRANCH   1  12
BRANCH   5  15
ATOM     15  C   UNL     1       2.244   4.539  18.846  0.00  0.00    +0.000 C 
ATOM     16  C   UNL     1       1.099   5.136  19.704  0.00  0.00    +0.000 C 
ATOM     17  C   UNL     1       1.516   6.337  20.564  0.00  0.00    +0.000 C 
ATOM     18  C   UNL     1       2.211   7.436  19.771  0.00  0.00    +0.000 C 
ATOM     19  C   UNL     1       3.288   6.886  18.849  0.00  0.00    +0.000 C 
ATOM     20  C   UNL     1       2.772   5.734  18.005  0.00  0.00    +0.000 C 
ENDBRANCH   5  15
BRANCH   4  21
ATOM     21  S   UNL     1       1.810   2.505  21.585  0.00  0.00    +0.000 S 
ATOM     22  H   UNL     1       2.523   1.960  22.583  0.00  0.00    +0.000 HD
ENDBRANCH   4  21
TORSDOF 4
ENDMDL
MODEL 3
REMARK VINA RESULT:      -6.7      1.288      1.502
REMARK  Name = 
REMARK  5 active torsions:
REMARK  status: ('A' for Active; 'I' for Inactive)
REMARK    1  A    between atoms: C_1  and  O_2
REMARK    2  A    between atoms: O_2  and  C_3
REMARK    3  A    between atoms: C_9  and  C_10
REMARK    4  A    between atoms: C_13  and  S_14
REMARK    5  A    between atoms: N_15  and  C_16
REMARK                            x       y       z     vdW  Elec       q    Type
REMARK                         _______ _______ _______ _____ _____    ______ ____
ROOT
ATOM      1  C   UNL     1       4.269   5.591  17.401  0.00  0.00    +0.000 A 
ATOM      2  N   UNL     1       3.965   6.870  17.545  0.00  0.00    +0.000 NA
ATOM      3  N   UNL     1       3.046   7.017  18.523  0.00  0.00    +0.000 NA
ATOM      4  C   UNL     1       2.806   5.837  19.023  0.00  0.00    +0.000 A 
ATOM      5  N   UNL     1       3.517   4.856  18.353  0.00  0.00    +0.000 N 
ENDROOT
BRANCH   1  12
ATOM      6  C   UNL     1       6.620   5.368  16.480  0.00  0.00    +0.000 A 
ATOM      7  C   UNL     1       7.498   5.064  15.427  0.00  0.00    +0.000 A 
ATOM      8  C   UNL     1       7.013   4.519  14.244  0.00  0.00    +0.000 A 
ATOM      9  C   UNL     1       5.663   4.223  14.134  0.00  0.00    +0.000 A 
ATOM     10 CL   UNL     1       5.044   3.612  12.648  0.00  0.00    +0.000 Cl
ATOM     11  C   UNL     1       4.785   4.477  15.192  0.00  0.00    +0.000 A 
ATOM     12  C   UNL     1       5.216   5.150  16.345  0.00  0.00    +0.000 A 
BRANCH   6  14
ATOM     13  C   UNL     1       7.555   7.301  17.497  0.00  0.00    +0.000 C 
ATOM     14  O   UNL     1       7.093   5.957  17.630  0.00  0.00    +0.000 OA
ENDBRANCH   6  14
ENDBRANCH   1  12
BRANCH   5  15
ATOM     15  C   UNL     1       3.636   3.416  18.656  0.00  0.00    +0.000 C 
ATOM     16  C   UNL     1       3.682   2.924  20.126  0.00  0.00    +0.000 C 
ATOM     17  C   UNL     1       2.318   2.904  20.829  0.00  0.00    +0.000 C 
ATOM     18  C   UNL     1       1.249   2.146  20.052  0.00  0.00    +0.000 C 
ATOM     19  C   UNL     1       1.222   2.535  18.582  0.00  0.00    +0.000 C 
ATOM     20  C   UNL     1       2.608   2.481  17.960  0.00  0.00    +0.000 C 
ENDBRANCH   5  15
BRANCH   4  21
ATOM     21  S   UNL     1       1.748   5.713  20.385  0.00  0.00    +0.000 S 
ATOM     22  H   UNL     1       1.692   7.028  20.646  0.00  0.00    +0.000 HD
ENDBRANCH   4  21
TORSDOF 4
ENDMDL
MODEL 4
REMARK VINA RESULT:      -6.0      1.892      3.182
REMARK  Name = 
REMARK  5 active torsions:
REMARK  status: ('A' for Active; 'I' for Inactive)
REMARK    1  A    between atoms: C_1  and  O_2
REMARK    2  A    between atoms: O_2  and  C_3
REMARK    3  A    between atoms: C_9  and  C_10
REMARK    4  A    between atoms: C_13  and  S_14
REMARK    5  A    between atoms: N_15  and  C_16
REMARK                            x       y       z     vdW  Elec       q    Type
REMARK                         _______ _______ _______ _____ _____    ______ ____
ROOT
ATOM      1  C   UNL     1       4.320   3.561  18.199  0.00  0.00    +0.000 A 
ATOM      2  N   UNL     1       3.823   2.340  18.312  0.00  0.00    +0.000 NA
ATOM      3  N   UNL     1       3.018   2.270  19.393  0.00  0.00    +0.000 NA
ATOM      4  C   UNL     1       2.974   3.456  19.934  0.00  0.00    +0.000 A 
ATOM      5  N   UNL     1       3.797   4.343  19.260  0.00  0.00    +0.000 N 
ENDROOT
BRANCH   1  12
ATOM      6  C   UNL     1       6.601   4.353  17.431  0.00  0.00    +0.000 A 
ATOM      7  C   UNL     1       7.470   4.780  16.414  0.00  0.00    +0.000 A 
ATOM      8  C   UNL     1       7.071   4.731  15.083  0.00  0.00    +0.000 A 
ATOM      9  C   UNL     1       5.829   4.203  14.764  0.00  0.00    +0.000 A 
ATOM     10 CL   UNL     1       5.299   4.202  13.126  0.00  0.00    +0.000 Cl
ATOM     11  C   UNL     1       4.973   3.730  15.764  0.00  0.00    +0.000 A 
ATOM     12  C   UNL     1       5.288   3.888  17.121  0.00  0.00    +0.000 A 
BRANCH   6  14
ATOM     13  C   UNL     1       7.830   5.549  19.076  0.00  0.00    +0.000 C 
ATOM     14  O   UNL     1       6.977   4.451  18.751  0.00  0.00    +0.000 OA
ENDBRANCH   6  14
ENDBRANCH   1  12
BRANCH   5  15
ATOM     15  C   UNL     1       3.960   5.797  19.454  0.00  0.00    +0.000 C 
ATOM     16  C   UNL     1       4.547   6.679  18.322  0.00  0.00    +0.000 C 
ATOM     17  C   UNL     1       3.558   6.996  17.192  0.00  0.00    +0.000 C 
ATOM     18  C   UNL     1       2.241   7.579  17.688  0.00  0.00    +0.000 C 
ATOM     19  C   UNL     1       1.669   6.794  18.858  0.00  0.00    +0.000 C 
ATOM     20  C   UNL     1       2.705   6.569  19.946  0.00  0.00    +0.000 C 
ENDBRANCH   5  15
BRANCH   4  21
ATOM     21  S   UNL     1       1.923   3.714  21.282  0.00  0.00    +0.000 S 
ATOM     22  H   UNL     1       0.997   4.417  20.612  0.00  0.00    +0.000 HD
ENDBRANCH   4  21
TORSDOF 4
ENDMDL
MODEL 5
REMARK VINA RESULT:      -5.8      1.113      1.769
REMARK  Name = 
REMARK  5 active torsions:
REMARK  status: ('A' for Active; 'I' for Inactive)
REMARK    1  A    between atoms: C_1  and  O_2
REMARK    2  A    between atoms: O_2  and  C_3
REMARK    3  A    between atoms: C_9  and  C_10
REMARK    4  A    between atoms: C_13  and  S_14
REMARK    5  A    between atoms: N_15  and  C_16
REMARK                            x       y       z     vdW  Elec       q    Type
REMARK                         _______ _______ _______ _____ _____    ______ ____
ROOT
ATOM      1  C   UNL     1       3.921   5.503  18.149  0.00  0.00    +0.000 A 
ATOM      2  N   UNL     1       3.875   6.791  18.448  0.00  0.00    +0.000 NA
ATOM      3  N   UNL     1       2.800   7.044  19.224  0.00  0.00    +0.000 NA
ATOM      4  C   UNL     1       2.197   5.910  19.450  0.00  0.00    +0.000 A 
ATOM      5  N   UNL     1       2.820   4.870  18.780  0.00  0.00    +0.000 N 
ENDROOT
BRANCH   1  12
ATOM      6  C   UNL     1       6.316   4.793  17.716  0.00  0.00    +0.000 A 
ATOM      7  C   UNL     1       7.338   4.409  16.833  0.00  0.00    +0.000 A 
ATOM      8  C   UNL     1       7.054   4.167  15.494  0.00  0.00    +0.000 A 
ATOM      9  C   UNL     1       5.743   4.252  15.050  0.00  0.00    +0.000 A 
ATOM     10 CL   UNL     1       5.393   4.021  13.380  0.00  0.00    +0.000 Cl
ATOM     11  C   UNL     1       4.708   4.588  15.929  0.00  0.00    +0.000 A 
ATOM     12  C   UNL     1       4.977   4.970  17.252  0.00  0.00    +0.000 A 
BRANCH   6  14
ATOM     13  C   UNL     1       7.830   5.784  19.256  0.00  0.00    +0.000 C 
ATOM     14  O   UNL     1       6.607   5.085  19.029  0.00  0.00    +0.000 OA
ENDBRANCH   6  14
ENDBRANCH   1  12
BRANCH   5  15
ATOM     15  C   UNL     1       2.547   3.421  18.845  0.00  0.00    +0.000 C 
ATOM     16  C   UNL     1       3.707   2.398  18.737  0.00  0.00    +0.000 C 
ATOM     17  C   UNL     1       4.536   2.244  20.019  0.00  0.00    +0.000 C 
ATOM     18  C   UNL     1       3.691   1.956  21.253  0.00  0.00    +0.000 C 
ATOM     19  C   UNL     1       2.490   2.882  21.357  0.00  0.00    +0.000 C 
ATOM     20  C   UNL     1       1.705   2.935  20.057  0.00  0.00    +0.000 C 
ENDBRANCH   5  15
BRANCH   4  21
ATOM     21  S   UNL     1       0.839   5.892  20.519  0.00  0.00    +0.000 S 
ATOM     22  H   UNL     1       0.782   7.219  20.706  0.00  0.00    +0.000 HD
ENDBRANCH   4  21
TORSDOF 4
ENDMDL
MODEL 6
REMARK VINA RESULT:      -5.7      8.176     10.776
REMARK  Name = 
REMARK  5 active torsions:
REMARK  status: ('A' for Active; 'I' for Inactive)
REMARK    1  A    between atoms: C_1  and  O_2
REMARK    2  A    between atoms: O_2  and  C_3
REMARK    3  A    between atoms: C_9  and  C_10
REMARK    4  A    between atoms: C_13  and  S_14
REMARK    5  A    between atoms: N_15  and  C_16
REMARK                            x       y       z     vdW  Elec       q    Type
REMARK                         _______ _______ _______ _____ _____    ______ ____
ROOT
ATOM      1  C   UNL     1      -0.774  11.204  22.526  0.00  0.00    +0.000 A 
ATOM      2  N   UNL     1      -0.441  10.268  23.400  0.00  0.00    +0.000 NA
ATOM      3  N   UNL     1       0.274   9.301  22.788  0.00  0.00    +0.000 NA
ATOM      4  C   UNL     1       0.429   9.649  21.541  0.00  0.00    +0.000 A 
ATOM      5  N   UNL     1      -0.230  10.836  21.268  0.00  0.00    +0.000 N 
ENDROOT
BRANCH   1  12
ATOM      6  C   UNL     1      -1.063  13.664  23.063  0.00  0.00    +0.000 A 
ATOM      7  C   UNL     1      -1.834  14.724  23.566  0.00  0.00    +0.000 A 
ATOM      8  C   UNL     1      -3.162  14.519  23.920  0.00  0.00    +0.000 A 
ATOM      9  C   UNL     1      -3.737  13.274  23.717  0.00  0.00    +0.000 A 
ATOM     10 CL   UNL     1      -5.361  12.994  24.216  0.00  0.00    +0.000 Cl
ATOM     11  C   UNL     1      -2.994  12.222  23.172  0.00  0.00    +0.000 A 
ATOM     12  C   UNL     1      -1.618  12.355  22.932  0.00  0.00    +0.000 A 
BRANCH   6  14
ATOM     13  C   UNL     1       0.556  14.924  21.865  0.00  0.00    +0.000 C 
ATOM     14  O   UNL     1       0.267  13.854  22.763  0.00  0.00    +0.000 OA
ENDBRANCH   6  14
ENDBRANCH   1  12
BRANCH   5  15
ATOM     15  C   UNL     1      -0.224  11.646  20.033  0.00  0.00    +0.000 C 
ATOM     16  C   UNL     1       0.064  10.985  18.661  0.00  0.00    +0.000 C 
ATOM     17  C   UNL     1      -1.118  10.201  18.077  0.00  0.00    +0.000 C 
ATOM     18  C   UNL     1      -2.407  11.012  18.012  0.00  0.00    +0.000 C 
ATOM     19  C   UNL     1      -2.688  11.749  19.312  0.00  0.00    +0.000 C 
ATOM     20  C   UNL     1      -1.477  12.532  19.789  0.00  0.00    +0.000 C 
ENDBRANCH   5  15
BRANCH   4  21
ATOM     21  S   UNL     1       1.411   8.659  20.519  0.00  0.00    +0.000 S 
ATOM     22  H   UNL     1       2.224   9.641  20.101  0.00  0.00    +0.000 HD
ENDBRANCH   4  21
TORSDOF 4
ENDMDL
MODEL 7
REMARK VINA RESULT:      -5.4      2.341      2.889
REMARK  Name = 
REMARK  5 active torsions:
REMARK  status: ('A' for Active; 'I' for Inactive)
REMARK    1  A    between atoms: C_1  and  O_2
REMARK    2  A    between atoms: O_2  and  C_3
REMARK    3  A    between atoms: C_9  and  C_10
REMARK    4  A    between atoms: C_13  and  S_14
REMARK    5  A    between atoms: N_15  and  C_16
REMARK                            x       y       z     vdW  Elec       q    Type
REMARK                         _______ _______ _______ _____ _____    ______ ____
ROOT
ATOM      1  C   UNL     1       5.598   4.189  17.768  0.00  0.00    +0.000 A 
ATOM      2  N   UNL     1       6.381   4.312  18.827  0.00  0.00    +0.000 NA
ATOM      3  N   UNL     1       5.659   4.140  19.955  0.00  0.00    +0.000 NA
ATOM      4  C   UNL     1       4.433   3.865  19.604  0.00  0.00    +0.000 A 
ATOM      5  N   UNL     1       4.286   3.903  18.228  0.00  0.00    +0.000 N 
ENDROOT
BRANCH   1  12
ATOM      6  C   UNL     1       7.170   5.346  16.152  0.00  0.00    +0.000 A 
ATOM      7  C   UNL     1       7.588   5.627  14.841  0.00  0.00    +0.000 A 
ATOM      8  C   UNL     1       7.018   4.960  13.764  0.00  0.00    +0.000 A 
ATOM      9  C   UNL     1       6.073   3.972  13.998  0.00  0.00    +0.000 A 
ATOM     10 CL   UNL     1       5.311   3.190  12.666  0.00  0.00    +0.000 Cl
ATOM     11  C   UNL     1       5.681   3.649  15.301  0.00  0.00    +0.000 A 
ATOM     12  C   UNL     1       6.135   4.394  16.399  0.00  0.00    +0.000 A 
BRANCH   6  14
ATOM     13  C   UNL     1       7.358   7.430  17.278  0.00  0.00    +0.000 C 
ATOM     14  O   UNL     1       7.697   6.045  17.214  0.00  0.00    +0.000 OA
ENDBRANCH   6  14
ENDBRANCH   1  12
BRANCH   5  15
ATOM     15  C   UNL     1       3.115   3.546  17.403  0.00  0.00    +0.000 C 
ATOM     16  C   UNL     1       2.579   2.091  17.387  0.00  0.00    +0.000 C 
ATOM     17  C   UNL     1       1.756   1.709  18.624  0.00  0.00    +0.000 C 
ATOM     18  C   UNL     1       0.626   2.686  18.923  0.00  0.00    +0.000 C 
ATOM     19  C   UNL     1       1.086   4.133  18.866  0.00  0.00    +0.000 C 
ATOM     20  C   UNL     1       1.851   4.430  17.587  0.00  0.00    +0.000 C 
ENDBRANCH   5  15
BRANCH   4  21
ATOM     21  S   UNL     1       3.286   3.476  20.837  0.00  0.00    +0.000 S 
ATOM     22  H   UNL     1       3.483   4.579  21.575  0.00  0.00    +0.000 HD
ENDBRANCH   4  21
TORSDOF 4
ENDMDL
MODEL 8
REMARK VINA RESULT:      -5.2      3.471      5.677
REMARK  Name = 
REMARK  5 active torsions:
REMARK  status: ('A' for Active; 'I' for Inactive)
REMARK    1  A    between atoms: C_1  and  O_2
REMARK    2  A    between atoms: O_2  and  C_3
REMARK    3  A    between atoms: C_9  and  C_10
REMARK    4  A    between atoms: C_13  and  S_14
REMARK    5  A    between atoms: N_15  and  C_16
REMARK                            x       y       z     vdW  Elec       q    Type
REMARK                         _______ _______ _______ _____ _____    ______ ____
ROOT
ATOM      1  C   UNL     1       1.754   7.889  20.174  0.00  0.00    +0.000 A 
ATOM      2  N   UNL     1       1.715   7.703  21.484  0.00  0.00    +0.000 NA
ATOM      3  N   UNL     1       1.149   8.773  22.082  0.00  0.00    +0.000 NA
ATOM      4  C   UNL     1       0.792   9.609  21.147  0.00  0.00    +0.000 A 
ATOM      5  N   UNL     1       1.163   9.148  19.896  0.00  0.00    +0.000 N 
ENDROOT
BRANCH   1  12
ATOM      6  C   UNL     1       2.184   5.485  19.494  0.00  0.00    +0.000 A 
ATOM      7  C   UNL     1       2.882   4.535  18.730  0.00  0.00    +0.000 A 
ATOM      8  C   UNL     1       3.763   4.945  17.737  0.00  0.00    +0.000 A 
ATOM      9  C   UNL     1       3.905   6.297  17.467  0.00  0.00    +0.000 A 
ATOM     10 CL   UNL     1       5.046   6.815  16.285  0.00  0.00    +0.000 Cl
ATOM     11  C   UNL     1       3.180   7.252  18.188  0.00  0.00    +0.000 A 
ATOM     12  C   UNL     1       2.387   6.883  19.284  0.00  0.00    +0.000 A 
BRANCH   6  14
ATOM     13  C   UNL     1       1.065   3.684  20.565  0.00  0.00    +0.000 C 
ATOM     14  O   UNL     1       1.352   5.081  20.513  0.00  0.00    +0.000 OA
ENDBRANCH   6  14
ENDBRANCH   1  12
BRANCH   5  15
ATOM     15  C   UNL     1       0.859   9.710  18.565  0.00  0.00    +0.000 C 
ATOM     16  C   UNL     1      -0.526  10.344  18.278  0.00  0.00    +0.000 C 
ATOM     17  C   UNL     1      -0.707  11.754  18.854  0.00  0.00    +0.000 C 
ATOM     18  C   UNL     1       0.406  12.715  18.458  0.00  0.00    +0.000 C 
ATOM     19  C   UNL     1       1.786  12.105  18.643  0.00  0.00    +0.000 C 
ATOM     20  C   UNL     1       1.885  10.732  18.001  0.00  0.00    +0.000 C 
ENDBRANCH   5  15
BRANCH   4  21
ATOM     21  S   UNL     1      -0.074  11.036  21.598  0.00  0.00    +0.000 S 
ATOM     22  H   UNL     1      -1.301  10.511  21.462  0.00  0.00    +0.000 HD
ENDBRANCH   4  21
TORSDOF 4
ENDMDL
MODEL 9
REMARK VINA RESULT:      -5.2      8.754     10.332
REMARK  Name = 
REMARK  5 active torsions:
REMARK  status: ('A' for Active; 'I' for Inactive)
REMARK    1  A    between atoms: C_1  and  O_2
REMARK    2  A    between atoms: O_2  and  C_3
REMARK    3  A    between atoms: C_9  and  C_10
REMARK    4  A    between atoms: C_13  and  S_14
REMARK    5  A    between atoms: N_15  and  C_16
REMARK                            x       y       z     vdW  Elec       q    Type
REMARK                         _______ _______ _______ _____ _____    ______ ____
ROOT
ATOM      1  C   UNL     1       7.713  14.678  18.674  0.00  0.00    +0.000 A 
ATOM      2  N   UNL     1       6.635  14.801  17.916  0.00  0.00    +0.000 NA
ATOM      3  N   UNL     1       5.539  14.933  18.693  0.00  0.00    +0.000 NA
ATOM      4  C   UNL     1       5.932  14.938  19.937  0.00  0.00    +0.000 A 
ATOM      5  N   UNL     1       7.300  14.751  20.030  0.00  0.00    +0.000 N 
ENDROOT
BRANCH   1  12
ATOM      6  C   UNL     1       9.490  13.144  17.721  0.00  0.00    +0.000 A 
ATOM      7  C   UNL     1      10.799  12.925  17.261  0.00  0.00    +0.000 A 
ATOM      8  C   UNL     1      11.677  13.991  17.108  0.00  0.00    +0.000 A 
ATOM      9  C   UNL     1      11.232  15.281  17.357  0.00  0.00    +0.000 A 
ATOM     10 CL   UNL     1      12.333  16.599  17.236  0.00  0.00    +0.000 Cl
ATOM     11  C   UNL     1       9.917  15.518  17.770  0.00  0.00    +0.000 A 
ATOM     12  C   UNL     1       9.048  14.457  18.065  0.00  0.00    +0.000 A 
BRANCH   6  14
ATOM     13  C   UNL     1       9.262  10.818  18.148  0.00  0.00    +0.000 C 
ATOM     14  O   UNL     1       8.638  12.082  17.923  0.00  0.00    +0.000 OA
ENDBRANCH   6  14
ENDBRANCH   1  12
BRANCH   5  15
ATOM     15  C   UNL     1       8.172  14.806  21.220  0.00  0.00    +0.000 C 
ATOM     16  C   UNL     1       7.583  14.581  22.636  0.00  0.00    +0.000 C 
ATOM     17  C   UNL     1       7.301  13.112  22.978  0.00  0.00    +0.000 C 
ATOM     18  C   UNL     1       8.500  12.199  22.753  0.00  0.00    +0.000 C 
ATOM     19  C   UNL     1       9.164  12.443  21.408  0.00  0.00    +0.000 C 
ATOM     20  C   UNL     1       9.447  13.918  21.178  0.00  0.00    +0.000 C 
ENDBRANCH   5  15
BRANCH   4  21
ATOM     21  S   UNL     1       4.757  15.212  21.176  0.00  0.00    +0.000 S 
ATOM     22  H   UNL     1       5.353  16.292  21.705  0.00  0.00    +0.000 HD
ENDBRANCH   4  21
TORSDOF 4
ENDMDL
