MODEL 1
REMARK VINA RESULT:      -8.2      0.000      0.000
REMARK  Name = 
REMARK  7 active torsions:
REMARK  status: ('A' for Active; 'I' for Inactive)
REMARK    1  A    between atoms: C_1  and  C_2
REMARK    2  A    between atoms: C_2  and  O_3
REMARK    3  A    between atoms: O_3  and  C_4
REMARK    4  A    between atoms: C_4  and  C_6
REMARK    5  A    between atoms: C_6  and  C_7
REMARK    6  A    between atoms: C_7  and  C_8
REMARK    7  A    between atoms: C_14  and  C_15
REMARK                            x       y       z     vdW  Elec       q    Type
REMARK                         _______ _______ _______ _____ _____    ______ ____
ROOT
ATOM      1  C   UNL     1       5.837   4.455  15.138  0.00  0.00    +0.000 A 
ATOM      2  C   UNL     1       7.179   4.845  15.235  0.00  0.00    +0.000 A 
ATOM      3  C   UNL     1       7.782   5.094  16.473  0.00  0.00    +0.000 A 
ATOM      4  C   UNL     1       6.990   4.939  17.612  0.00  0.00    +0.000 A 
ATOM      5  N   UNL     1       7.257   5.130  18.939  0.00  0.00    +0.000 N 
ATOM      6  N   UNL     1       6.225   4.873  19.756  0.00  0.00    +0.000 NA
ATOM      7  C   UNL     1       5.239   4.475  18.934  0.00  0.00    +0.000 A 
ATOM      8  C   UNL     1       5.662   4.536  17.568  0.00  0.00    +0.000 A 
ATOM      9  C   UNL     1       5.073   4.302  16.309  0.00  0.00    +0.000 A 
ATOM     10  H   UNL     1       8.128   5.441  19.351  0.00  0.00    +0.000 HD
ENDROOT
BRANCH   7  11
ATOM     11  C   UNL     1       3.940   4.050  19.464  0.00  0.00    +0.000 A 
ATOM     12  C   UNL     1       3.083   4.981  20.071  0.00  0.00    +0.000 A 
ATOM     13  C   UNL     1       1.849   4.575  20.589  0.00  0.00    +0.000 A 
ATOM     14  C   UNL     1       1.474   3.241  20.501  0.00  0.00    +0.000 A 
ATOM     15  F   UNL     1       0.292   2.852  20.996  0.00  0.00    +0.000 F 
ATOM     16  C   UNL     1       2.305   2.302  19.906  0.00  0.00    +0.000 A 
ATOM     17  C   UNL     1       3.543   2.705  19.394  0.00  0.00    +0.000 A 
ENDBRANCH   7  11
BRANCH   1  18
ATOM     18  C   UNL     1       5.185   4.236  13.796  0.00  0.00    +0.000 C 
BRANCH  18  19
ATOM     19  C   UNL     1       6.078   3.486  12.815  0.00  0.00    +0.000 C 
BRANCH  19  20
ATOM     20  C   UNL     1       5.243   2.749  11.804  0.00  0.00    +0.000 C 
ATOM     21  O   UNL     1       5.559   1.706  11.248  0.00  0.00    +0.000 OA
BRANCH  20  22
ATOM     22  O   UNL     1       4.122   3.475  11.538  0.00  0.00    +0.000 OA
BRANCH  22  24
ATOM     23  C   UNL     1       2.930   4.204   9.605  0.00  0.00    +0.000 C 
ATOM     24  C   UNL     1       3.341   3.000  10.434  0.00  0.00    +0.000 C 
ENDBRANCH  22  24
ENDBRANCH  20  22
ENDBRANCH  19  20
ENDBRANCH  18  19
ENDBRANCH   1  18
TORSDOF 6
ENDMDL
MODEL 2
REMARK VINA RESULT:      -8.2      3.947      6.872
REMARK  Name = 
REMARK  7 active torsions:
REMARK  status: ('A' for Active; 'I' for Inactive)
REMARK    1  A    between atoms: C_1  and  C_2
REMARK    2  A    between atoms: C_2  and  O_3
REMARK    3  A    between atoms: O_3  and  C_4
REMARK    4  A    between atoms: C_4  and  C_6
REMARK    5  A    between atoms: C_6  and  C_7
REMARK    6  A    between atoms: C_7  and  C_8
REMARK    7  A    between atoms: C_14  and  C_15
REMARK                            x       y       z     vdW  Elec       q    Type
REMARK                         _______ _______ _______ _____ _____    ______ ____
ROOT
ATOM      1  C   UNL     1       3.655   5.321  18.112  0.00  0.00    +0.000 A 
ATOM      2  C   UNL     1       4.222   5.294  19.392  0.00  0.00    +0.000 A 
ATOM      3  C   UNL     1       5.580   5.023  19.587  0.00  0.00    +0.000 A 
ATOM      4  C   UNL     1       6.353   4.779  18.449  0.00  0.00    +0.000 A 
ATOM      5  N   UNL     1       7.673   4.461  18.296  0.00  0.00    +0.000 N 
ATOM      6  N   UNL     1       8.062   4.300  17.022  0.00  0.00    +0.000 NA
ATOM      7  C   UNL     1       6.954   4.544  16.301  0.00  0.00    +0.000 A 
ATOM      8  C   UNL     1       5.840   4.815  17.158  0.00  0.00    +0.000 A 
ATOM      9  C   UNL     1       4.466   5.078  16.989  0.00  0.00    +0.000 A 
ATOM     10  H   UNL     1       8.362   4.332  19.027  0.00  0.00    +0.000 HD
ENDROOT
BRANCH   7  11
ATOM     11  C   UNL     1       6.987   4.518  14.836  0.00  0.00    +0.000 A 
ATOM     12  C   UNL     1       7.847   5.373  14.131  0.00  0.00    +0.000 A 
ATOM     13  C   UNL     1       7.872   5.359  12.733  0.00  0.00    +0.000 A 
ATOM     14  C   UNL     1       7.035   4.492  12.041  0.00  0.00    +0.000 A 
ATOM     15  F   UNL     1       7.058   4.478  10.702  0.00  0.00    +0.000 F 
ATOM     16  C   UNL     1       6.174   3.639  12.718  0.00  0.00    +0.000 A 
ATOM     17  C   UNL     1       6.143   3.657  14.116  0.00  0.00    +0.000 A 
ENDBRANCH   7  11
BRANCH   1  18
ATOM     18  C   UNL     1       2.179   5.566  17.919  0.00  0.00    +0.000 C 
BRANCH  18  19
ATOM     19  C   UNL     1       1.385   4.282  17.711  0.00  0.00    +0.000 C 
BRANCH  19  20
ATOM     20  C   UNL     1       1.152   3.590  19.026  0.00  0.00    +0.000 C 
ATOM     21  O   UNL     1       0.794   4.136  20.061  0.00  0.00    +0.000 OA
BRANCH  20  22
ATOM     22  O   UNL     1       1.493   2.277  18.904  0.00  0.00    +0.000 OA
BRANCH  22  24
ATOM     23  C   UNL     1       3.702   1.493  18.463  0.00  0.00    +0.000 C 
ATOM     24  C   UNL     1       2.408   1.987  17.840  0.00  0.00    +0.000 C 
ENDBRANCH  22  24
ENDBRANCH  20  22
ENDBRANCH  19  20
ENDBRANCH  18  19
ENDBRANCH   1  18
TORSDOF 6
ENDMDL
MODEL 3
REMARK VINA RESULT:      -8.1      0.500      1.114
REMARK  Name = 
REMARK  7 active torsions:
REMARK  status: ('A' for Active; 'I' for Inactive)
REMARK    1  A    between atoms: C_1  and  C_2
REMARK    2  A    between atoms: C_2  and  O_3
REMARK    3  A    between atoms: O_3  and  C_4
REMARK    4  A    between atoms: C_4  and  C_6
REMARK    5  A    between atoms: C_6  and  C_7
REMARK    6  A    between atoms: C_7  and  C_8
REMARK    7  A    between atoms: C_14  and  C_15
REMARK                            x       y       z     vdW  Elec       q    Type
REMARK                         _______ _______ _______ _____ _____    ______ ____
ROOT
ATOM      1  C   UNL     1       5.874   4.437  15.136  0.00  0.00    +0.000 A 
ATOM      2  C   UNL     1       7.201   4.795  15.400  0.00  0.00    +0.000 A 
ATOM      3  C   UNL     1       7.669   4.964  16.708  0.00  0.00    +0.000 A 
ATOM      4  C   UNL     1       6.755   4.762  17.744  0.00  0.00    +0.000 A 
ATOM      5  N   UNL     1       6.878   4.874  19.101  0.00  0.00    +0.000 N 
ATOM      6  N   UNL     1       5.759   4.593  19.785  0.00  0.00    +0.000 NA
ATOM      7  C   UNL     1       4.864   4.260  18.840  0.00  0.00    +0.000 A 
ATOM      8  C   UNL     1       5.435   4.387  17.533  0.00  0.00    +0.000 A 
ATOM      9  C   UNL     1       4.984   4.234  16.207  0.00  0.00    +0.000 A 
ATOM     10  H   UNL     1       7.703   5.146  19.622  0.00  0.00    +0.000 HD
ENDROOT
BRANCH   7  11
ATOM     11  C   UNL     1       3.510   3.831  19.201  0.00  0.00    +0.000 A 
ATOM     12  C   UNL     1       3.022   2.588  18.772  0.00  0.00    +0.000 A 
ATOM     13  C   UNL     1       1.726   2.181  19.106  0.00  0.00    +0.000 A 
ATOM     14  C   UNL     1       0.919   3.019  19.865  0.00  0.00    +0.000 A 
ATOM     15  F   UNL     1      -0.323   2.630  20.184  0.00  0.00    +0.000 F 
ATOM     16  C   UNL     1       1.379   4.255  20.298  0.00  0.00    +0.000 A 
ATOM     17  C   UNL     1       2.673   4.665  19.960  0.00  0.00    +0.000 A 
ENDBRANCH   7  11
BRANCH   1  18
ATOM     18  C   UNL     1       5.369   4.304  13.721  0.00  0.00    +0.000 C 
BRANCH  18  19
ATOM     19  C   UNL     1       6.206   3.351  12.877  0.00  0.00    +0.000 C 
BRANCH  19  20
ATOM     20  C   UNL     1       5.369   2.746  11.783  0.00  0.00    +0.000 C 
ATOM     21  O   UNL     1       5.610   1.695  11.204  0.00  0.00    +0.000 OA
BRANCH  20  22
ATOM     22  O   UNL     1       4.352   3.599  11.478  0.00  0.00    +0.000 OA
BRANCH  22  24
ATOM     23  C   UNL     1       2.946   4.145   9.631  0.00  0.00    +0.000 C 
ATOM     24  C   UNL     1       3.348   3.057  10.611  0.00  0.00    +0.000 C 
ENDBRANCH  22  24
ENDBRANCH  20  22
ENDBRANCH  19  20
ENDBRANCH  18  19
ENDBRANCH   1  18
TORSDOF 6
ENDMDL
MODEL 4
REMARK VINA RESULT:      -8.1      3.674      7.123
REMARK  Name = 
REMARK  7 active torsions:
REMARK  status: ('A' for Active; 'I' for Inactive)
REMARK    1  A    between atoms: C_1  and  C_2
REMARK    2  A    between atoms: C_2  and  O_3
REMARK    3  A    between atoms: O_3  and  C_4
REMARK    4  A    between atoms: C_4  and  C_6
REMARK    5  A    between atoms: C_6  and  C_7
REMARK    6  A    between atoms: C_7  and  C_8
REMARK    7  A    between atoms: C_14  and  C_15
REMARK                            x       y       z     vdW  Elec       q    Type
REMARK                         _______ _______ _______ _____ _____    ______ ____
ROOT
ATOM      1  C   UNL     1       3.485   4.939  18.025  0.00  0.00    +0.000 A 
ATOM      2  C   UNL     1       4.018   4.939  19.319  0.00  0.00    +0.000 A 
ATOM      3  C   UNL     1       5.391   4.796  19.547  0.00  0.00    +0.000 A 
ATOM      4  C   UNL     1       6.212   4.650  18.426  0.00  0.00    +0.000 A 
ATOM      5  N   UNL     1       7.560   4.462  18.305  0.00  0.00    +0.000 N 
ATOM      6  N   UNL     1       7.996   4.365  17.040  0.00  0.00    +0.000 NA
ATOM      7  C   UNL     1       6.889   4.517  16.293  0.00  0.00    +0.000 A 
ATOM      8  C   UNL     1       5.732   4.663  17.123  0.00  0.00    +0.000 A 
ATOM      9  C   UNL     1       4.344   4.797  16.921  0.00  0.00    +0.000 A 
ATOM     10  H   UNL     1       8.240   4.385  19.053  0.00  0.00    +0.000 HD
ENDROOT
BRANCH   7  11
ATOM     11  C   UNL     1       6.962   4.524  14.829  0.00  0.00    +0.000 A 
ATOM     12  C   UNL     1       6.153   3.661  14.075  0.00  0.00    +0.000 A 
ATOM     13  C   UNL     1       6.230   3.657  12.678  0.00  0.00    +0.000 A 
ATOM     14  C   UNL     1       7.116   4.514  12.038  0.00  0.00    +0.000 A 
ATOM     15  F   UNL     1       7.190   4.511  10.701  0.00  0.00    +0.000 F 
ATOM     16  C   UNL     1       7.928   5.375  12.764  0.00  0.00    +0.000 A 
ATOM     17  C   UNL     1       7.857   5.375  14.160  0.00  0.00    +0.000 A 
ENDBRANCH   7  11
BRANCH   1  18
ATOM     18  C   UNL     1       1.998   5.045  17.795  0.00  0.00    +0.000 C 
BRANCH  18  19
ATOM     19  C   UNL     1       1.200   3.999  18.563  0.00  0.00    +0.000 C 
BRANCH  19  20
ATOM     20  C   UNL     1       1.798   2.633  18.365  0.00  0.00    +0.000 C 
ATOM     21  O   UNL     1       2.054   2.121  17.284  0.00  0.00    +0.000 OA
BRANCH  20  22
ATOM     22  O   UNL     1       1.924   2.023  19.576  0.00  0.00    +0.000 OA
BRANCH  22  24
ATOM     23  C   UNL     1       2.296   2.774  21.809  0.00  0.00    +0.000 C 
ATOM     24  C   UNL     1       1.298   2.710  20.667  0.00  0.00    +0.000 C 
ENDBRANCH  22  24
ENDBRANCH  20  22
ENDBRANCH  19  20
ENDBRANCH  18  19
ENDBRANCH   1  18
TORSDOF 6
ENDMDL
MODEL 5
REMARK VINA RESULT:      -7.9      4.035      5.887
REMARK  Name = 
REMARK  7 active torsions:
REMARK  status: ('A' for Active; 'I' for Inactive)
REMARK    1  A    between atoms: C_1  and  C_2
REMARK    2  A    between atoms: C_2  and  O_3
REMARK    3  A    between atoms: O_3  and  C_4
REMARK    4  A    between atoms: C_4  and  C_6
REMARK    5  A    between atoms: C_6  and  C_7
REMARK    6  A    between atoms: C_7  and  C_8
REMARK    7  A    between atoms: C_14  and  C_15
REMARK                            x       y       z     vdW  Elec       q    Type
REMARK                         _______ _______ _______ _____ _____    ______ ____
ROOT
ATOM      1  C   UNL     1       4.238   4.222  17.291  0.00  0.00    +0.000 A 
ATOM      2  C   UNL     1       4.175   3.060  18.069  0.00  0.00    +0.000 A 
ATOM      3  C   UNL     1       3.522   3.041  19.307  0.00  0.00    +0.000 A 
ATOM      4  C   UNL     1       2.934   4.232  19.737  0.00  0.00    +0.000 A 
ATOM      5  N   UNL     1       2.262   4.553  20.883  0.00  0.00    +0.000 N 
ATOM      6  N   UNL     1       1.835   5.823  20.940  0.00  0.00    +0.000 NA
ATOM      7  C   UNL     1       2.223   6.359  19.770  0.00  0.00    +0.000 A 
ATOM      8  C   UNL     1       2.953   5.404  18.992  0.00  0.00    +0.000 A 
ATOM      9  C   UNL     1       3.627   5.401  17.754  0.00  0.00    +0.000 A 
ATOM     10  H   UNL     1       2.068   3.946  21.671  0.00  0.00    +0.000 HD
ENDROOT
BRANCH   7  11
ATOM     11  C   UNL     1       1.890   7.744  19.427  0.00  0.00    +0.000 A 
ATOM     12  C   UNL     1       2.221   8.261  18.166  0.00  0.00    +0.000 A 
ATOM     13  C   UNL     1       1.915   9.587  17.840  0.00  0.00    +0.000 A 
ATOM     14  C   UNL     1       1.279  10.393  18.776  0.00  0.00    +0.000 A 
ATOM     15  F   UNL     1       0.986  11.662  18.465  0.00  0.00    +0.000 F 
ATOM     16  C   UNL     1       0.943   9.903  20.031  0.00  0.00    +0.000 A 
ATOM     17  C   UNL     1       1.255   8.580  20.360  0.00  0.00    +0.000 A 
ENDBRANCH   7  11
BRANCH   1  18
ATOM     18  C   UNL     1       4.986   4.243  15.981  0.00  0.00    +0.000 C 
BRANCH  18  19
ATOM     19  C   UNL     1       5.712   5.560  15.731  0.00  0.00    +0.000 C 
BRANCH  19  20
ATOM     20  C   UNL     1       7.144   5.463  16.183  0.00  0.00    +0.000 C 
ATOM     21  O   UNL     1       7.750   4.423  16.401  0.00  0.00    +0.000 OA
BRANCH  20  22
ATOM     22  O   UNL     1       7.627   6.718  16.399  0.00  0.00    +0.000 OA
BRANCH  22  24
ATOM     23  C   UNL     1       8.036   8.613  17.789  0.00  0.00    +0.000 C 
ATOM     24  C   UNL     1       7.453   7.212  17.733  0.00  0.00    +0.000 C 
ENDBRANCH  22  24
ENDBRANCH  20  22
ENDBRANCH  19  20
ENDBRANCH  18  19
ENDBRANCH   1  18
TORSDOF 6
ENDMDL
MODEL 6
REMARK VINA RESULT:      -7.9      4.025      5.830
REMARK  Name = 
REMARK  7 active torsions:
REMARK  status: ('A' for Active; 'I' for Inactive)
REMARK    1  A    between atoms: C_1  and  C_2
REMARK    2  A    between atoms: C_2  and  O_3
REMARK    3  A    between atoms: O_3  and  C_4
REMARK    4  A    between atoms: C_4  and  C_6
REMARK    5  A    between atoms: C_6  and  C_7
REMARK    6  A    between atoms: C_7  and  C_8
REMARK    7  A    between atoms: C_14  and  C_15
REMARK                            x       y       z     vdW  Elec       q    Type
REMARK                         _______ _______ _______ _____ _____    ______ ____
ROOT
ATOM      1  C   UNL     1       4.272   4.240  17.167  0.00  0.00    +0.000 A 
ATOM      2  C   UNL     1       4.236   3.063  17.924  0.00  0.00    +0.000 A 
ATOM      3  C   UNL     1       3.609   3.014  19.174  0.00  0.00    +0.000 A 
ATOM      4  C   UNL     1       3.019   4.192  19.639  0.00  0.00    +0.000 A 
ATOM      5  N   UNL     1       2.369   4.484  20.805  0.00  0.00    +0.000 N 
ATOM      6  N   UNL     1       1.932   5.749  20.895  0.00  0.00    +0.000 NA
ATOM      7  C   UNL     1       2.291   6.310  19.727  0.00  0.00    +0.000 A 
ATOM      8  C   UNL     1       3.012   5.377  18.917  0.00  0.00    +0.000 A 
ATOM      9  C   UNL     1       3.660   5.404  17.665  0.00  0.00    +0.000 A 
ATOM     10  H   UNL     1       2.196   3.861  21.585  0.00  0.00    +0.000 HD
ENDROOT
BRANCH   7  11
ATOM     11  C   UNL     1       1.938   7.699  19.418  0.00  0.00    +0.000 A 
ATOM     12  C   UNL     1       1.288   8.495  20.373  0.00  0.00    +0.000 A 
ATOM     13  C   UNL     1       0.939   9.817  20.077  0.00  0.00    +0.000 A 
ATOM     14  C   UNL     1       1.238  10.339  18.824  0.00  0.00    +0.000 A 
ATOM     15  F   UNL     1       0.904  11.605  18.539  0.00  0.00    +0.000 F 
ATOM     16  C   UNL     1       1.878   9.570  17.863  0.00  0.00    +0.000 A 
ATOM     17  C   UNL     1       2.221   8.246  18.156  0.00  0.00    +0.000 A 
ENDBRANCH   7  11
BRANCH   1  18
ATOM     18  C   UNL     1       4.993   4.293  15.843  0.00  0.00    +0.000 C 
BRANCH  18  19
ATOM     19  C   UNL     1       5.736   5.604  15.622  0.00  0.00    +0.000 C 
BRANCH  19  20
ATOM     20  C   UNL     1       7.093   5.553  16.270  0.00  0.00    +0.000 C 
ATOM     21  O   UNL     1       7.660   4.538  16.650  0.00  0.00    +0.000 OA
BRANCH  20  22
ATOM     22  O   UNL     1       7.549   6.825  16.448  0.00  0.00    +0.000 OA
BRANCH  22  24
ATOM     23  C   UNL     1       7.993   8.710  17.839  0.00  0.00    +0.000 C 
ATOM     24  C   UNL     1       7.736   7.214  17.814  0.00  0.00    +0.000 C 
ENDBRANCH  22  24
ENDBRANCH  20  22
ENDBRANCH  19  20
ENDBRANCH  18  19
ENDBRANCH   1  18
TORSDOF 6
ENDMDL
MODEL 7
REMARK VINA RESULT:      -7.8      3.798      7.233
REMARK  Name = 
REMARK  7 active torsions:
REMARK  status: ('A' for Active; 'I' for Inactive)
REMARK    1  A    between atoms: C_1  and  C_2
REMARK    2  A    between atoms: C_2  and  O_3
REMARK    3  A    between atoms: O_3  and  C_4
REMARK    4  A    between atoms: C_4  and  C_6
REMARK    5  A    between atoms: C_6  and  C_7
REMARK    6  A    between atoms: C_7  and  C_8
REMARK    7  A    between atoms: C_14  and  C_15
REMARK                            x       y       z     vdW  Elec       q    Type
REMARK                         _______ _______ _______ _____ _____    ______ ____
ROOT
ATOM      1  C   UNL     1       3.564   4.926  17.983  0.00  0.00    +0.000 A 
ATOM      2  C   UNL     1       4.106   4.920  19.274  0.00  0.00    +0.000 A 
ATOM      3  C   UNL     1       5.480   4.774  19.491  0.00  0.00    +0.000 A 
ATOM      4  C   UNL     1       6.294   4.634  18.365  0.00  0.00    +0.000 A 
ATOM      5  N   UNL     1       7.641   4.446  18.233  0.00  0.00    +0.000 N 
ATOM      6  N   UNL     1       8.068   4.355  16.965  0.00  0.00    +0.000 NA
ATOM      7  C   UNL     1       6.956   4.512  16.226  0.00  0.00    +0.000 A 
ATOM      8  C   UNL     1       5.805   4.654  17.065  0.00  0.00    +0.000 A 
ATOM      9  C   UNL     1       4.416   4.790  16.873  0.00  0.00    +0.000 A 
ATOM     10  H   UNL     1       8.325   4.365  18.976  0.00  0.00    +0.000 HD
ENDROOT
BRANCH   7  11
ATOM     11  C   UNL     1       7.019   4.526  14.762  0.00  0.00    +0.000 A 
ATOM     12  C   UNL     1       7.865   5.428  14.098  0.00  0.00    +0.000 A 
ATOM     13  C   UNL     1       7.918   5.452  12.700  0.00  0.00    +0.000 A 
ATOM     14  C   UNL     1       7.124   4.577  11.969  0.00  0.00    +0.000 A 
ATOM     15  F   UNL     1       7.175   4.600  10.631  0.00  0.00    +0.000 F 
ATOM     16  C   UNL     1       6.279   3.678  12.604  0.00  0.00    +0.000 A 
ATOM     17  C   UNL     1       6.220   3.658  14.002  0.00  0.00    +0.000 A 
ENDBRANCH   7  11
BRANCH   1  18
ATOM     18  C   UNL     1       2.075   5.035  17.764  0.00  0.00    +0.000 C 
BRANCH  18  19
ATOM     19  C   UNL     1       1.260   4.413  18.891  0.00  0.00    +0.000 C 
BRANCH  19  20
ATOM     20  C   UNL     1       1.262   2.913  18.774  0.00  0.00    +0.000 C 
ATOM     21  O   UNL     1       1.444   2.283  17.741  0.00  0.00    +0.000 OA
BRANCH  20  22
ATOM     22  O   UNL     1       0.938   2.372  19.981  0.00  0.00    +0.000 OA
BRANCH  22  24
ATOM     23  C   UNL     1       2.562   2.596  21.714  0.00  0.00    +0.000 C 
ATOM     24  C   UNL     1       1.291   3.173  21.116  0.00  0.00    +0.000 C 
ENDBRANCH  22  24
ENDBRANCH  20  22
ENDBRANCH  19  20
ENDBRANCH  18  19
ENDBRANCH   1  18
TORSDOF 6
ENDMDL
MODEL 8
REMARK VINA RESULT:      -7.6      0.883      1.623
REMARK  Name = 
REMARK  7 active torsions:
REMARK  status: ('A' for Active; 'I' for Inactive)
REMARK    1  A    between atoms: C_1  and  C_2
REMARK    2  A    between atoms: C_2  and  O_3
REMARK    3  A    between atoms: O_3  and  C_4
REMARK    4  A    between atoms: C_4  and  C_6
REMARK    5  A    between atoms: C_6  and  C_7
REMARK    6  A    between atoms: C_7  and  C_8
REMARK    7  A    between atoms: C_14  and  C_15
REMARK                            x       y       z     vdW  Elec       q    Type
REMARK                         _______ _______ _______ _____ _____    ______ ____
ROOT
ATOM      1  C   UNL     1       5.640   4.304  14.918  0.00  0.00    +0.000 A 
ATOM      2  C   UNL     1       6.995   4.657  14.887  0.00  0.00    +0.000 A 
ATOM      3  C   UNL     1       7.713   4.910  16.060  0.00  0.00    +0.000 A 
ATOM      4  C   UNL     1       7.023   4.798  17.269  0.00  0.00    +0.000 A 
ATOM      5  N   UNL     1       7.413   5.004  18.563  0.00  0.00    +0.000 N 
ATOM      6  N   UNL     1       6.452   4.792  19.474  0.00  0.00    +0.000 NA
ATOM      7  C   UNL     1       5.386   4.408  18.751  0.00  0.00    +0.000 A 
ATOM      8  C   UNL     1       5.686   4.432  17.352  0.00  0.00    +0.000 A 
ATOM      9  C   UNL     1       4.980   4.194  16.155  0.00  0.00    +0.000 A 
ATOM     10  H   UNL     1       8.327   5.297  18.889  0.00  0.00    +0.000 HD
ENDROOT
BRANCH   7  11
ATOM     11  C   UNL     1       4.129   4.030  19.404  0.00  0.00    +0.000 A 
ATOM     12  C   UNL     1       3.302   5.011  19.971  0.00  0.00    +0.000 A 
ATOM     13  C   UNL     1       2.108   4.652  20.605  0.00  0.00    +0.000 A 
ATOM     14  C   UNL     1       1.744   3.312  20.673  0.00  0.00    +0.000 A 
ATOM     15  F   UNL     1       0.601   2.968  21.280  0.00  0.00    +0.000 F 
ATOM     16  C   UNL     1       2.547   2.325  20.120  0.00  0.00    +0.000 A 
ATOM     17  C   UNL     1       3.745   2.682  19.492  0.00  0.00    +0.000 A 
ENDBRANCH   7  11
BRANCH   1  18
ATOM     18  C   UNL     1       4.863   4.081  13.644  0.00  0.00    +0.000 C 
BRANCH  18  19
ATOM     19  C   UNL     1       5.678   3.376  12.567  0.00  0.00    +0.000 C 
BRANCH  19  20
ATOM     20  C   UNL     1       4.799   3.003  11.404  0.00  0.00    +0.000 C 
ATOM     21  O   UNL     1       4.005   3.749  10.847  0.00  0.00    +0.000 OA
BRANCH  20  22
ATOM     22  O   UNL     1       4.961   1.679  11.130  0.00  0.00    +0.000 OA
BRANCH  22  24
ATOM     23  C   UNL     1       6.265  -0.305  11.362  0.00  0.00    +0.000 C 
ATOM     24  C   UNL     1       6.312   1.205  11.217  0.00  0.00    +0.000 C 
ENDBRANCH  22  24
ENDBRANCH  20  22
ENDBRANCH  19  20
ENDBRANCH  18  19
ENDBRANCH   1  18
TORSDOF 6
ENDMDL
MODEL 9
REMARK VINA RESULT:      -7.6      3.621      4.665
REMARK  Name = 
REMARK  7 active torsions:
REMARK  status: ('A' for Active; 'I' for Inactive)
REMARK    1  A    between atoms: C_1  and  C_2
REMARK    2  A    between atoms: C_2  and  O_3
REMARK    3  A    between atoms: O_3  and  C_4
REMARK    4  A    between atoms: C_4  and  C_6
REMARK    5  A    between atoms: C_6  and  C_7
REMARK    6  A    between atoms: C_7  and  C_8
REMARK    7  A    between atoms: C_14  and  C_15
REMARK                            x       y       z     vdW  Elec       q    Type
REMARK                         _______ _______ _______ _____ _____    ______ ____
ROOT
ATOM      1  C   UNL     1       4.719   5.278  16.760  0.00  0.00    +0.000 A 
ATOM      2  C   UNL     1       4.848   3.979  17.266  0.00  0.00    +0.000 A 
ATOM      3  C   UNL     1       4.225   3.592  18.457  0.00  0.00    +0.000 A 
ATOM      4  C   UNL     1       3.466   4.556  19.125  0.00  0.00    +0.000 A 
ATOM      5  N   UNL     1       2.771   4.514  20.300  0.00  0.00    +0.000 N 
ATOM      6  N   UNL     1       2.153   5.660  20.623  0.00  0.00    +0.000 NA
ATOM      7  C   UNL     1       2.436   6.490  19.604  0.00  0.00    +0.000 A 
ATOM      8  C   UNL     1       3.293   5.850  18.652  0.00  0.00    +0.000 A 
ATOM      9  C   UNL     1       3.940   6.220  17.456  0.00  0.00    +0.000 A 
ATOM     10  H   UNL     1       2.684   3.728  20.934  0.00  0.00    +0.000 HD
ENDROOT
BRANCH   7  11
ATOM     11  C   UNL     1       1.888   7.848  19.563  0.00  0.00    +0.000 A 
ATOM     12  C   UNL     1       1.944   8.600  18.379  0.00  0.00    +0.000 A 
ATOM     13  C   UNL     1       1.431   9.901  18.340  0.00  0.00    +0.000 A 
ATOM     14  C   UNL     1       0.867  10.449  19.485  0.00  0.00    +0.000 A 
ATOM     15  F   UNL     1       0.377  11.695  19.449  0.00  0.00    +0.000 F 
ATOM     16  C   UNL     1       0.802   9.725  20.668  0.00  0.00    +0.000 A 
ATOM     17  C   UNL     1       1.320   8.427  20.709  0.00  0.00    +0.000 A 
ENDBRANCH   7  11
BRANCH   1  18
ATOM     18  C   UNL     1       5.435   5.698  15.500  0.00  0.00    +0.000 C 
BRANCH  18  19
ATOM     19  C   UNL     1       5.668   4.542  14.535  0.00  0.00    +0.000 C 
BRANCH  19  20
ATOM     20  C   UNL     1       6.966   4.728  13.797  0.00  0.00    +0.000 C 
ATOM     21  O   UNL     1       7.915   5.395  14.187  0.00  0.00    +0.000 OA
BRANCH  20  22
ATOM     22  O   UNL     1       6.881   4.112  12.585  0.00  0.00    +0.000 OA
BRANCH  22  24
ATOM     23  C   UNL     1       5.973   2.142  11.594  0.00  0.00    +0.000 C 
ATOM     24  C   UNL     1       5.648   3.421  12.344  0.00  0.00    +0.000 C 
ENDBRANCH  22  24
ENDBRANCH  20  22
ENDBRANCH  19  20
ENDBRANCH  18  19
ENDBRANCH   1  18
TORSDOF 6
ENDMDL
