MODEL 1
REMARK VINA RESULT:      -9.5      0.000      0.000
REMARK  Name = 
REMARK  4 active torsions:
REMARK  status: ('A' for Active; 'I' for Inactive)
REMARK    1  A    between atoms: C_3  and  O_4
REMARK    2  A    between atoms: O_4  and  C_5
REMARK    3  A    between atoms: N_18  and  C_19
REMARK    4  A    between atoms: C_19  and  C_20
REMARK                            x       y       z     vdW  Elec       q    Type
REMARK                         _______ _______ _______ _____ _____    ______ ____
ROOT
ATOM      1  O   UNL     1       2.745   8.828  17.486  0.00  0.00    +0.000 OA
ATOM      2  C   UNL     1       2.137   8.372  18.456  0.00  0.00    +0.000 A 
ATOM      3  C   UNL     1       2.323   6.938  18.894  0.00  0.00    +0.000 A 
ATOM      4  C   UNL     1       2.052   6.664  20.174  0.00  0.00    +0.000 A 
ATOM      5 CL   UNL     1       2.357   5.146  20.917  0.00  0.00    +0.000 Cl
ATOM      6  C   UNL     1       1.398   7.695  20.979  0.00  0.00    +0.000 A 
ATOM      7  N   UNL     1       0.966   8.830  20.539  0.00  0.00    +0.000 NA
ATOM      8  N   UNL     1       1.245   9.132  19.217  0.00  0.00    +0.000 N 
ENDROOT
BRANCH   3   9
ATOM      9  O   UNL     1       2.823   5.922  18.067  0.00  0.00    +0.000 OA
BRANCH   9  10
ATOM     10  C   UNL     1       4.175   5.835  17.842  0.00  0.00    +0.000 A 
ATOM     11  C   UNL     1       5.063   5.258  18.774  0.00  0.00    +0.000 A 
ATOM     12  C   UNL     1       6.336   4.859  18.367  0.00  0.00    +0.000 A 
ATOM     13  C   UNL     1       6.667   5.087  17.051  0.00  0.00    +0.000 A 
ATOM     14  C   UNL     1       5.850   5.810  16.202  0.00  0.00    +0.000 A 
ATOM     15  C   UNL     1       4.608   6.247  16.583  0.00  0.00    +0.000 A 
ATOM     16  O   UNL     1       6.339   5.841  14.929  0.00  0.00    +0.000 OA
ATOM     17  C   UNL     1       7.240   4.721  15.030  0.00  0.00    +0.000 C 
ATOM     18  O   UNL     1       7.719   4.538  16.381  0.00  0.00    +0.000 OA
ENDBRANCH   9  10
ENDBRANCH   3   9
BRANCH   8  19
ATOM     19  C   UNL     1       0.922  10.499  18.799  0.00  0.00    +0.000 C 
BRANCH  19  20
ATOM     20  C   UNL     1      -0.477  10.983  19.164  0.00  0.00    +0.000 A 
ATOM     21  C   UNL     1      -0.618  11.784  20.313  0.00  0.00    +0.000 A 
ATOM     22  C   UNL     1      -1.810  12.448  20.585  0.00  0.00    +0.000 A 
ATOM     23  C   UNL     1      -2.876  12.348  19.696  0.00  0.00    +0.000 A 
ATOM     24  C   UNL     1      -2.784  11.540  18.553  0.00  0.00    +0.000 A 
ATOM     25  C   UNL     1      -3.861  11.484  17.650  0.00  0.00    +0.000 A 
ATOM     26  C   UNL     1      -3.798  10.667  16.518  0.00  0.00    +0.000 A 
ATOM     27  C   UNL     1      -2.685   9.863  16.309  0.00  0.00    +0.000 A 
ATOM     28  C   UNL     1      -1.604   9.925  17.193  0.00  0.00    +0.000 A 
ATOM     29  C   UNL     1      -1.604  10.798  18.308  0.00  0.00    +0.000 A 
ENDBRANCH  19  20
ENDBRANCH   8  19
TORSDOF 4
ENDMDL
MODEL 2
REMARK VINA RESULT:      -9.1      1.116      1.661
REMARK  Name = 
REMARK  4 active torsions:
REMARK  status: ('A' for Active; 'I' for Inactive)
REMARK    1  A    between atoms: C_3  and  O_4
REMARK    2  A    between atoms: O_4  and  C_5
REMARK    3  A    between atoms: N_18  and  C_19
REMARK    4  A    between atoms: C_19  and  C_20
REMARK                            x       y       z     vdW  Elec       q    Type
REMARK                         _______ _______ _______ _____ _____    ______ ____
ROOT
ATOM      1  O   UNL     1       2.372   9.126  17.490  0.00  0.00    +0.000 OA
ATOM      2  C   UNL     1       1.860   8.656  18.508  0.00  0.00    +0.000 A 
ATOM      3  C   UNL     1       2.090   7.218  18.908  0.00  0.00    +0.000 A 
ATOM      4  C   UNL     1       1.943   6.927  20.205  0.00  0.00    +0.000 A 
ATOM      5 CL   UNL     1       2.322   5.401  20.896  0.00  0.00    +0.000 Cl
ATOM      6  C   UNL     1       1.368   7.946  21.082  0.00  0.00    +0.000 A 
ATOM      7  N   UNL     1       0.893   9.085  20.699  0.00  0.00    +0.000 NA
ATOM      8  N   UNL     1       1.043   9.404  19.361  0.00  0.00    +0.000 N 
ENDROOT
BRANCH   3   9
ATOM      9  O   UNL     1       2.510   6.213  18.024  0.00  0.00    +0.000 OA
BRANCH   9  10
ATOM     10  C   UNL     1       3.850   6.053  17.769  0.00  0.00    +0.000 A 
ATOM     11  C   UNL     1       4.528   6.800  16.783  0.00  0.00    +0.000 A 
ATOM     12  C   UNL     1       5.921   6.878  16.805  0.00  0.00    +0.000 A 
ATOM     13  C   UNL     1       6.566   6.177  17.797  0.00  0.00    +0.000 A 
ATOM     14  C   UNL     1       5.896   5.314  18.643  0.00  0.00    +0.000 A 
ATOM     15  C   UNL     1       4.531   5.187  18.623  0.00  0.00    +0.000 A 
ATOM     16  O   UNL     1       6.721   4.793  19.596  0.00  0.00    +0.000 OA
ATOM     17  C   UNL     1       7.783   5.762  19.498  0.00  0.00    +0.000 C 
ATOM     18  O   UNL     1       7.867   6.334  18.175  0.00  0.00    +0.000 OA
ENDBRANCH   9  10
ENDBRANCH   3   9
BRANCH   8  19
ATOM     19  C   UNL     1       0.678  10.775  18.992  0.00  0.00    +0.000 C 
BRANCH  19  20
ATOM     20  C   UNL     1      -0.775  11.157  19.246  0.00  0.00    +0.000 A 
ATOM     21  C   UNL     1      -1.064  11.928  20.387  0.00  0.00    +0.000 A 
ATOM     22  C   UNL     1      -2.317  12.505  20.567  0.00  0.00    +0.000 A 
ATOM     23  C   UNL     1      -3.298  12.348  19.592  0.00  0.00    +0.000 A 
ATOM     24  C   UNL     1      -3.057  11.567  18.451  0.00  0.00    +0.000 A 
ATOM     25  C   UNL     1      -4.050  11.454  17.462  0.00  0.00    +0.000 A 
ATOM     26  C   UNL     1      -3.839  10.663  16.330  0.00  0.00    +0.000 A 
ATOM     27  C   UNL     1      -2.660   9.939  16.205  0.00  0.00    +0.000 A 
ATOM     28  C   UNL     1      -1.661  10.058  17.176  0.00  0.00    +0.000 A 
ATOM     29  C   UNL     1      -1.813  10.911  18.297  0.00  0.00    +0.000 A 
ENDBRANCH  19  20
ENDBRANCH   8  19
TORSDOF 4
ENDMDL
MODEL 3
REMARK VINA RESULT:      -9.0      0.595      2.012
REMARK  Name = 
REMARK  4 active torsions:
REMARK  status: ('A' for Active; 'I' for Inactive)
REMARK    1  A    between atoms: C_3  and  O_4
REMARK    2  A    between atoms: O_4  and  C_5
REMARK    3  A    between atoms: N_18  and  C_19
REMARK    4  A    between atoms: C_19  and  C_20
REMARK                            x       y       z     vdW  Elec       q    Type
REMARK                         _______ _______ _______ _____ _____    ______ ____
ROOT
ATOM      1  O   UNL     1       2.535   9.031  17.540  0.00  0.00    +0.000 OA
ATOM      2  C   UNL     1       1.953   8.552  18.514  0.00  0.00    +0.000 A 
ATOM      3  C   UNL     1       2.178   7.118  18.936  0.00  0.00    +0.000 A 
ATOM      4  C   UNL     1       1.933   6.826  20.217  0.00  0.00    +0.000 A 
ATOM      5 CL   UNL     1       2.284   5.308  20.940  0.00  0.00    +0.000 Cl
ATOM      6  C   UNL     1       1.270   7.835  21.042  0.00  0.00    +0.000 A 
ATOM      7  N   UNL     1       0.805   8.964  20.620  0.00  0.00    +0.000 NA
ATOM      8  N   UNL     1       1.056   9.284  19.297  0.00  0.00    +0.000 N 
ENDROOT
BRANCH   3   9
ATOM      9  O   UNL     1       2.687   6.121  18.091  0.00  0.00    +0.000 OA
BRANCH   9  10
ATOM     10  C   UNL     1       4.045   6.007  17.920  0.00  0.00    +0.000 A 
ATOM     11  C   UNL     1       4.888   5.442  18.900  0.00  0.00    +0.000 A 
ATOM     12  C   UNL     1       6.168   5.012  18.553  0.00  0.00    +0.000 A 
ATOM     13  C   UNL     1       6.552   5.199  17.244  0.00  0.00    +0.000 A 
ATOM     14  C   UNL     1       5.779   5.910  16.346  0.00  0.00    +0.000 A 
ATOM     15  C   UNL     1       4.531   6.377  16.667  0.00  0.00    +0.000 A 
ATOM     16  O   UNL     1       6.316   5.898  15.092  0.00  0.00    +0.000 OA
ATOM     17  C   UNL     1       7.194   4.767  15.257  0.00  0.00    +0.000 C 
ATOM     18  O   UNL     1       7.619   4.614  16.629  0.00  0.00    +0.000 OA
ENDBRANCH   9  10
ENDBRANCH   3   9
BRANCH   8  19
ATOM     19  C   UNL     1       0.696  10.648  18.897  0.00  0.00    +0.000 C 
BRANCH  19  20
ATOM     20  C   UNL     1      -0.749  10.840  18.455  0.00  0.00    +0.000 A 
ATOM     21  C   UNL     1      -1.255   9.978  17.464  0.00  0.00    +0.000 A 
ATOM     22  C   UNL     1      -2.615   9.938  17.171  0.00  0.00    +0.000 A 
ATOM     23  C   UNL     1      -3.501  10.738  17.886  0.00  0.00    +0.000 A 
ATOM     24  C   UNL     1      -3.034  11.629  18.865  0.00  0.00    +0.000 A 
ATOM     25  C   UNL     1      -3.951  12.400  19.600  0.00  0.00    +0.000 A 
ATOM     26  C   UNL     1      -3.505  13.310  20.562  0.00  0.00    +0.000 A 
ATOM     27  C   UNL     1      -2.142  13.493  20.757  0.00  0.00    +0.000 A 
ATOM     28  C   UNL     1      -1.224  12.719  20.042  0.00  0.00    +0.000 A 
ATOM     29  C   UNL     1      -1.645  11.735  19.115  0.00  0.00    +0.000 A 
ENDBRANCH  19  20
ENDBRANCH   8  19
TORSDOF 4
ENDMDL
MODEL 4
REMARK VINA RESULT:      -8.7      2.654      4.091
REMARK  Name = 
REMARK  4 active torsions:
REMARK  status: ('A' for Active; 'I' for Inactive)
REMARK    1  A    between atoms: C_3  and  O_4
REMARK    2  A    between atoms: O_4  and  C_5
REMARK    3  A    between atoms: N_18  and  C_19
REMARK    4  A    between atoms: C_19  and  C_20
REMARK                            x       y       z     vdW  Elec       q    Type
REMARK                         _______ _______ _______ _____ _____    ______ ____
ROOT
ATOM      1  O   UNL     1       4.340   5.528  20.085  0.00  0.00    +0.000 OA
ATOM      2  C   UNL     1       3.292   4.977  19.744  0.00  0.00    +0.000 A 
ATOM      3  C   UNL     1       3.302   3.748  18.865  0.00  0.00    +0.000 A 
ATOM      4  C   UNL     1       2.237   2.945  18.948  0.00  0.00    +0.000 A 
ATOM      5 CL   UNL     1       2.121   1.419  18.168  0.00  0.00    +0.000 Cl
ATOM      6  C   UNL     1       1.071   3.416  19.695  0.00  0.00    +0.000 A 
ATOM      7  N   UNL     1       0.935   4.591  20.212  0.00  0.00    +0.000 NA
ATOM      8  N   UNL     1       2.032   5.433  20.141  0.00  0.00    +0.000 N 
ENDROOT
BRANCH   3   9
ATOM      9  O   UNL     1       4.376   3.379  18.042  0.00  0.00    +0.000 OA
BRANCH   9  10
ATOM     10  C   UNL     1       5.146   4.354  17.456  0.00  0.00    +0.000 A 
ATOM     11  C   UNL     1       4.646   5.221  16.462  0.00  0.00    +0.000 A 
ATOM     12  C   UNL     1       5.321   6.405  16.167  0.00  0.00    +0.000 A 
ATOM     13  C   UNL     1       6.484   6.646  16.863  0.00  0.00    +0.000 A 
ATOM     14  C   UNL     1       7.047   5.704  17.702  0.00  0.00    +0.000 A 
ATOM     15  C   UNL     1       6.426   4.515  17.986  0.00  0.00    +0.000 A 
ATOM     16  O   UNL     1       8.149   6.188  18.344  0.00  0.00    +0.000 OA
ATOM     17  C   UNL     1       7.899   7.593  18.146  0.00  0.00    +0.000 C 
ATOM     18  O   UNL     1       7.140   7.839  16.942  0.00  0.00    +0.000 OA
ENDBRANCH   9  10
ENDBRANCH   3   9
BRANCH   8  19
ATOM     19  C   UNL     1       1.923   6.680  20.904  0.00  0.00    +0.000 C 
BRANCH  19  20
ATOM     20  C   UNL     1       1.720   7.941  20.073  0.00  0.00    +0.000 A 
ATOM     21  C   UNL     1       2.165   7.929  18.738  0.00  0.00    +0.000 A 
ATOM     22  C   UNL     1       1.816   8.945  17.854  0.00  0.00    +0.000 A 
ATOM     23  C   UNL     1       0.989   9.979  18.280  0.00  0.00    +0.000 A 
ATOM     24  C   UNL     1       0.543  10.041  19.609  0.00  0.00    +0.000 A 
ATOM     25  C   UNL     1      -0.323  11.075  20.007  0.00  0.00    +0.000 A 
ATOM     26  C   UNL     1      -0.758  11.168  21.331  0.00  0.00    +0.000 A 
ATOM     27  C   UNL     1      -0.291  10.262  22.275  0.00  0.00    +0.000 A 
ATOM     28  C   UNL     1       0.557   9.222  21.885  0.00  0.00    +0.000 A 
ATOM     29  C   UNL     1       0.957   9.055  20.536  0.00  0.00    +0.000 A 
ENDBRANCH  19  20
ENDBRANCH   8  19
TORSDOF 4
ENDMDL
MODEL 5
REMARK VINA RESULT:      -8.7      1.266      2.800
REMARK  Name = 
REMARK  4 active torsions:
REMARK  status: ('A' for Active; 'I' for Inactive)
REMARK    1  A    between atoms: C_3  and  O_4
REMARK    2  A    between atoms: O_4  and  C_5
REMARK    3  A    between atoms: N_18  and  C_19
REMARK    4  A    between atoms: C_19  and  C_20
REMARK                            x       y       z     vdW  Elec       q    Type
REMARK                         _______ _______ _______ _____ _____    ______ ____
ROOT
ATOM      1  O   UNL     1       3.093   7.834  17.476  0.00  0.00    +0.000 OA
ATOM      2  C   UNL     1       2.384   7.594  18.455  0.00  0.00    +0.000 A 
ATOM      3  C   UNL     1       2.289   6.200  19.031  0.00  0.00    +0.000 A 
ATOM      4  C   UNL     1       1.937   6.108  20.317  0.00  0.00    +0.000 A 
ATOM      5 CL   UNL     1       1.935   4.640  21.210  0.00  0.00    +0.000 Cl
ATOM      6  C   UNL     1       1.464   7.315  20.994  0.00  0.00    +0.000 A 
ATOM      7  N   UNL     1       1.262   8.460  20.433  0.00  0.00    +0.000 NA
ATOM      8  N   UNL     1       1.628   8.574  19.103  0.00  0.00    +0.000 N 
ENDROOT
BRANCH   3   9
ATOM      9  O   UNL     1       2.614   5.033  18.324  0.00  0.00    +0.000 OA
BRANCH   9  10
ATOM     10  C   UNL     1       3.933   4.710  18.121  0.00  0.00    +0.000 A 
ATOM     11  C   UNL     1       4.445   4.372  16.851  0.00  0.00    +0.000 A 
ATOM     12  C   UNL     1       5.819   4.413  16.621  0.00  0.00    +0.000 A 
ATOM     13  C   UNL     1       6.617   4.761  17.687  0.00  0.00    +0.000 A 
ATOM     14  C   UNL     1       6.111   4.917  18.963  0.00  0.00    +0.000 A 
ATOM     15  C   UNL     1       4.768   4.847  19.229  0.00  0.00    +0.000 A 
ATOM     16  O   UNL     1       7.067   5.339  19.841  0.00  0.00    +0.000 OA
ATOM     17  C   UNL     1       8.020   5.834  18.881  0.00  0.00    +0.000 C 
ATOM     18  O   UNL     1       7.927   5.132  17.622  0.00  0.00    +0.000 OA
ENDBRANCH   9  10
ENDBRANCH   3   9
BRANCH   8  19
ATOM     19  C   UNL     1       1.575   9.930  18.546  0.00  0.00    +0.000 C 
BRANCH  19  20
ATOM     20  C   UNL     1       0.196  10.578  18.530  0.00  0.00    +0.000 A 
ATOM     21  C   UNL     1      -0.782  10.025  17.681  0.00  0.00    +0.000 A 
ATOM     22  C   UNL     1      -2.116  10.409  17.775  0.00  0.00    +0.000 A 
ATOM     23  C   UNL     1      -2.504  11.333  18.741  0.00  0.00    +0.000 A 
ATOM     24  C   UNL     1      -1.557  11.925  19.590  0.00  0.00    +0.000 A 
ATOM     25  C   UNL     1      -1.978  12.826  20.583  0.00  0.00    +0.000 A 
ATOM     26  C   UNL     1      -1.048  13.445  21.423  0.00  0.00    +0.000 A 
ATOM     27  C   UNL     1       0.309  13.208  21.241  0.00  0.00    +0.000 A 
ATOM     28  C   UNL     1       0.735  12.301  20.267  0.00  0.00    +0.000 A 
ATOM     29  C   UNL     1      -0.186  11.600  19.450  0.00  0.00    +0.000 A 
ENDBRANCH  19  20
ENDBRANCH   8  19
TORSDOF 4
ENDMDL
MODEL 6
REMARK VINA RESULT:      -8.7      2.672      3.977
REMARK  Name = 
REMARK  4 active torsions:
REMARK  status: ('A' for Active; 'I' for Inactive)
REMARK    1  A    between atoms: C_3  and  O_4
REMARK    2  A    between atoms: O_4  and  C_5
REMARK    3  A    between atoms: N_18  and  C_19
REMARK    4  A    between atoms: C_19  and  C_20
REMARK                            x       y       z     vdW  Elec       q    Type
REMARK                         _______ _______ _______ _____ _____    ______ ____
ROOT
ATOM      1  O   UNL     1       4.406   5.432  20.353  0.00  0.00    +0.000 OA
ATOM      2  C   UNL     1       3.438   4.928  19.780  0.00  0.00    +0.000 A 
ATOM      3  C   UNL     1       3.603   3.747  18.852  0.00  0.00    +0.000 A 
ATOM      4  C   UNL     1       2.530   2.970  18.676  0.00  0.00    +0.000 A 
ATOM      5 CL   UNL     1       2.548   1.490  17.804  0.00  0.00    +0.000 Cl
ATOM      6  C   UNL     1       1.246   3.434  19.201  0.00  0.00    +0.000 A 
ATOM      7  N   UNL     1       1.029   4.585  19.746  0.00  0.00    +0.000 NA
ATOM      8  N   UNL     1       2.132   5.398  19.942  0.00  0.00    +0.000 N 
ENDROOT
BRANCH   3   9
ATOM      9  O   UNL     1       4.814   3.391  18.240  0.00  0.00    +0.000 OA
BRANCH   9  10
ATOM     10  C   UNL     1       5.344   4.202  17.267  0.00  0.00    +0.000 A 
ATOM     11  C   UNL     1       6.354   5.150  17.536  0.00  0.00    +0.000 A 
ATOM     12  C   UNL     1       7.110   5.678  16.490  0.00  0.00    +0.000 A 
ATOM     13  C   UNL     1       6.796   5.251  15.220  0.00  0.00    +0.000 A 
ATOM     14  C   UNL     1       5.693   4.458  14.963  0.00  0.00    +0.000 A 
ATOM     15  C   UNL     1       4.908   3.953  15.966  0.00  0.00    +0.000 A 
ATOM     16  O   UNL     1       5.624   4.093  13.650  0.00  0.00    +0.000 OA
ATOM     17  C   UNL     1       6.993   4.362  13.292  0.00  0.00    +0.000 C 
ATOM     18  O   UNL     1       7.566   5.409  14.106  0.00  0.00    +0.000 OA
ENDBRANCH   9  10
ENDBRANCH   3   9
BRANCH   8  19
ATOM     19  C   UNL     1       1.893   6.607  20.737  0.00  0.00    +0.000 C 
BRANCH  19  20
ATOM     20  C   UNL     1       1.766   7.900  19.941  0.00  0.00    +0.000 A 
ATOM     21  C   UNL     1       2.281   7.920  18.631  0.00  0.00    +0.000 A 
ATOM     22  C   UNL     1       2.006   8.975  17.766  0.00  0.00    +0.000 A 
ATOM     23  C   UNL     1       1.183  10.016  18.185  0.00  0.00    +0.000 A 
ATOM     24  C   UNL     1       0.669  10.045  19.490  0.00  0.00    +0.000 A 
ATOM     25  C   UNL     1      -0.191  11.088  19.878  0.00  0.00    +0.000 A 
ATOM     26  C   UNL     1      -0.693  11.148  21.180  0.00  0.00    +0.000 A 
ATOM     27  C   UNL     1      -0.300  10.199  22.115  0.00  0.00    +0.000 A 
ATOM     28  C   UNL     1       0.542   9.150  21.734  0.00  0.00    +0.000 A 
ATOM     29  C   UNL     1       1.008   9.018  20.403  0.00  0.00    +0.000 A 
ENDBRANCH  19  20
ENDBRANCH   8  19
TORSDOF 4
ENDMDL
MODEL 7
REMARK VINA RESULT:      -8.7      1.254      2.619
REMARK  Name = 
REMARK  4 active torsions:
REMARK  status: ('A' for Active; 'I' for Inactive)
REMARK    1  A    between atoms: C_3  and  O_4
REMARK    2  A    between atoms: O_4  and  C_5
REMARK    3  A    between atoms: N_18  and  C_19
REMARK    4  A    between atoms: C_19  and  C_20
REMARK                            x       y       z     vdW  Elec       q    Type
REMARK                         _______ _______ _______ _____ _____    ______ ____
ROOT
ATOM      1  O   UNL     1       2.289   9.100  17.428  0.00  0.00    +0.000 OA
ATOM      2  C   UNL     1       1.786   8.643  18.456  0.00  0.00    +0.000 A 
ATOM      3  C   UNL     1       2.049   7.221  18.893  0.00  0.00    +0.000 A 
ATOM      4  C   UNL     1       1.906   6.959  20.195  0.00  0.00    +0.000 A 
ATOM      5 CL   UNL     1       2.319   5.460  20.926  0.00  0.00    +0.000 Cl
ATOM      6  C   UNL     1       1.305   7.986  21.046  0.00  0.00    +0.000 A 
ATOM      7  N   UNL     1       0.804   9.103  20.634  0.00  0.00    +0.000 NA
ATOM      8  N   UNL     1       0.950   9.392  19.288  0.00  0.00    +0.000 N 
ENDROOT
BRANCH   3   9
ATOM      9  O   UNL     1       2.495   6.205  18.035  0.00  0.00    +0.000 OA
BRANCH   9  10
ATOM     10  C   UNL     1       3.841   6.048  17.813  0.00  0.00    +0.000 A 
ATOM     11  C   UNL     1       4.538   6.781  16.829  0.00  0.00    +0.000 A 
ATOM     12  C   UNL     1       5.929   6.868  16.881  0.00  0.00    +0.000 A 
ATOM     13  C   UNL     1       6.555   6.189  17.901  0.00  0.00    +0.000 A 
ATOM     14  C   UNL     1       5.870   5.338  18.747  0.00  0.00    +0.000 A 
ATOM     15  C   UNL     1       4.507   5.202  18.698  0.00  0.00    +0.000 A 
ATOM     16  O   UNL     1       6.676   4.839  19.728  0.00  0.00    +0.000 OA
ATOM     17  C   UNL     1       7.734   5.812  19.637  0.00  0.00    +0.000 C 
ATOM     18  O   UNL     1       7.846   6.360  18.305  0.00  0.00    +0.000 OA
ENDBRANCH   9  10
ENDBRANCH   3   9
BRANCH   8  19
ATOM     19  C   UNL     1       0.554  10.745  18.885  0.00  0.00    +0.000 C 
BRANCH  19  20
ATOM     20  C   UNL     1      -0.891  10.895  18.426  0.00  0.00    +0.000 A 
ATOM     21  C   UNL     1      -1.355  10.029  17.418  0.00  0.00    +0.000 A 
ATOM     22  C   UNL     1      -2.709   9.948  17.106  0.00  0.00    +0.000 A 
ATOM     23  C   UNL     1      -3.630  10.708  17.820  0.00  0.00    +0.000 A 
ATOM     24  C   UNL     1      -3.206  11.601  18.816  0.00  0.00    +0.000 A 
ATOM     25  C   UNL     1      -4.158  12.331  19.550  0.00  0.00    +0.000 A 
ATOM     26  C   UNL     1      -3.756  13.242  20.529  0.00  0.00    +0.000 A 
ATOM     27  C   UNL     1      -2.402  13.468  20.745  0.00  0.00    +0.000 A 
ATOM     28  C   UNL     1      -1.449  12.735  20.032  0.00  0.00    +0.000 A 
ATOM     29  C   UNL     1      -1.825  11.750  19.086  0.00  0.00    +0.000 A 
ENDBRANCH  19  20
ENDBRANCH   8  19
TORSDOF 4
ENDMDL
MODEL 8
REMARK VINA RESULT:      -8.5      2.829      8.484
REMARK  Name = 
REMARK  4 active torsions:
REMARK  status: ('A' for Active; 'I' for Inactive)
REMARK    1  A    between atoms: C_3  and  O_4
REMARK    2  A    between atoms: O_4  and  C_5
REMARK    3  A    between atoms: N_18  and  C_19
REMARK    4  A    between atoms: C_19  and  C_20
REMARK                            x       y       z     vdW  Elec       q    Type
REMARK                         _______ _______ _______ _____ _____    ______ ____
ROOT
ATOM      1  O   UNL     1       1.317   9.260  17.298  0.00  0.00    +0.000 OA
ATOM      2  C   UNL     1       1.551   8.931  18.462  0.00  0.00    +0.000 A 
ATOM      3  C   UNL     1       0.884   9.631  19.624  0.00  0.00    +0.000 A 
ATOM      4  C   UNL     1       0.786   8.939  20.762  0.00  0.00    +0.000 A 
ATOM      5 CL   UNL     1      -0.081   9.479  22.144  0.00  0.00    +0.000 Cl
ATOM      6  C   UNL     1       1.509   7.672  20.867  0.00  0.00    +0.000 A 
ATOM      7  N   UNL     1       2.323   7.196  19.984  0.00  0.00    +0.000 NA
ATOM      8  N   UNL     1       2.431   7.899  18.796  0.00  0.00    +0.000 N 
ENDROOT
BRANCH   3   9
ATOM      9  O   UNL     1       0.314  10.911  19.548  0.00  0.00    +0.000 OA
BRANCH   9  10
ATOM     10  C   UNL     1      -1.044  11.038  19.388  0.00  0.00    +0.000 A 
ATOM     11  C   UNL     1      -1.801  12.005  20.083  0.00  0.00    +0.000 A 
ATOM     12  C   UNL     1      -3.076  12.345  19.632  0.00  0.00    +0.000 A 
ATOM     13  C   UNL     1      -3.542  11.675  18.523  0.00  0.00    +0.000 A 
ATOM     14  C   UNL     1      -2.857  10.613  17.965  0.00  0.00    +0.000 A 
ATOM     15  C   UNL     1      -1.618  10.230  18.408  0.00  0.00    +0.000 A 
ATOM     16  O   UNL     1      -3.463  10.157  16.831  0.00  0.00    +0.000 OA
ATOM     17  C   UNL     1      -4.272  11.315  16.553  0.00  0.00    +0.000 C 
ATOM     18  O   UNL     1      -4.612  12.035  17.758  0.00  0.00    +0.000 OA
ENDBRANCH   9  10
ENDBRANCH   3   9
BRANCH   8  19
ATOM     19  C   UNL     1       3.203   7.238  17.739  0.00  0.00    +0.000 C 
BRANCH  19  20
ATOM     20  C   UNL     1       3.840   5.910  18.126  0.00  0.00    +0.000 A 
ATOM     21  C   UNL     1       5.195   5.915  18.508  0.00  0.00    +0.000 A 
ATOM     22  C   UNL     1       5.784   4.796  19.088  0.00  0.00    +0.000 A 
ATOM     23  C   UNL     1       5.020   3.658  19.328  0.00  0.00    +0.000 A 
ATOM     24  C   UNL     1       3.672   3.603  18.940  0.00  0.00    +0.000 A 
ATOM     25  C   UNL     1       2.910   2.457  19.226  0.00  0.00    +0.000 A 
ATOM     26  C   UNL     1       1.574   2.373  18.828  0.00  0.00    +0.000 A 
ATOM     27  C   UNL     1       1.007   3.409  18.096  0.00  0.00    +0.000 A 
ATOM     28  C   UNL     1       1.752   4.560  17.822  0.00  0.00    +0.000 A 
ATOM     29  C   UNL     1       3.085   4.707  18.277  0.00  0.00    +0.000 A 
ENDBRANCH  19  20
ENDBRANCH   8  19
TORSDOF 4
ENDMDL
MODEL 9
REMARK VINA RESULT:      -8.3      2.615      8.723
REMARK  Name = 
REMARK  4 active torsions:
REMARK  status: ('A' for Active; 'I' for Inactive)
REMARK    1  A    between atoms: C_3  and  O_4
REMARK    2  A    between atoms: O_4  and  C_5
REMARK    3  A    between atoms: N_18  and  C_19
REMARK    4  A    between atoms: C_19  and  C_20
REMARK                            x       y       z     vdW  Elec       q    Type
REMARK                         _______ _______ _______ _____ _____    ______ ____
ROOT
ATOM      1  O   UNL     1       1.386   9.680  17.394  0.00  0.00    +0.000 OA
ATOM      2  C   UNL     1       1.547   9.248  18.537  0.00  0.00    +0.000 A 
ATOM      3  C   UNL     1       0.743   9.784  19.698  0.00  0.00    +0.000 A 
ATOM      4  C   UNL     1       0.600   8.973  20.751  0.00  0.00    +0.000 A 
ATOM      5 CL   UNL     1      -0.410   9.316  22.097  0.00  0.00    +0.000 Cl
ATOM      6  C   UNL     1       1.396   7.747  20.794  0.00  0.00    +0.000 A 
ATOM      7  N   UNL     1       2.310   7.415  19.943  0.00  0.00    +0.000 NA
ATOM      8  N   UNL     1       2.466   8.241  18.844  0.00  0.00    +0.000 N 
ENDROOT
BRANCH   3   9
ATOM      9  O   UNL     1       0.095  11.028  19.699  0.00  0.00    +0.000 OA
BRANCH   9  10
ATOM     10  C   UNL     1      -1.250  11.091  19.429  0.00  0.00    +0.000 A 
ATOM     11  C   UNL     1      -2.102  12.037  20.037  0.00  0.00    +0.000 A 
ATOM     12  C   UNL     1      -3.350  12.310  19.479  0.00  0.00    +0.000 A 
ATOM     13  C   UNL     1      -3.696  11.596  18.354  0.00  0.00    +0.000 A 
ATOM     14  C   UNL     1      -2.924  10.553  17.878  0.00  0.00    +0.000 A 
ATOM     15  C   UNL     1      -1.708  10.236  18.427  0.00  0.00    +0.000 A 
ATOM     16  O   UNL     1      -3.417  10.046  16.712  0.00  0.00    +0.000 OA
ATOM     17  C   UNL     1      -4.251  11.161  16.342  0.00  0.00    +0.000 C 
ATOM     18  O   UNL     1      -4.716  11.891  17.498  0.00  0.00    +0.000 OA
ENDBRANCH   9  10
ENDBRANCH   3   9
BRANCH   8  19
ATOM     19  C   UNL     1       3.363   7.739  17.798  0.00  0.00    +0.000 C 
BRANCH  19  20
ATOM     20  C   UNL     1       3.448   6.223  17.680  0.00  0.00    +0.000 A 
ATOM     21  C   UNL     1       2.286   5.475  17.948  0.00  0.00    +0.000 A 
ATOM     22  C   UNL     1       2.217   4.119  17.644  0.00  0.00    +0.000 A 
ATOM     23  C   UNL     1       3.300   3.490  17.038  0.00  0.00    +0.000 A 
ATOM     24  C   UNL     1       4.485   4.193  16.777  0.00  0.00    +0.000 A 
ATOM     25  C   UNL     1       5.553   3.546  16.129  0.00  0.00    +0.000 A 
ATOM     26  C   UNL     1       6.750   4.222  15.882  0.00  0.00    +0.000 A 
ATOM     27  C   UNL     1       6.907   5.529  16.326  0.00  0.00    +0.000 A 
ATOM     28  C   UNL     1       5.846   6.186  16.956  0.00  0.00    +0.000 A 
ATOM     29  C   UNL     1       4.594   5.553  17.154  0.00  0.00    +0.000 A 
ENDBRANCH  19  20
ENDBRANCH   8  19
TORSDOF 4
ENDMDL
