MODEL 1
REMARK VINA RESULT:      -8.5      0.000      0.000
REMARK  Name = 
REMARK  12 active torsions:
REMARK  status: ('A' for Active; 'I' for Inactive)
REMARK    1  A    between atoms: C_1  and  O_2
REMARK    2  A    between atoms: O_2  and  C_3
REMARK    3  A    between atoms: C_7  and  C_8
REMARK    4  A    between atoms: C_10  and  C_11
REMARK    5  A    between atoms: C_11  and  N_12
REMARK    6  A    between atoms: N_12  and  C_13
REMARK    7  A    between atoms: N_12  and  C_14
REMARK    8  A    between atoms: N_16  and  C_17
REMARK    9  A    between atoms: C_20  and  C_21
REMARK   10  A    between atoms: C_21  and  C_22
REMARK   11  A    between atoms: C_21  and  C_23
REMARK   12  A    between atoms: C_21  and  C_24
REMARK                            x       y       z     vdW  Elec       q    Type
REMARK                         _______ _______ _______ _____ _____    ______ ____
ROOT
ATOM      1  C   UNL     1       6.553   5.244  15.833  0.00  0.00    +0.000 A 
ATOM      2  N   UNL     1       6.926   5.302  14.560  0.00  0.00    +0.000 NA
ATOM      3  C   UNL     1       6.359   4.179  14.004  0.00  0.00    +0.000 A 
ATOM      4  N   UNL     1       5.708   3.405  14.875  0.00  0.00    +0.000 NA
ATOM      5  N   UNL     1       5.617   4.222  15.948  0.00  0.00    +0.000 N 
ENDROOT
BRANCH   1  10
ATOM      6  C   UNL     1       7.967   8.119  17.847  0.00  0.00    +0.000 A 
ATOM      7  C   UNL     1       8.383   7.460  19.007  0.00  0.00    +0.000 A 
ATOM      8  C   UNL     1       8.190   6.093  19.149  0.00  0.00    +0.000 A 
ATOM      9  C   UNL     1       7.587   5.374  18.119  0.00  0.00    +0.000 A 
ATOM     10  C   UNL     1       7.133   6.012  16.950  0.00  0.00    +0.000 A 
ATOM     11  C   UNL     1       7.334   7.396  16.828  0.00  0.00    +0.000 A 
BRANCH   6  13
ATOM     12  C   UNL     1       9.042   9.953  18.912  0.00  0.00    +0.000 C 
ATOM     13  O   UNL     1       8.262   9.455  17.835  0.00  0.00    +0.000 OA
ENDBRANCH   6  13
ENDBRANCH   1  10
BRANCH   5  14
ATOM     14  C   UNL     1       4.621   3.979  16.914  0.00  0.00    +0.000 A 
ATOM     15  C   UNL     1       3.884   5.066  17.379  0.00  0.00    +0.000 A 
ATOM     16  C   UNL     1       2.886   4.872  18.330  0.00  0.00    +0.000 A 
ATOM     17  C   UNL     1       2.629   3.603  18.871  0.00  0.00    +0.000 A 
ATOM     18  C   UNL     1       3.418   2.525  18.416  0.00  0.00    +0.000 A 
ATOM     19  C   UNL     1       4.399   2.703  17.434  0.00  0.00    +0.000 A 
BRANCH  17  20
ATOM     20  C   UNL     1       1.533   3.386  19.925  0.00  0.00    +0.000 C 
ATOM     21  C   UNL     1       2.042   2.648  21.184  0.00  0.00    +0.000 C 
ATOM     22  C   UNL     1       0.981   4.752  20.382  0.00  0.00    +0.000 C 
ATOM     23  C   UNL     1       0.389   2.542  19.327  0.00  0.00    +0.000 C 
ENDBRANCH  17  20
ENDBRANCH   5  14
BRANCH   3  24
ATOM     24  C   UNL     1       6.406   3.825  12.545  0.00  0.00    +0.000 C 
BRANCH  24  25
ATOM     25  N   UNL     1       5.436   2.772  12.140  0.00  0.00    +0.000 NA
ATOM     26  C   UNL     1       4.286   3.310  11.419  0.00  0.00    +0.000 C 
ATOM     27  C   UNL     1       6.082   1.708  11.380  0.00  0.00    +0.000 C 
ENDBRANCH  24  25
ENDBRANCH   3  24
TORSDOF 6
ENDMDL
MODEL 2
REMARK VINA RESULT:      -7.4      3.909      6.896
REMARK  Name = 
REMARK  12 active torsions:
REMARK  status: ('A' for Active; 'I' for Inactive)
REMARK    1  A    between atoms: C_1  and  O_2
REMARK    2  A    between atoms: O_2  and  C_3
REMARK    3  A    between atoms: C_7  and  C_8
REMARK    4  A    between atoms: C_10  and  C_11
REMARK    5  A    between atoms: C_11  and  N_12
REMARK    6  A    between atoms: N_12  and  C_13
REMARK    7  A    between atoms: N_12  and  C_14
REMARK    8  A    between atoms: N_16  and  C_17
REMARK    9  A    between atoms: C_20  and  C_21
REMARK   10  A    between atoms: C_21  and  C_22
REMARK   11  A    between atoms: C_21  and  C_23
REMARK   12  A    between atoms: C_21  and  C_24
REMARK                            x       y       z     vdW  Elec       q    Type
REMARK                         _______ _______ _______ _____ _____    ______ ____
ROOT
ATOM      1  C   UNL     1       3.896   5.248  18.302  0.00  0.00    +0.000 A 
ATOM      2  N   UNL     1       5.128   4.931  17.919  0.00  0.00    +0.000 NA
ATOM      3  C   UNL     1       5.522   6.013  17.167  0.00  0.00    +0.000 A 
ATOM      4  N   UNL     1       4.581   6.949  17.018  0.00  0.00    +0.000 NA
ATOM      5  N   UNL     1       3.677   6.575  17.950  0.00  0.00    +0.000 N 
ENDROOT
BRANCH   1  10
ATOM      6  C   UNL     1       2.118   2.893  20.671  0.00  0.00    +0.000 A 
ATOM      7  C   UNL     1       1.066   2.443  19.870  0.00  0.00    +0.000 A 
ATOM      8  C   UNL     1       0.916   2.914  18.572  0.00  0.00    +0.000 A 
ATOM      9  C   UNL     1       1.834   3.832  18.065  0.00  0.00    +0.000 A 
ATOM     10  C   UNL     1       2.888   4.325  18.857  0.00  0.00    +0.000 A 
ATOM     11  C   UNL     1       3.019   3.839  20.167  0.00  0.00    +0.000 A 
BRANCH   6  13
ATOM     12  C   UNL     1       0.933   2.221  22.620  0.00  0.00    +0.000 C 
ATOM     13  O   UNL     1       2.158   2.310  21.908  0.00  0.00    +0.000 OA
ENDBRANCH   6  13
ENDBRANCH   1  10
BRANCH   5  14
ATOM     14  C   UNL     1       2.762   7.528  18.440  0.00  0.00    +0.000 A 
ATOM     15  C   UNL     1       2.410   8.584  17.602  0.00  0.00    +0.000 A 
ATOM     16  C   UNL     1       1.506   9.547  18.042  0.00  0.00    +0.000 A 
ATOM     17  C   UNL     1       0.968   9.506  19.337  0.00  0.00    +0.000 A 
ATOM     18  C   UNL     1       1.375   8.451  20.182  0.00  0.00    +0.000 A 
ATOM     19  C   UNL     1       2.255   7.459  19.738  0.00  0.00    +0.000 A 
BRANCH  17  20
ATOM     20  C   UNL     1      -0.025  10.570  19.829  0.00  0.00    +0.000 C 
ATOM     21  C   UNL     1      -1.331  10.606  19.003  0.00  0.00    +0.000 C 
ATOM     22  C   UNL     1      -0.412  10.274  21.292  0.00  0.00    +0.000 C 
ATOM     23  C   UNL     1       0.616  11.969  19.738  0.00  0.00    +0.000 C 
ENDBRANCH  17  20
ENDBRANCH   5  14
BRANCH   3  24
ATOM     24  C   UNL     1       6.890   6.194  16.573  0.00  0.00    +0.000 C 
BRANCH  24  25
ATOM     25  N   UNL     1       7.877   6.820  17.492  0.00  0.00    +0.000 NA
ATOM     26  C   UNL     1       7.724   8.270  17.583  0.00  0.00    +0.000 C 
ATOM     27  C   UNL     1       7.848   6.206  18.814  0.00  0.00    +0.000 C 
ENDBRANCH  24  25
ENDBRANCH   3  24
TORSDOF 6
ENDMDL
MODEL 3
REMARK VINA RESULT:      -7.3      3.893      6.876
REMARK  Name = 
REMARK  12 active torsions:
REMARK  status: ('A' for Active; 'I' for Inactive)
REMARK    1  A    between atoms: C_1  and  O_2
REMARK    2  A    between atoms: O_2  and  C_3
REMARK    3  A    between atoms: C_7  and  C_8
REMARK    4  A    between atoms: C_10  and  C_11
REMARK    5  A    between atoms: C_11  and  N_12
REMARK    6  A    between atoms: N_12  and  C_13
REMARK    7  A    between atoms: N_12  and  C_14
REMARK    8  A    between atoms: N_16  and  C_17
REMARK    9  A    between atoms: C_20  and  C_21
REMARK   10  A    between atoms: C_21  and  C_22
REMARK   11  A    between atoms: C_21  and  C_23
REMARK   12  A    between atoms: C_21  and  C_24
REMARK                            x       y       z     vdW  Elec       q    Type
REMARK                         _______ _______ _______ _____ _____    ______ ____
ROOT
ATOM      1  C   UNL     1       3.840   5.289  18.320  0.00  0.00    +0.000 A 
ATOM      2  N   UNL     1       5.060   4.946  17.924  0.00  0.00    +0.000 NA
ATOM      3  C   UNL     1       5.462   6.011  17.151  0.00  0.00    +0.000 A 
ATOM      4  N   UNL     1       4.535   6.959  17.001  0.00  0.00    +0.000 NA
ATOM      5  N   UNL     1       3.638   6.614  17.951  0.00  0.00    +0.000 N 
ENDROOT
BRANCH   1  10
ATOM      6  C   UNL     1       2.064   2.986  20.741  0.00  0.00    +0.000 A 
ATOM      7  C   UNL     1       0.985   2.555  19.965  0.00  0.00    +0.000 A 
ATOM      8  C   UNL     1       0.817   3.022  18.669  0.00  0.00    +0.000 A 
ATOM      9  C   UNL     1       1.743   3.917  18.136  0.00  0.00    +0.000 A 
ATOM     10  C   UNL     1       2.825   4.391  18.901  0.00  0.00    +0.000 A 
ATOM     11  C   UNL     1       2.974   3.910  20.211  0.00  0.00    +0.000 A 
BRANCH   6  13
ATOM     12  C   UNL     1       0.881   2.147  22.625  0.00  0.00    +0.000 C 
ATOM     13  O   UNL     1       2.119   2.409  21.980  0.00  0.00    +0.000 OA
ENDBRANCH   6  13
ENDBRANCH   1  10
BRANCH   5  14
ATOM     14  C   UNL     1       2.746   7.589  18.440  0.00  0.00    +0.000 A 
ATOM     15  C   UNL     1       2.289   7.457  19.750  0.00  0.00    +0.000 A 
ATOM     16  C   UNL     1       1.411   8.400  20.276  0.00  0.00    +0.000 A 
ATOM     17  C   UNL     1       0.934   9.467  19.501  0.00  0.00    +0.000 A 
ATOM     18  C   UNL     1       1.377   9.555  18.164  0.00  0.00    +0.000 A 
ATOM     19  C   UNL     1       2.287   8.633  17.635  0.00  0.00    +0.000 A 
BRANCH  17  20
ATOM     20  C   UNL     1      -0.040  10.506  20.076  0.00  0.00    +0.000 C 
ATOM     21  C   UNL     1      -0.511  10.166  21.509  0.00  0.00    +0.000 C 
ATOM     22  C   UNL     1       0.651  11.883  20.132  0.00  0.00    +0.000 C 
ATOM     23  C   UNL     1      -1.298  10.596  19.189  0.00  0.00    +0.000 C 
ENDBRANCH  17  20
ENDBRANCH   5  14
BRANCH   3  24
ATOM     24  C   UNL     1       6.824   6.160  16.534  0.00  0.00    +0.000 C 
BRANCH  24  25
ATOM     25  N   UNL     1       7.845   6.745  17.444  0.00  0.00    +0.000 NA
ATOM     26  C   UNL     1       7.731   8.197  17.562  0.00  0.00    +0.000 C 
ATOM     27  C   UNL     1       7.826   6.109  18.756  0.00  0.00    +0.000 C 
ENDBRANCH  24  25
ENDBRANCH   3  24
TORSDOF 6
ENDMDL
MODEL 4
REMARK VINA RESULT:      -7.2      7.357     10.091
REMARK  Name = 
REMARK  12 active torsions:
REMARK  status: ('A' for Active; 'I' for Inactive)
REMARK    1  A    between atoms: C_1  and  O_2
REMARK    2  A    between atoms: O_2  and  C_3
REMARK    3  A    between atoms: C_7  and  C_8
REMARK    4  A    between atoms: C_10  and  C_11
REMARK    5  A    between atoms: C_11  and  N_12
REMARK    6  A    between atoms: N_12  and  C_13
REMARK    7  A    between atoms: N_12  and  C_14
REMARK    8  A    between atoms: N_16  and  C_17
REMARK    9  A    between atoms: C_20  and  C_21
REMARK   10  A    between atoms: C_21  and  C_22
REMARK   11  A    between atoms: C_21  and  C_23
REMARK   12  A    between atoms: C_21  and  C_24
REMARK                            x       y       z     vdW  Elec       q    Type
REMARK                         _______ _______ _______ _____ _____    ______ ____
ROOT
ATOM      1  C   UNL     1      -0.133  12.178  18.584  0.00  0.00    +0.000 A 
ATOM      2  N   UNL     1       0.208  13.455  18.446  0.00  0.00    +0.000 NA
ATOM      3  C   UNL     1       1.346  13.571  19.209  0.00  0.00    +0.000 A 
ATOM      4  N   UNL     1       1.690  12.454  19.854  0.00  0.00    +0.000 NA
ATOM      5  N   UNL     1       0.910  11.536  19.241  0.00  0.00    +0.000 N 
ENDROOT
BRANCH   1  10
ATOM      6  C   UNL     1      -2.816  10.243  16.746  0.00  0.00    +0.000 A 
ATOM      7  C   UNL     1      -3.948  10.564  17.498  0.00  0.00    +0.000 A 
ATOM      8  C   UNL     1      -3.844  11.388  18.611  0.00  0.00    +0.000 A 
ATOM      9  C   UNL     1      -2.601  11.907  18.968  0.00  0.00    +0.000 A 
ATOM     10  C   UNL     1      -1.438  11.580  18.246  0.00  0.00    +0.000 A 
ATOM     11  C   UNL     1      -1.564  10.742  17.127  0.00  0.00    +0.000 A 
BRANCH   6  13
ATOM     12  C   UNL     1      -3.395  10.123  14.443  0.00  0.00    +0.000 C 
ATOM     13  O   UNL     1      -3.080   9.457  15.658  0.00  0.00    +0.000 OA
ENDBRANCH   6  13
ENDBRANCH   1  10
BRANCH   5  14
ATOM     14  C   UNL     1       1.279  10.177  19.294  0.00  0.00    +0.000 A 
ATOM     15  C   UNL     1       1.809   9.599  18.141  0.00  0.00    +0.000 A 
ATOM     16  C   UNL     1       2.191   8.261  18.150  0.00  0.00    +0.000 A 
ATOM     17  C   UNL     1       2.015   7.458  19.285  0.00  0.00    +0.000 A 
ATOM     18  C   UNL     1       1.435   8.054  20.426  0.00  0.00    +0.000 A 
ATOM     19  C   UNL     1       1.080   9.407  20.441  0.00  0.00    +0.000 A 
BRANCH  17  20
ATOM     20  C   UNL     1       2.430   5.979  19.296  0.00  0.00    +0.000 C 
ATOM     21  C   UNL     1       3.959   5.780  19.394  0.00  0.00    +0.000 C 
ATOM     22  C   UNL     1       1.794   5.275  20.513  0.00  0.00    +0.000 C 
ATOM     23  C   UNL     1       1.959   5.292  17.999  0.00  0.00    +0.000 C 
ENDBRANCH  17  20
ENDBRANCH   5  14
BRANCH   3  24
ATOM     24  C   UNL     1       2.187  14.811  19.315  0.00  0.00    +0.000 C 
BRANCH  24  25
ATOM     25  N   UNL     1       2.962  15.130  18.086  0.00  0.00    +0.000 NA
ATOM     26  C   UNL     1       2.920  16.549  17.743  0.00  0.00    +0.000 C 
ATOM     27  C   UNL     1       4.337  14.652  18.176  0.00  0.00    +0.000 C 
ENDBRANCH  24  25
ENDBRANCH   3  24
TORSDOF 6
ENDMDL
MODEL 5
REMARK VINA RESULT:      -7.1      7.398     10.243
REMARK  Name = 
REMARK  12 active torsions:
REMARK  status: ('A' for Active; 'I' for Inactive)
REMARK    1  A    between atoms: C_1  and  O_2
REMARK    2  A    between atoms: O_2  and  C_3
REMARK    3  A    between atoms: C_7  and  C_8
REMARK    4  A    between atoms: C_10  and  C_11
REMARK    5  A    between atoms: C_11  and  N_12
REMARK    6  A    between atoms: N_12  and  C_13
REMARK    7  A    between atoms: N_12  and  C_14
REMARK    8  A    between atoms: N_16  and  C_17
REMARK    9  A    between atoms: C_20  and  C_21
REMARK   10  A    between atoms: C_21  and  C_22
REMARK   11  A    between atoms: C_21  and  C_23
REMARK   12  A    between atoms: C_21  and  C_24
REMARK                            x       y       z     vdW  Elec       q    Type
REMARK                         _______ _______ _______ _____ _____    ______ ____
ROOT
ATOM      1  C   UNL     1      -0.134  11.972  18.712  0.00  0.00    +0.000 A 
ATOM      2  N   UNL     1       0.190  13.260  18.699  0.00  0.00    +0.000 NA
ATOM      3  C   UNL     1       1.290  13.327  19.523  0.00  0.00    +0.000 A 
ATOM      4  N   UNL     1       1.622  12.164  20.088  0.00  0.00    +0.000 NA
ATOM      5  N   UNL     1       0.889  11.291  19.362  0.00  0.00    +0.000 N 
ENDROOT
BRANCH   1  10
ATOM      6  C   UNL     1      -3.844  11.317  18.362  0.00  0.00    +0.000 A 
ATOM      7  C   UNL     1      -3.845  10.186  17.542  0.00  0.00    +0.000 A 
ATOM      8  C   UNL     1      -2.651   9.646  17.085  0.00  0.00    +0.000 A 
ATOM      9  C   UNL     1      -1.443  10.232  17.460  0.00  0.00    +0.000 A 
ATOM     10  C   UNL     1      -1.411  11.388  18.262  0.00  0.00    +0.000 A 
ATOM     11  C   UNL     1      -2.630  11.920  18.711  0.00  0.00    +0.000 A 
BRANCH   6  13
ATOM     12  C   UNL     1      -6.140  10.759  18.629  0.00  0.00    +0.000 C 
ATOM     13  O   UNL     1      -5.092  11.707  18.765  0.00  0.00    +0.000 OA
ENDBRANCH   6  13
ENDBRANCH   1  10
BRANCH   5  14
ATOM     14  C   UNL     1       1.278   9.938  19.319  0.00  0.00    +0.000 A 
ATOM     15  C   UNL     1       1.123   9.177  20.476  0.00  0.00    +0.000 A 
ATOM     16  C   UNL     1       1.490   7.834  20.477  0.00  0.00    +0.000 A 
ATOM     17  C   UNL     1       2.059   7.231  19.346  0.00  0.00    +0.000 A 
ATOM     18  C   UNL     1       2.247   8.033  18.201  0.00  0.00    +0.000 A 
ATOM     19  C   UNL     1       1.849   9.374  18.176  0.00  0.00    +0.000 A 
BRANCH  17  20
ATOM     20  C   UNL     1       2.471   5.751  19.346  0.00  0.00    +0.000 C 
ATOM     21  C   UNL     1       1.845   4.949  20.509  0.00  0.00    +0.000 C 
ATOM     22  C   UNL     1       2.013   5.090  18.030  0.00  0.00    +0.000 C 
ATOM     23  C   UNL     1       4.003   5.632  19.477  0.00  0.00    +0.000 C 
ENDBRANCH  17  20
ENDBRANCH   5  14
BRANCH   3  24
ATOM     24  C   UNL     1       2.103  14.565  19.773  0.00  0.00    +0.000 C 
BRANCH  24  25
ATOM     25  N   UNL     1       2.737  15.135  18.555  0.00  0.00    +0.000 NA
ATOM     26  C   UNL     1       2.916  16.583  18.635  0.00  0.00    +0.000 C 
ATOM     27  C   UNL     1       3.995  14.467  18.239  0.00  0.00    +0.000 C 
ENDBRANCH  24  25
ENDBRANCH   3  24
TORSDOF 6
ENDMDL
MODEL 6
REMARK VINA RESULT:      -7.1      7.575     10.300
REMARK  Name = 
REMARK  12 active torsions:
REMARK  status: ('A' for Active; 'I' for Inactive)
REMARK    1  A    between atoms: C_1  and  O_2
REMARK    2  A    between atoms: O_2  and  C_3
REMARK    3  A    between atoms: C_7  and  C_8
REMARK    4  A    between atoms: C_10  and  C_11
REMARK    5  A    between atoms: C_11  and  N_12
REMARK    6  A    between atoms: N_12  and  C_13
REMARK    7  A    between atoms: N_12  and  C_14
REMARK    8  A    between atoms: N_16  and  C_17
REMARK    9  A    between atoms: C_20  and  C_21
REMARK   10  A    between atoms: C_21  and  C_22
REMARK   11  A    between atoms: C_21  and  C_23
REMARK   12  A    between atoms: C_21  and  C_24
REMARK                            x       y       z     vdW  Elec       q    Type
REMARK                         _______ _______ _______ _____ _____    ______ ____
ROOT
ATOM      1  C   UNL     1      -0.163  12.141  18.620  0.00  0.00    +0.000 A 
ATOM      2  N   UNL     1       0.169  13.426  18.548  0.00  0.00    +0.000 NA
ATOM      3  C   UNL     1       1.313  13.508  19.307  0.00  0.00    +0.000 A 
ATOM      4  N   UNL     1       1.669  12.361  19.889  0.00  0.00    +0.000 NA
ATOM      5  N   UNL     1       0.890  11.472  19.233  0.00  0.00    +0.000 N 
ENDROOT
BRANCH   1  10
ATOM      6  C   UNL     1      -2.830  10.227  16.738  0.00  0.00    +0.000 A 
ATOM      7  C   UNL     1      -3.972  10.557  17.472  0.00  0.00    +0.000 A 
ATOM      8  C   UNL     1      -3.879  11.380  18.587  0.00  0.00    +0.000 A 
ATOM      9  C   UNL     1      -2.638  11.889  18.964  0.00  0.00    +0.000 A 
ATOM     10  C   UNL     1      -1.466  11.554  18.261  0.00  0.00    +0.000 A 
ATOM     11  C   UNL     1      -1.581  10.717  17.139  0.00  0.00    +0.000 A 
BRANCH   6  13
ATOM     12  C   UNL     1      -3.244  10.107  14.400  0.00  0.00    +0.000 C 
ATOM     13  O   UNL     1      -3.083   9.444  15.646  0.00  0.00    +0.000 OA
ENDBRANCH   6  13
ENDBRANCH   1  10
BRANCH   5  14
ATOM     14  C   UNL     1       1.268  10.115  19.211  0.00  0.00    +0.000 A 
ATOM     15  C   UNL     1       1.139   9.382  20.390  0.00  0.00    +0.000 A 
ATOM     16  C   UNL     1       1.496   8.037  20.412  0.00  0.00    +0.000 A 
ATOM     17  C   UNL     1       2.028   7.403  19.280  0.00  0.00    +0.000 A 
ATOM     18  C   UNL     1       2.190   8.177  18.112  0.00  0.00    +0.000 A 
ATOM     19  C   UNL     1       1.802   9.520  18.067  0.00  0.00    +0.000 A 
BRANCH  17  20
ATOM     20  C   UNL     1       2.428   5.920  19.304  0.00  0.00    +0.000 C 
ATOM     21  C   UNL     1       3.954   5.707  19.428  0.00  0.00    +0.000 C 
ATOM     22  C   UNL     1       1.766   5.228  20.513  0.00  0.00    +0.000 C 
ATOM     23  C   UNL     1       1.972   5.232  18.002  0.00  0.00    +0.000 C 
ENDBRANCH  17  20
ENDBRANCH   5  14
BRANCH   3  24
ATOM     24  C   UNL     1       2.147  14.747  19.472  0.00  0.00    +0.000 C 
BRANCH  24  25
ATOM     25  N   UNL     1       1.779  15.857  18.553  0.00  0.00    +0.000 NA
ATOM     26  C   UNL     1       1.066  16.938  19.229  0.00  0.00    +0.000 C 
ATOM     27  C   UNL     1       2.940  16.366  17.831  0.00  0.00    +0.000 C 
ENDBRANCH  24  25
ENDBRANCH   3  24
TORSDOF 6
ENDMDL
MODEL 7
REMARK VINA RESULT:      -7.1      7.261     10.117
REMARK  Name = 
REMARK  12 active torsions:
REMARK  status: ('A' for Active; 'I' for Inactive)
REMARK    1  A    between atoms: C_1  and  O_2
REMARK    2  A    between atoms: O_2  and  C_3
REMARK    3  A    between atoms: C_7  and  C_8
REMARK    4  A    between atoms: C_10  and  C_11
REMARK    5  A    between atoms: C_11  and  N_12
REMARK    6  A    between atoms: N_12  and  C_13
REMARK    7  A    between atoms: N_12  and  C_14
REMARK    8  A    between atoms: N_16  and  C_17
REMARK    9  A    between atoms: C_20  and  C_21
REMARK   10  A    between atoms: C_21  and  C_22
REMARK   11  A    between atoms: C_21  and  C_23
REMARK   12  A    between atoms: C_21  and  C_24
REMARK                            x       y       z     vdW  Elec       q    Type
REMARK                         _______ _______ _______ _____ _____    ______ ____
ROOT
ATOM      1  C   UNL     1      -0.180  12.127  18.622  0.00  0.00    +0.000 A 
ATOM      2  N   UNL     1       0.151  13.412  18.551  0.00  0.00    +0.000 NA
ATOM      3  C   UNL     1       1.297  13.494  19.308  0.00  0.00    +0.000 A 
ATOM      4  N   UNL     1       1.654  12.346  19.887  0.00  0.00    +0.000 NA
ATOM      5  N   UNL     1       0.875  11.458  19.232  0.00  0.00    +0.000 N 
ENDROOT
BRANCH   1  10
ATOM      6  C   UNL     1      -2.853  10.223  16.739  0.00  0.00    +0.000 A 
ATOM      7  C   UNL     1      -3.991  10.544  17.482  0.00  0.00    +0.000 A 
ATOM      8  C   UNL     1      -3.895  11.358  18.603  0.00  0.00    +0.000 A 
ATOM      9  C   UNL     1      -2.653  11.867  18.977  0.00  0.00    +0.000 A 
ATOM     10  C   UNL     1      -1.484  11.540  18.265  0.00  0.00    +0.000 A 
ATOM     11  C   UNL     1      -1.603  10.712  17.138  0.00  0.00    +0.000 A 
BRANCH   6  13
ATOM     12  C   UNL     1      -3.331  10.124  14.412  0.00  0.00    +0.000 C 
ATOM     13  O   UNL     1      -3.110   9.448  15.642  0.00  0.00    +0.000 OA
ENDBRANCH   6  13
ENDBRANCH   1  10
BRANCH   5  14
ATOM     14  C   UNL     1       1.253  10.101  19.207  0.00  0.00    +0.000 A 
ATOM     15  C   UNL     1       1.104   9.360  20.378  0.00  0.00    +0.000 A 
ATOM     16  C   UNL     1       1.460   8.015  20.397  0.00  0.00    +0.000 A 
ATOM     17  C   UNL     1       2.012   7.388  19.271  0.00  0.00    +0.000 A 
ATOM     18  C   UNL     1       2.195   8.171  18.111  0.00  0.00    +0.000 A 
ATOM     19  C   UNL     1       1.807   9.514  18.068  0.00  0.00    +0.000 A 
BRANCH  17  20
ATOM     20  C   UNL     1       2.412   5.905  19.291  0.00  0.00    +0.000 C 
ATOM     21  C   UNL     1       1.973   5.143  18.020  0.00  0.00    +0.000 C 
ATOM     22  C   UNL     1       3.947   5.788  19.392  0.00  0.00    +0.000 C 
ATOM     23  C   UNL     1       1.761   5.201  20.498  0.00  0.00    +0.000 C 
ENDBRANCH  17  20
ENDBRANCH   5  14
BRANCH   3  24
ATOM     24  C   UNL     1       2.131  14.733  19.474  0.00  0.00    +0.000 C 
BRANCH  24  25
ATOM     25  N   UNL     1       3.592  14.511  19.308  0.00  0.00    +0.000 NA
ATOM     26  C   UNL     1       4.088  14.959  18.009  0.00  0.00    +0.000 C 
ATOM     27  C   UNL     1       4.355  15.112  20.396  0.00  0.00    +0.000 C 
ENDBRANCH  24  25
ENDBRANCH   3  24
TORSDOF 6
ENDMDL
MODEL 8
REMARK VINA RESULT:      -7.1      7.354     10.188
REMARK  Name = 
REMARK  12 active torsions:
REMARK  status: ('A' for Active; 'I' for Inactive)
REMARK    1  A    between atoms: C_1  and  O_2
REMARK    2  A    between atoms: O_2  and  C_3
REMARK    3  A    between atoms: C_7  and  C_8
REMARK    4  A    between atoms: C_10  and  C_11
REMARK    5  A    between atoms: C_11  and  N_12
REMARK    6  A    between atoms: N_12  and  C_13
REMARK    7  A    between atoms: N_12  and  C_14
REMARK    8  A    between atoms: N_16  and  C_17
REMARK    9  A    between atoms: C_20  and  C_21
REMARK   10  A    between atoms: C_21  and  C_22
REMARK   11  A    between atoms: C_21  and  C_23
REMARK   12  A    between atoms: C_21  and  C_24
REMARK                            x       y       z     vdW  Elec       q    Type
REMARK                         _______ _______ _______ _____ _____    ______ ____
ROOT
ATOM      1  C   UNL     1      -0.128  12.006  18.562  0.00  0.00    +0.000 A 
ATOM      2  N   UNL     1       0.204  13.287  18.443  0.00  0.00    +0.000 NA
ATOM      3  C   UNL     1       1.321  13.407  19.238  0.00  0.00    +0.000 A 
ATOM      4  N   UNL     1       1.657  12.288  19.883  0.00  0.00    +0.000 NA
ATOM      5  N   UNL     1       0.903  11.369  19.242  0.00  0.00    +0.000 N 
ENDROOT
BRANCH   1  10
ATOM      6  C   UNL     1      -3.844  11.308  18.397  0.00  0.00    +0.000 A 
ATOM      7  C   UNL     1      -3.870  10.158  17.604  0.00  0.00    +0.000 A 
ATOM      8  C   UNL     1      -2.692   9.619  17.104  0.00  0.00    +0.000 A 
ATOM      9  C   UNL     1      -1.475  10.226  17.411  0.00  0.00    +0.000 A 
ATOM     10  C   UNL     1      -1.418  11.400  18.185  0.00  0.00    +0.000 A 
ATOM     11  C   UNL     1      -2.621  11.930  18.677  0.00  0.00    +0.000 A 
BRANCH   6  13
ATOM     12  C   UNL     1      -6.161  11.581  17.940  0.00  0.00    +0.000 C 
ATOM     13  O   UNL     1      -5.075  11.695  18.849  0.00  0.00    +0.000 OA
ENDBRANCH   6  13
ENDBRANCH   1  10
BRANCH   5  14
ATOM     14  C   UNL     1       1.283  10.013  19.294  0.00  0.00    +0.000 A 
ATOM     15  C   UNL     1       1.837   9.446  18.147  0.00  0.00    +0.000 A 
ATOM     16  C   UNL     1       2.231   8.111  18.155  0.00  0.00    +0.000 A 
ATOM     17  C   UNL     1       2.042   7.300  19.283  0.00  0.00    +0.000 A 
ATOM     18  C   UNL     1       1.439   7.884  20.416  0.00  0.00    +0.000 A 
ATOM     19  C   UNL     1       1.072   9.234  20.433  0.00  0.00    +0.000 A 
BRANCH  17  20
ATOM     20  C   UNL     1       2.470   5.824  19.292  0.00  0.00    +0.000 C 
ATOM     21  C   UNL     1       2.072   5.070  18.003  0.00  0.00    +0.000 C 
ATOM     22  C   UNL     1       4.004   5.735  19.424  0.00  0.00    +0.000 C 
ATOM     23  C   UNL     1       1.808   5.093  20.477  0.00  0.00    +0.000 C 
ENDBRANCH  17  20
ENDBRANCH   5  14
BRANCH   3  24
ATOM     24  C   UNL     1       2.147  14.654  19.376  0.00  0.00    +0.000 C 
BRANCH  24  25
ATOM     25  N   UNL     1       3.448  14.607  18.657  0.00  0.00    +0.000 NA
ATOM     26  C   UNL     1       3.469  15.456  17.468  0.00  0.00    +0.000 C 
ATOM     27  C   UNL     1       4.565  14.917  19.543  0.00  0.00    +0.000 C 
ENDBRANCH  24  25
ENDBRANCH   3  24
TORSDOF 6
ENDMDL
MODEL 9
REMARK VINA RESULT:      -7.0      7.637     10.354
REMARK  Name = 
REMARK  12 active torsions:
REMARK  status: ('A' for Active; 'I' for Inactive)
REMARK    1  A    between atoms: C_1  and  O_2
REMARK    2  A    between atoms: O_2  and  C_3
REMARK    3  A    between atoms: C_7  and  C_8
REMARK    4  A    between atoms: C_10  and  C_11
REMARK    5  A    between atoms: C_11  and  N_12
REMARK    6  A    between atoms: N_12  and  C_13
REMARK    7  A    between atoms: N_12  and  C_14
REMARK    8  A    between atoms: N_16  and  C_17
REMARK    9  A    between atoms: C_20  and  C_21
REMARK   10  A    between atoms: C_21  and  C_22
REMARK   11  A    between atoms: C_21  and  C_23
REMARK   12  A    between atoms: C_21  and  C_24
REMARK                            x       y       z     vdW  Elec       q    Type
REMARK                         _______ _______ _______ _____ _____    ______ ____
ROOT
ATOM      1  C   UNL     1      -0.174  12.054  18.625  0.00  0.00    +0.000 A 
ATOM      2  N   UNL     1       0.137  13.344  18.564  0.00  0.00    +0.000 NA
ATOM      3  C   UNL     1       1.268  13.442  19.341  0.00  0.00    +0.000 A 
ATOM      4  N   UNL     1       1.634  12.297  19.923  0.00  0.00    +0.000 NA
ATOM      5  N   UNL     1       0.880  11.400  19.251  0.00  0.00    +0.000 N 
ENDROOT
BRANCH   1  10
ATOM      6  C   UNL     1      -3.881  11.305  18.501  0.00  0.00    +0.000 A 
ATOM      7  C   UNL     1      -3.907  10.198  17.649  0.00  0.00    +0.000 A 
ATOM      8  C   UNL     1      -2.732   9.705  17.097  0.00  0.00    +0.000 A 
ATOM      9  C   UNL     1      -1.519  10.315  17.410  0.00  0.00    +0.000 A 
ATOM     10  C   UNL     1      -1.462  11.447  18.243  0.00  0.00    +0.000 A 
ATOM     11  C   UNL     1      -2.662  11.932  18.787  0.00  0.00    +0.000 A 
BRANCH   6  13
ATOM     12  C   UNL     1      -5.209  12.902  19.659  0.00  0.00    +0.000 C 
ATOM     13  O   UNL     1      -5.109  11.649  18.998  0.00  0.00    +0.000 OA
ENDBRANCH   6  13
ENDBRANCH   1  10
BRANCH   5  14
ATOM     14  C   UNL     1       1.280  10.049  19.228  0.00  0.00    +0.000 A 
ATOM     15  C   UNL     1       1.096   9.293  20.385  0.00  0.00    +0.000 A 
ATOM     16  C   UNL     1       1.472   7.954  20.405  0.00  0.00    +0.000 A 
ATOM     17  C   UNL     1       2.079   7.348  19.296  0.00  0.00    +0.000 A 
ATOM     18  C   UNL     1       2.296   8.145  18.152  0.00  0.00    +0.000 A 
ATOM     19  C   UNL     1       1.890   9.483  18.107  0.00  0.00    +0.000 A 
BRANCH  17  20
ATOM     20  C   UNL     1       2.501   5.871  19.318  0.00  0.00    +0.000 C 
ATOM     21  C   UNL     1       4.033   5.680  19.406  0.00  0.00    +0.000 C 
ATOM     22  C   UNL     1       1.879   5.177  20.546  0.00  0.00    +0.000 C 
ATOM     23  C   UNL     1       2.023   5.169  18.031  0.00  0.00    +0.000 C 
ENDBRANCH  17  20
ENDBRANCH   5  14
BRANCH   3  24
ATOM     24  C   UNL     1       2.079  14.693  19.525  0.00  0.00    +0.000 C 
BRANCH  24  25
ATOM     25  N   UNL     1       2.004  15.642  18.383  0.00  0.00    +0.000 NA
ATOM     26  C   UNL     1       1.303  16.879  18.720  0.00  0.00    +0.000 C 
ATOM     27  C   UNL     1       3.323  15.922  17.826  0.00  0.00    +0.000 C 
ENDBRANCH  24  25
ENDBRANCH   3  24
TORSDOF 6
ENDMDL
