MODEL 1
REMARK VINA RESULT:      -6.8      0.000      0.000
REMARK  Name = 
REMARK  8 active torsions:
REMARK  status: ('A' for Active; 'I' for Inactive)
REMARK    1  A    between atoms: C_2  and  O_3
REMARK    2  A    between atoms: C_2  and  C_4
REMARK    3  A    between atoms: C_4  and  C_5
REMARK    4  A    between atoms: N_7  and  C_8
REMARK    5  A    between atoms: C_8  and  C_9
REMARK    6  A    between atoms: C_9  and  O_10
REMARK    7  A    between atoms: C_9  and  C_11
REMARK    8  A    between atoms: C_11  and  N_12
REMARK                            x       y       z     vdW  Elec       q    Type
REMARK                         _______ _______ _______ _____ _____    ______ ____
ROOT
ATOM      1  C   UNL     1       2.725   3.451  18.873  0.00  0.00    +0.000 A 
ATOM      2  C   UNL     1       3.352   3.110  17.694  0.00  0.00    +0.000 A 
ATOM      3  N   UNL     1       3.725   4.260  17.045  0.00  0.00    +0.000 N 
ATOM      4  C   UNL     1       3.332   5.361  17.780  0.00  0.00    +0.000 A 
ATOM      5  C   UNL     1       3.489   6.738  17.546  0.00  0.00    +0.000 A 
ATOM      6  C   UNL     1       2.969   7.633  18.486  0.00  0.00    +0.000 A 
ATOM      7  C   UNL     1       2.311   7.175  19.621  0.00  0.00    +0.000 A 
ATOM      8  C   UNL     1       2.165   5.805  19.854  0.00  0.00    +0.000 A 
ATOM      9  C   UNL     1       2.683   4.879  18.920  0.00  0.00    +0.000 A 
ENDROOT
BRANCH   1  10
ATOM     10  C   UNL     1       2.222   2.496  19.910  0.00  0.00    +0.000 C 
BRANCH  10  12
ATOM     11  O   UNL     1       4.146   2.127  21.297  0.00  0.00    +0.000 OA
ATOM     12  C   UNL     1       2.984   2.519  21.221  0.00  0.00    +0.000 C 
BRANCH  12  13
ATOM     13  O   UNL     1       2.340   2.987  22.309  0.00  0.00    +0.000 OA
ATOM     14  H   UNL     1       1.457   3.368  22.122  0.00  0.00    +0.000 HD
ENDBRANCH  12  13
ENDBRANCH  10  12
ENDBRANCH   1  10
BRANCH   3  15
ATOM     15  C   UNL     1       4.409   4.281  15.758  0.00  0.00    +0.000 C 
BRANCH  15  16
ATOM     16  C   UNL     1       5.944   4.157  15.850  0.00  0.00    +0.000 C 
BRANCH  16  17
ATOM     17  O   UNL     1       6.441   3.224  14.883  0.00  0.00    +0.000 OA
ATOM     18  H   UNL     1       6.177   3.539  13.999  0.00  0.00    +0.000 HD
ENDBRANCH  16  17
BRANCH  16  19
ATOM     19  C   UNL     1       6.707   5.503  15.730  0.00  0.00    +0.000 C 
BRANCH  19  20
ATOM     20  N   UNL     1       7.398   5.857  16.956  0.00  0.00    +0.000 NA
ATOM     21  C   UNL     1       7.245   7.222  17.448  0.00  0.00    +0.000 C 
ATOM     22  C   UNL     1       8.198   7.118  18.624  0.00  0.00    +0.000 C 
ATOM     23  C   UNL     1       7.793   5.791  19.261  0.00  0.00    +0.000 C 
ATOM     24  C   UNL     1       7.169   4.991  18.112  0.00  0.00    +0.000 C 
ENDBRANCH  19  20
ENDBRANCH  16  19
ENDBRANCH  15  16
ENDBRANCH   3  15
TORSDOF 8
ENDMDL
MODEL 2
REMARK VINA RESULT:      -6.8      0.921      1.060
REMARK  Name = 
REMARK  8 active torsions:
REMARK  status: ('A' for Active; 'I' for Inactive)
REMARK    1  A    between atoms: C_2  and  O_3
REMARK    2  A    between atoms: C_2  and  C_4
REMARK    3  A    between atoms: C_4  and  C_5
REMARK    4  A    between atoms: N_7  and  C_8
REMARK    5  A    between atoms: C_8  and  C_9
REMARK    6  A    between atoms: C_9  and  O_10
REMARK    7  A    between atoms: C_9  and  C_11
REMARK    8  A    between atoms: C_11  and  N_12
REMARK                            x       y       z     vdW  Elec       q    Type
REMARK                         _______ _______ _______ _____ _____    ______ ____
ROOT
ATOM      1  C   UNL     1       3.174   4.067  19.552  0.00  0.00    +0.000 A 
ATOM      2  C   UNL     1       3.704   3.481  18.423  0.00  0.00    +0.000 A 
ATOM      3  N   UNL     1       3.807   4.433  17.440  0.00  0.00    +0.000 N 
ATOM      4  C   UNL     1       3.330   5.642  17.907  0.00  0.00    +0.000 A 
ATOM      5  C   UNL     1       3.235   6.902  17.292  0.00  0.00    +0.000 A 
ATOM      6  C   UNL     1       2.691   7.959  18.029  0.00  0.00    +0.000 A 
ATOM      7  C   UNL     1       2.255   7.769  19.336  0.00  0.00    +0.000 A 
ATOM      8  C   UNL     1       2.361   6.517  19.946  0.00  0.00    +0.000 A 
ATOM      9  C   UNL     1       2.907   5.432  19.222  0.00  0.00    +0.000 A 
ENDROOT
BRANCH   1  10
ATOM     10  C   UNL     1       2.958   3.396  20.873  0.00  0.00    +0.000 C 
BRANCH  10  12
ATOM     11  O   UNL     1       0.654   3.067  20.284  0.00  0.00    +0.000 OA
ATOM     12  C   UNL     1       1.532   2.953  21.137  0.00  0.00    +0.000 C 
BRANCH  12  13
ATOM     13  O   UNL     1       1.257   2.424  22.346  0.00  0.00    +0.000 OA
ATOM     14  H   UNL     1       1.990   2.493  22.992  0.00  0.00    +0.000 HD
ENDBRANCH  12  13
ENDBRANCH  10  12
ENDBRANCH   1  10
BRANCH   3  15
ATOM     15  C   UNL     1       4.321   4.167  16.102  0.00  0.00    +0.000 C 
BRANCH  15  16
ATOM     16  C   UNL     1       5.861   4.129  16.007  0.00  0.00    +0.000 C 
BRANCH  16  17
ATOM     17  O   UNL     1       6.289   3.210  14.994  0.00  0.00    +0.000 OA
ATOM     18  H   UNL     1       5.705   2.431  15.031  0.00  0.00    +0.000 HD
ENDBRANCH  16  17
BRANCH  16  19
ATOM     19  C   UNL     1       6.527   5.512  15.785  0.00  0.00    +0.000 C 
BRANCH  19  20
ATOM     20  N   UNL     1       7.314   5.937  16.929  0.00  0.00    +0.000 NA
ATOM     21  C   UNL     1       7.025   7.249  17.499  0.00  0.00    +0.000 C 
ATOM     22  C   UNL     1       8.129   7.262  18.538  0.00  0.00    +0.000 C 
ATOM     23  C   UNL     1       8.015   5.873  19.160  0.00  0.00    +0.000 C 
ATOM     24  C   UNL     1       7.371   5.016  18.064  0.00  0.00    +0.000 C 
ENDBRANCH  19  20
ENDBRANCH  16  19
ENDBRANCH  15  16
ENDBRANCH   3  15
TORSDOF 8
ENDMDL
MODEL 3
REMARK VINA RESULT:      -6.7      0.735      1.216
REMARK  Name = 
REMARK  8 active torsions:
REMARK  status: ('A' for Active; 'I' for Inactive)
REMARK    1  A    between atoms: C_2  and  O_3
REMARK    2  A    between atoms: C_2  and  C_4
REMARK    3  A    between atoms: C_4  and  C_5
REMARK    4  A    between atoms: N_7  and  C_8
REMARK    5  A    between atoms: C_8  and  C_9
REMARK    6  A    between atoms: C_9  and  O_10
REMARK    7  A    between atoms: C_9  and  C_11
REMARK    8  A    between atoms: C_11  and  N_12
REMARK                            x       y       z     vdW  Elec       q    Type
REMARK                         _______ _______ _______ _____ _____    ______ ____
ROOT
ATOM      1  C   UNL     1       3.610   3.562  19.049  0.00  0.00    +0.000 A 
ATOM      2  C   UNL     1       4.123   3.230  17.813  0.00  0.00    +0.000 A 
ATOM      3  N   UNL     1       4.120   4.349  17.020  0.00  0.00    +0.000 N 
ATOM      4  C   UNL     1       3.589   5.416  17.718  0.00  0.00    +0.000 A 
ATOM      5  C   UNL     1       3.386   6.758  17.350  0.00  0.00    +0.000 A 
ATOM      6  C   UNL     1       2.811   7.621  18.287  0.00  0.00    +0.000 A 
ATOM      7  C   UNL     1       2.448   7.167  19.550  0.00  0.00    +0.000 A 
ATOM      8  C   UNL     1       2.662   5.835  19.915  0.00  0.00    +0.000 A 
ATOM      9  C   UNL     1       3.242   4.941  18.985  0.00  0.00    +0.000 A 
ENDROOT
BRANCH   1  10
ATOM     10  C   UNL     1       3.498   2.648  20.229  0.00  0.00    +0.000 C 
BRANCH  10  12
ATOM     11  O   UNL     1       1.113   2.648  20.500  0.00  0.00    +0.000 OA
ATOM     12  C   UNL     1       2.215   2.790  21.025  0.00  0.00    +0.000 C 
BRANCH  12  13
ATOM     13  O   UNL     1       2.324   3.076  22.338  0.00  0.00    +0.000 OA
ATOM     14  H   UNL     1       2.853   3.878  22.533  0.00  0.00    +0.000 HD
ENDBRANCH  12  13
ENDBRANCH  10  12
ENDBRANCH   1  10
BRANCH   3  15
ATOM     15  C   UNL     1       4.588   4.369  15.640  0.00  0.00    +0.000 C 
BRANCH  15  16
ATOM     16  C   UNL     1       6.069   3.977  15.463  0.00  0.00    +0.000 C 
BRANCH  16  17
ATOM     17  O   UNL     1       6.278   3.313  14.210  0.00  0.00    +0.000 OA
ATOM     18  H   UNL     1       7.170   3.545  13.894  0.00  0.00    +0.000 HD
ENDBRANCH  16  17
BRANCH  16  19
ATOM     19  C   UNL     1       7.069   5.153  15.613  0.00  0.00    +0.000 C 
BRANCH  19  20
ATOM     20  N   UNL     1       7.150   5.639  16.979  0.00  0.00    +0.000 NA
ATOM     21  C   UNL     1       7.811   4.786  17.961  0.00  0.00    +0.000 C 
ATOM     22  C   UNL     1       7.548   5.649  19.181  0.00  0.00    +0.000 C 
ATOM     23  C   UNL     1       7.914   7.044  18.686  0.00  0.00    +0.000 C 
ATOM     24  C   UNL     1       7.717   6.974  17.167  0.00  0.00    +0.000 C 
ENDBRANCH  19  20
ENDBRANCH  16  19
ENDBRANCH  15  16
ENDBRANCH   3  15
TORSDOF 8
ENDMDL
MODEL 4
REMARK VINA RESULT:      -6.6      2.825      4.545
REMARK  Name = 
REMARK  8 active torsions:
REMARK  status: ('A' for Active; 'I' for Inactive)
REMARK    1  A    between atoms: C_2  and  O_3
REMARK    2  A    between atoms: C_2  and  C_4
REMARK    3  A    between atoms: C_4  and  C_5
REMARK    4  A    between atoms: N_7  and  C_8
REMARK    5  A    between atoms: C_8  and  C_9
REMARK    6  A    between atoms: C_9  and  O_10
REMARK    7  A    between atoms: C_9  and  C_11
REMARK    8  A    between atoms: C_11  and  N_12
REMARK                            x       y       z     vdW  Elec       q    Type
REMARK                         _______ _______ _______ _____ _____    ______ ____
ROOT
ATOM      1  C   UNL     1       2.834   6.284  18.122  0.00  0.00    +0.000 A 
ATOM      2  C   UNL     1       4.112   6.534  18.574  0.00  0.00    +0.000 A 
ATOM      3  N   UNL     1       4.668   5.353  18.996  0.00  0.00    +0.000 N 
ATOM      4  C   UNL     1       3.759   4.326  18.843  0.00  0.00    +0.000 A 
ATOM      5  C   UNL     1       3.856   2.950  19.117  0.00  0.00    +0.000 A 
ATOM      6  C   UNL     1       2.744   2.144  18.858  0.00  0.00    +0.000 A 
ATOM      7  C   UNL     1       1.571   2.685  18.346  0.00  0.00    +0.000 A 
ATOM      8  C   UNL     1       1.482   4.051  18.065  0.00  0.00    +0.000 A 
ATOM      9  C   UNL     1       2.593   4.889  18.317  0.00  0.00    +0.000 A 
ENDROOT
BRANCH   1  10
ATOM     10  C   UNL     1       1.903   7.287  17.516  0.00  0.00    +0.000 C 
BRANCH  10  12
ATOM     11  O   UNL     1       1.674   8.727  19.423  0.00  0.00    +0.000 OA
ATOM     12  C   UNL     1       1.873   8.633  18.214  0.00  0.00    +0.000 C 
BRANCH  12  13
ATOM     13  O   UNL     1       2.074   9.732  17.460  0.00  0.00    +0.000 OA
ATOM     14  H   UNL     1       2.999   9.850  17.157  0.00  0.00    +0.000 HD
ENDBRANCH  12  13
ENDBRANCH  10  12
ENDBRANCH   1  10
BRANCH   3  15
ATOM     15  C   UNL     1       6.013   5.239  19.545  0.00  0.00    +0.000 C 
BRANCH  15  16
ATOM     16  C   UNL     1       7.135   5.676  18.580  0.00  0.00    +0.000 C 
BRANCH  16  17
ATOM     17  O   UNL     1       8.239   6.241  19.299  0.00  0.00    +0.000 OA
ATOM     18  H   UNL     1       7.993   6.281  20.242  0.00  0.00    +0.000 HD
ENDBRANCH  16  17
BRANCH  16  19
ATOM     19  C   UNL     1       7.639   4.558  17.630  0.00  0.00    +0.000 C 
BRANCH  19  20
ATOM     20  N   UNL     1       6.999   4.610  16.328  0.00  0.00    +0.000 NA
ATOM     21  C   UNL     1       5.985   3.604  16.032  0.00  0.00    +0.000 C 
ATOM     22  C   UNL     1       5.722   4.005  14.592  0.00  0.00    +0.000 C 
ATOM     23  C   UNL     1       5.602   5.523  14.688  0.00  0.00    +0.000 C 
ATOM     24  C   UNL     1       6.412   5.892  15.936  0.00  0.00    +0.000 C 
ENDBRANCH  19  20
ENDBRANCH  16  19
ENDBRANCH  15  16
ENDBRANCH   3  15
TORSDOF 8
ENDMDL
MODEL 5
REMARK VINA RESULT:      -6.6      1.865      5.774
REMARK  Name = 
REMARK  8 active torsions:
REMARK  status: ('A' for Active; 'I' for Inactive)
REMARK    1  A    between atoms: C_2  and  O_3
REMARK    2  A    between atoms: C_2  and  C_4
REMARK    3  A    between atoms: C_4  and  C_5
REMARK    4  A    between atoms: N_7  and  C_8
REMARK    5  A    between atoms: C_8  and  C_9
REMARK    6  A    between atoms: C_9  and  O_10
REMARK    7  A    between atoms: C_9  and  C_11
REMARK    8  A    between atoms: C_11  and  N_12
REMARK                            x       y       z     vdW  Elec       q    Type
REMARK                         _______ _______ _______ _____ _____    ______ ____
ROOT
ATOM      1  C   UNL     1       5.462   4.820  15.925  0.00  0.00    +0.000 A 
ATOM      2  C   UNL     1       4.600   3.870  16.430  0.00  0.00    +0.000 A 
ATOM      3  N   UNL     1       4.787   3.783  17.786  0.00  0.00    +0.000 N 
ATOM      4  C   UNL     1       5.781   4.657  18.179  0.00  0.00    +0.000 A 
ATOM      5  C   UNL     1       6.321   4.940  19.446  0.00  0.00    +0.000 A 
ATOM      6  C   UNL     1       7.343   5.889  19.532  0.00  0.00    +0.000 A 
ATOM      7  C   UNL     1       7.817   6.536  18.396  0.00  0.00    +0.000 A 
ATOM      8  C   UNL     1       7.271   6.258  17.141  0.00  0.00    +0.000 A 
ATOM      9  C   UNL     1       6.234   5.303  17.026  0.00  0.00    +0.000 A 
ENDROOT
BRANCH   1  10
ATOM     10  C   UNL     1       5.537   5.272  14.500  0.00  0.00    +0.000 C 
BRANCH  10  12
ATOM     11  O   UNL     1       6.635   3.729  13.024  0.00  0.00    +0.000 OA
ATOM     12  C   UNL     1       6.724   4.737  13.723  0.00  0.00    +0.000 C 
BRANCH  12  13
ATOM     13  O   UNL     1       7.889   5.408  13.823  0.00  0.00    +0.000 OA
ATOM     14  H   UNL     1       7.818   6.368  13.641  0.00  0.00    +0.000 HD
ENDBRANCH  12  13
ENDBRANCH  10  12
ENDBRANCH   1  10
BRANCH   3  15
ATOM     15  C   UNL     1       4.048   2.871  18.651  0.00  0.00    +0.000 C 
BRANCH  15  16
ATOM     16  C   UNL     1       2.665   2.457  18.107  0.00  0.00    +0.000 C 
BRANCH  16  17
ATOM     17  O   UNL     1       2.233   1.222  18.693  0.00  0.00    +0.000 OA
ATOM     18  H   UNL     1       1.310   1.069  18.421  0.00  0.00    +0.000 HD
ENDBRANCH  16  17
BRANCH  16  19
ATOM     19  C   UNL     1       1.561   3.535  18.268  0.00  0.00    +0.000 C 
BRANCH  19  20
ATOM     20  N   UNL     1       2.016   4.682  19.031  0.00  0.00    +0.000 NA
ATOM     21  C   UNL     1       2.091   5.966  18.341  0.00  0.00    +0.000 C 
ATOM     22  C   UNL     1       2.691   6.769  19.480  0.00  0.00    +0.000 C 
ATOM     23  C   UNL     1       1.839   6.341  20.671  0.00  0.00    +0.000 C 
ATOM     24  C   UNL     1       1.321   4.950  20.290  0.00  0.00    +0.000 C 
ENDBRANCH  19  20
ENDBRANCH  16  19
ENDBRANCH  15  16
ENDBRANCH   3  15
TORSDOF 8
ENDMDL
MODEL 6
REMARK VINA RESULT:      -6.5      2.275      5.543
REMARK  Name = 
REMARK  8 active torsions:
REMARK  status: ('A' for Active; 'I' for Inactive)
REMARK    1  A    between atoms: C_2  and  O_3
REMARK    2  A    between atoms: C_2  and  C_4
REMARK    3  A    between atoms: C_4  and  C_5
REMARK    4  A    between atoms: N_7  and  C_8
REMARK    5  A    between atoms: C_8  and  C_9
REMARK    6  A    between atoms: C_9  and  O_10
REMARK    7  A    between atoms: C_9  and  C_11
REMARK    8  A    between atoms: C_11  and  N_12
REMARK                            x       y       z     vdW  Elec       q    Type
REMARK                         _______ _______ _______ _____ _____    ______ ____
ROOT
ATOM      1  C   UNL     1       5.918   5.423  17.609  0.00  0.00    +0.000 A 
ATOM      2  C   UNL     1       4.691   4.907  17.967  0.00  0.00    +0.000 A 
ATOM      3  N   UNL     1       4.183   4.204  16.905  0.00  0.00    +0.000 N 
ATOM      4  C   UNL     1       5.058   4.266  15.839  0.00  0.00    +0.000 A 
ATOM      5  C   UNL     1       4.995   3.706  14.551  0.00  0.00    +0.000 A 
ATOM      6  C   UNL     1       6.052   3.953  13.670  0.00  0.00    +0.000 A 
ATOM      7  C   UNL     1       7.137   4.733  14.054  0.00  0.00    +0.000 A 
ATOM      8  C   UNL     1       7.200   5.279  15.338  0.00  0.00    +0.000 A 
ATOM      9  C   UNL     1       6.144   5.044  16.250  0.00  0.00    +0.000 A 
ENDROOT
BRANCH   1  10
ATOM     10  C   UNL     1       6.839   6.200  18.497  0.00  0.00    +0.000 C 
BRANCH  10  12
ATOM     11  O   UNL     1       8.523   4.501  18.693  0.00  0.00    +0.000 OA
ATOM     12  C   UNL     1       7.851   5.363  19.255  0.00  0.00    +0.000 C 
BRANCH  12  13
ATOM     13  O   UNL     1       7.991   5.597  20.575  0.00  0.00    +0.000 OA
ATOM     14  H   UNL     1       7.205   6.001  20.999  0.00  0.00    +0.000 HD
ENDBRANCH  12  13
ENDBRANCH  10  12
ENDBRANCH   1  10
BRANCH   3  15
ATOM     15  C   UNL     1       2.893   3.525  16.922  0.00  0.00    +0.000 C 
BRANCH  15  16
ATOM     16  C   UNL     1       2.930   2.099  17.510  0.00  0.00    +0.000 C 
BRANCH  16  17
ATOM     17  O   UNL     1       4.277   1.691  17.780  0.00  0.00    +0.000 OA
ATOM     18  H   UNL     1       4.868   2.212  17.206  0.00  0.00    +0.000 HD
ENDBRANCH  16  17
BRANCH  16  19
ATOM     19  C   UNL     1       2.052   1.900  18.773  0.00  0.00    +0.000 C 
BRANCH  19  20
ATOM     20  N   UNL     1       2.099   3.044  19.665  0.00  0.00    +0.000 NA
ATOM     21  C   UNL     1       0.846   3.741  19.938  0.00  0.00    +0.000 C 
ATOM     22  C   UNL     1       1.421   4.860  20.785  0.00  0.00    +0.000 C 
ATOM     23  C   UNL     1       2.356   4.111  21.731  0.00  0.00    +0.000 C 
ATOM     24  C   UNL     1       2.727   2.834  20.969  0.00  0.00    +0.000 C 
ENDBRANCH  19  20
ENDBRANCH  16  19
ENDBRANCH  15  16
ENDBRANCH   3  15
TORSDOF 8
ENDMDL
MODEL 7
REMARK VINA RESULT:      -6.4      2.828      4.619
REMARK  Name = 
REMARK  8 active torsions:
REMARK  status: ('A' for Active; 'I' for Inactive)
REMARK    1  A    between atoms: C_2  and  O_3
REMARK    2  A    between atoms: C_2  and  C_4
REMARK    3  A    between atoms: C_4  and  C_5
REMARK    4  A    between atoms: N_7  and  C_8
REMARK    5  A    between atoms: C_8  and  C_9
REMARK    6  A    between atoms: C_9  and  O_10
REMARK    7  A    between atoms: C_9  and  C_11
REMARK    8  A    between atoms: C_11  and  N_12
REMARK                            x       y       z     vdW  Elec       q    Type
REMARK                         _______ _______ _______ _____ _____    ______ ____
ROOT
ATOM      1  C   UNL     1       2.697   6.086  17.967  0.00  0.00    +0.000 A 
ATOM      2  C   UNL     1       4.063   6.274  17.964  0.00  0.00    +0.000 A 
ATOM      3  N   UNL     1       4.673   5.069  18.197  0.00  0.00    +0.000 N 
ATOM      4  C   UNL     1       3.720   4.086  18.372  0.00  0.00    +0.000 A 
ATOM      5  C   UNL     1       3.841   2.707  18.622  0.00  0.00    +0.000 A 
ATOM      6  C   UNL     1       2.671   1.955  18.762  0.00  0.00    +0.000 A 
ATOM      7  C   UNL     1       1.420   2.552  18.658  0.00  0.00    +0.000 A 
ATOM      8  C   UNL     1       1.304   3.920  18.401  0.00  0.00    +0.000 A 
ATOM      9  C   UNL     1       2.472   4.704  18.255  0.00  0.00    +0.000 A 
ENDROOT
BRANCH   1  10
ATOM     10  C   UNL     1       1.664   7.132  17.687  0.00  0.00    +0.000 C 
BRANCH  10  12
ATOM     11  O   UNL     1       1.803   8.677  19.520  0.00  0.00    +0.000 OA
ATOM     12  C   UNL     1       1.940   8.485  18.313  0.00  0.00    +0.000 C 
BRANCH  12  13
ATOM     13  O   UNL     1       2.346   9.479  17.498  0.00  0.00    +0.000 OA
ATOM     14  H   UNL     1       3.207   9.877  17.745  0.00  0.00    +0.000 HD
ENDBRANCH  12  13
ENDBRANCH  10  12
ENDBRANCH   1  10
BRANCH   3  15
ATOM     15  C   UNL     1       6.118   4.890  18.270  0.00  0.00    +0.000 C 
BRANCH  15  16
ATOM     16  C   UNL     1       6.808   4.708  16.903  0.00  0.00    +0.000 C 
BRANCH  16  17
ATOM     17  O   UNL     1       8.098   4.101  17.056  0.00  0.00    +0.000 OA
ATOM     18  H   UNL     1       8.522   4.076  16.179  0.00  0.00    +0.000 HD
ENDBRANCH  16  17
BRANCH  16  19
ATOM     19  C   UNL     1       5.973   3.922  15.859  0.00  0.00    +0.000 C 
BRANCH  19  20
ATOM     20  N   UNL     1       6.562   3.966  14.533  0.00  0.00    +0.000 NA
ATOM     21  C   UNL     1       5.690   3.684  13.397  0.00  0.00    +0.000 C 
ATOM     22  C   UNL     1       6.751   3.745  12.314  0.00  0.00    +0.000 C 
ATOM     23  C   UNL     1       7.519   5.013  12.673  0.00  0.00    +0.000 C 
ATOM     24  C   UNL     1       7.293   5.182  14.180  0.00  0.00    +0.000 C 
ENDBRANCH  19  20
ENDBRANCH  16  19
ENDBRANCH  15  16
ENDBRANCH   3  15
TORSDOF 8
ENDMDL
MODEL 8
REMARK VINA RESULT:      -6.4      1.604      5.780
REMARK  Name = 
REMARK  8 active torsions:
REMARK  status: ('A' for Active; 'I' for Inactive)
REMARK    1  A    between atoms: C_2  and  O_3
REMARK    2  A    between atoms: C_2  and  C_4
REMARK    3  A    between atoms: C_4  and  C_5
REMARK    4  A    between atoms: N_7  and  C_8
REMARK    5  A    between atoms: C_8  and  C_9
REMARK    6  A    between atoms: C_9  and  O_10
REMARK    7  A    between atoms: C_9  and  C_11
REMARK    8  A    between atoms: C_11  and  N_12
REMARK                            x       y       z     vdW  Elec       q    Type
REMARK                         _______ _______ _______ _____ _____    ______ ____
ROOT
ATOM      1  C   UNL     1       5.433   4.847  16.021  0.00  0.00    +0.000 A 
ATOM      2  C   UNL     1       4.557   3.941  16.579  0.00  0.00    +0.000 A 
ATOM      3  N   UNL     1       4.774   3.895  17.932  0.00  0.00    +0.000 N 
ATOM      4  C   UNL     1       5.802   4.752  18.271  0.00  0.00    +0.000 A 
ATOM      5  C   UNL     1       6.381   5.062  19.515  0.00  0.00    +0.000 A 
ATOM      6  C   UNL     1       7.433   5.982  19.543  0.00  0.00    +0.000 A 
ATOM      7  C   UNL     1       7.897   6.575  18.374  0.00  0.00    +0.000 A 
ATOM      8  C   UNL     1       7.312   6.271  17.143  0.00  0.00    +0.000 A 
ATOM      9  C   UNL     1       6.246   5.344  17.086  0.00  0.00    +0.000 A 
ENDROOT
BRANCH   1  10
ATOM     10  C   UNL     1       5.486   5.247  14.580  0.00  0.00    +0.000 C 
BRANCH  10  12
ATOM     11  O   UNL     1       6.549   3.628  13.161  0.00  0.00    +0.000 OA
ATOM     12  C   UNL     1       6.654   4.672  13.801  0.00  0.00    +0.000 C 
BRANCH  12  13
ATOM     13  O   UNL     1       7.819   5.350  13.832  0.00  0.00    +0.000 OA
ATOM     14  H   UNL     1       7.784   6.189  14.337  0.00  0.00    +0.000 HD
ENDBRANCH  12  13
ENDBRANCH  10  12
ENDBRANCH   1  10
BRANCH   3  15
ATOM     15  C   UNL     1       4.031   3.036  18.846  0.00  0.00    +0.000 C 
BRANCH  15  16
ATOM     16  C   UNL     1       2.643   3.579  19.245  0.00  0.00    +0.000 C 
BRANCH  16  17
ATOM     17  O   UNL     1       1.795   2.523  19.714  0.00  0.00    +0.000 OA
ATOM     18  H   UNL     1       2.124   2.240  20.586  0.00  0.00    +0.000 HD
ENDBRANCH  16  17
BRANCH  16  19
ATOM     19  C   UNL     1       2.676   4.733  20.281  0.00  0.00    +0.000 C 
BRANCH  19  20
ATOM     20  N   UNL     1       2.692   6.040  19.651  0.00  0.00    +0.000 NA
ATOM     21  C   UNL     1       2.285   6.122  18.252  0.00  0.00    +0.000 C 
ATOM     22  C   UNL     1       2.568   7.599  18.049  0.00  0.00    +0.000 C 
ATOM     23  C   UNL     1       1.945   8.228  19.292  0.00  0.00    +0.000 C 
ATOM     24  C   UNL     1       1.965   7.108  20.338  0.00  0.00    +0.000 C 
ENDBRANCH  19  20
ENDBRANCH  16  19
ENDBRANCH  15  16
ENDBRANCH   3  15
TORSDOF 8
ENDMDL
MODEL 9
REMARK VINA RESULT:      -6.4      2.685      4.458
REMARK  Name = 
REMARK  8 active torsions:
REMARK  status: ('A' for Active; 'I' for Inactive)
REMARK    1  A    between atoms: C_2  and  O_3
REMARK    2  A    between atoms: C_2  and  C_4
REMARK    3  A    between atoms: C_4  and  C_5
REMARK    4  A    between atoms: N_7  and  C_8
REMARK    5  A    between atoms: C_8  and  C_9
REMARK    6  A    between atoms: C_9  and  O_10
REMARK    7  A    between atoms: C_9  and  C_11
REMARK    8  A    between atoms: C_11  and  N_12
REMARK                            x       y       z     vdW  Elec       q    Type
REMARK                         _______ _______ _______ _____ _____    ______ ____
ROOT
ATOM      1  C   UNL     1       3.000   6.342  18.005  0.00  0.00    +0.000 A 
ATOM      2  C   UNL     1       4.270   6.658  18.441  0.00  0.00    +0.000 A 
ATOM      3  N   UNL     1       4.939   5.496  18.727  0.00  0.00    +0.000 N 
ATOM      4  C   UNL     1       4.115   4.412  18.501  0.00  0.00    +0.000 A 
ATOM      5  C   UNL     1       4.339   3.030  18.634  0.00  0.00    +0.000 A 
ATOM      6  C   UNL     1       3.290   2.157  18.331  0.00  0.00    +0.000 A 
ATOM      7  C   UNL     1       2.057   2.641  17.910  0.00  0.00    +0.000 A 
ATOM      8  C   UNL     1       1.842   4.014  17.769  0.00  0.00    +0.000 A 
ATOM      9  C   UNL     1       2.886   4.918  18.069  0.00  0.00    +0.000 A 
ENDROOT
BRANCH   1  10
ATOM     10  C   UNL     1       1.966   7.312  17.529  0.00  0.00    +0.000 C 
BRANCH  10  12
ATOM     11  O   UNL     1       2.190   9.699  17.665  0.00  0.00    +0.000 OA
ATOM     12  C   UNL     1       1.960   8.644  18.254  0.00  0.00    +0.000 C 
BRANCH  12  13
ATOM     13  O   UNL     1       1.690   8.635  19.575  0.00  0.00    +0.000 OA
ATOM     14  H   UNL     1       0.765   8.870  19.799  0.00  0.00    +0.000 HD
ENDBRANCH  12  13
ENDBRANCH  10  12
ENDBRANCH   1  10
BRANCH   3  15
ATOM     15  C   UNL     1       6.310   5.449  19.222  0.00  0.00    +0.000 C 
BRANCH  15  16
ATOM     16  C   UNL     1       7.382   5.323  18.120  0.00  0.00    +0.000 C 
BRANCH  16  17
ATOM     17  O   UNL     1       7.683   3.947  17.852  0.00  0.00    +0.000 OA
ATOM     18  H   UNL     1       7.846   3.858  16.896  0.00  0.00    +0.000 HD
ENDBRANCH  16  17
BRANCH  16  19
ATOM     19  C   UNL     1       7.036   6.057  16.798  0.00  0.00    +0.000 C 
BRANCH  19  20
ATOM     20  N   UNL     1       6.636   5.141  15.745  0.00  0.00    +0.000 NA
ATOM     21  C   UNL     1       5.295   5.295  15.189  0.00  0.00    +0.000 C 
ATOM     22  C   UNL     1       5.329   4.098  14.258  0.00  0.00    +0.000 C 
ATOM     23  C   UNL     1       6.693   4.237  13.588  0.00  0.00    +0.000 C 
ATOM     24  C   UNL     1       7.532   5.033  14.595  0.00  0.00    +0.000 C 
ENDBRANCH  19  20
ENDBRANCH  16  19
ENDBRANCH  15  16
ENDBRANCH   3  15
TORSDOF 8
ENDMDL
