MODEL 1
REMARK VINA RESULT:      -5.0      0.000      0.000
REMARK  Name = 
REMARK  4 active torsions:
REMARK  status: ('A' for Active; 'I' for Inactive)
REMARK    1  A    between atoms: C_1  and  C_2
REMARK    2  A    between atoms: C_2  and  N_3
REMARK    3  A    between atoms: C_2  and  C_4
REMARK    4  A    between atoms: C_2  and  C_7
REMARK                            x       y       z     vdW  Elec       q    Type
REMARK                         _______ _______ _______ _____ _____    ______ ____
ROOT
ATOM      1  C   UNL     1       3.705   2.895  19.611  0.00  0.00    +0.000 C 
ATOM      2  C   UNL     1       2.411   2.907  18.767  0.00  0.00    +0.000 C 
ENDROOT
BRANCH   2   3
ATOM      3  C   UNL     1       2.520   4.077  17.696  0.00  0.00    +0.000 C 
ATOM      4  F   UNL     1       3.214   3.695  16.596  0.00  0.00    +0.000 F 
ATOM      5  F   UNL     1       1.293   4.460  17.263  0.00  0.00    +0.000 F 
ATOM      6  F   UNL     1       3.134   5.182  18.182  0.00  0.00    +0.000 F 
ENDBRANCH   2   3
BRANCH   2   7
ATOM      7  N   UNL     1       2.291   1.542  18.177  0.00  0.00    +0.000 NA
ATOM      8  H   UNL     1       2.165   0.858  18.921  0.00  0.00    +0.000 HD
ATOM      9  H   UNL     1       3.165   1.302  17.705  0.00  0.00    +0.000 HD
ENDBRANCH   2   7
BRANCH   2  10
ATOM     10  C   UNL     1       1.227   3.140  19.709  0.00  0.00    +0.000 C 
ATOM     11  C   UNL     1       1.378   2.993  21.208  0.00  0.00    +0.000 C 
ATOM     12  C   UNL     1       1.075   4.344  20.623  0.00  0.00    +0.000 C 
ENDBRANCH   2  10
TORSDOF 3
ENDMDL
MODEL 2
REMARK VINA RESULT:      -5.0      0.817      1.061
REMARK  Name = 
REMARK  4 active torsions:
REMARK  status: ('A' for Active; 'I' for Inactive)
REMARK    1  A    between atoms: C_1  and  C_2
REMARK    2  A    between atoms: C_2  and  N_3
REMARK    3  A    between atoms: C_2  and  C_4
REMARK    4  A    between atoms: C_2  and  C_7
REMARK                            x       y       z     vdW  Elec       q    Type
REMARK                         _______ _______ _______ _____ _____    ______ ____
ROOT
ATOM      1  C   UNL     1       3.433   1.693  18.546  0.00  0.00    +0.000 C 
ATOM      2  C   UNL     1       2.231   2.642  18.748  0.00  0.00    +0.000 C 
ENDROOT
BRANCH   2   3
ATOM      3  C   UNL     1       2.324   3.808  17.673  0.00  0.00    +0.000 C 
ATOM      4  F   UNL     1       2.801   3.365  16.484  0.00  0.00    +0.000 F 
ATOM      5  F   UNL     1       1.102   4.342  17.422  0.00  0.00    +0.000 F 
ATOM      6  F   UNL     1       3.128   4.825  18.064  0.00  0.00    +0.000 F 
ENDBRANCH   2   3
BRANCH   2   7
ATOM      7  N   UNL     1       1.011   1.792  18.631  0.00  0.00    +0.000 NA
ATOM      8  H   UNL     1       0.838   1.317  19.515  0.00  0.00    +0.000 HD
ATOM      9  H   UNL     1       1.176   1.062  17.935  0.00  0.00    +0.000 HD
ENDBRANCH   2   7
BRANCH   2  10
ATOM     10  C   UNL     1       2.301   3.206  20.171  0.00  0.00    +0.000 C 
ATOM     11  C   UNL     1       1.251   4.165  20.686  0.00  0.00    +0.000 C 
ATOM     12  C   UNL     1       1.374   2.802  21.305  0.00  0.00    +0.000 C 
ENDBRANCH   2  10
TORSDOF 3
ENDMDL
MODEL 3
REMARK VINA RESULT:      -5.0      0.570      1.191
REMARK  Name = 
REMARK  4 active torsions:
REMARK  status: ('A' for Active; 'I' for Inactive)
REMARK    1  A    between atoms: C_1  and  C_2
REMARK    2  A    between atoms: C_2  and  N_3
REMARK    3  A    between atoms: C_2  and  C_4
REMARK    4  A    between atoms: C_2  and  C_7
REMARK                            x       y       z     vdW  Elec       q    Type
REMARK                         _______ _______ _______ _____ _____    ______ ____
ROOT
ATOM      1  C   UNL     1       3.745   2.835  19.431  0.00  0.00    +0.000 C 
ATOM      2  C   UNL     1       2.288   2.940  18.930  0.00  0.00    +0.000 C 
ENDROOT
BRANCH   2   3
ATOM      3  C   UNL     1       2.260   3.895  17.661  0.00  0.00    +0.000 C 
ATOM      4  F   UNL     1       3.160   4.903  17.765  0.00  0.00    +0.000 F 
ATOM      5  F   UNL     1       2.573   3.216  16.529  0.00  0.00    +0.000 F 
ATOM      6  F   UNL     1       1.050   4.469  17.458  0.00  0.00    +0.000 F 
ENDBRANCH   2   3
BRANCH   2   7
ATOM      7  N   UNL     1       1.843   1.542  18.658  0.00  0.00    +0.000 NA
ATOM      8  H   UNL     1       2.222   1.231  17.764  0.00  0.00    +0.000 HD
ATOM      9  H   UNL     1       0.826   1.525  18.565  0.00  0.00    +0.000 HD
ENDBRANCH   2   7
BRANCH   2  10
ATOM     10  C   UNL     1       1.433   3.514  20.064  0.00  0.00    +0.000 C 
ATOM     11  C   UNL     1       1.929   3.520  21.493  0.00  0.00    +0.000 C 
ATOM     12  C   UNL     1       1.716   4.824  20.779  0.00  0.00    +0.000 C 
ENDBRANCH   2  10
TORSDOF 3
ENDMDL
MODEL 4
REMARK VINA RESULT:      -5.0      0.459      1.335
REMARK  Name = 
REMARK  4 active torsions:
REMARK  status: ('A' for Active; 'I' for Inactive)
REMARK    1  A    between atoms: C_1  and  C_2
REMARK    2  A    between atoms: C_2  and  N_3
REMARK    3  A    between atoms: C_2  and  C_4
REMARK    4  A    between atoms: C_2  and  C_7
REMARK                            x       y       z     vdW  Elec       q    Type
REMARK                         _______ _______ _______ _____ _____    ______ ____
ROOT
ATOM      1  C   UNL     1       3.689   2.854  19.458  0.00  0.00    +0.000 C 
ATOM      2  C   UNL     1       2.259   2.910  18.877  0.00  0.00    +0.000 C 
ENDROOT
BRANCH   2   3
ATOM      3  C   UNL     1       2.261   3.897  17.631  0.00  0.00    +0.000 C 
ATOM      4  F   UNL     1       1.037   4.435  17.408  0.00  0.00    +0.000 F 
ATOM      5  F   UNL     1       3.108   4.938  17.832  0.00  0.00    +0.000 F 
ATOM      6  F   UNL     1       2.639   3.293  16.480  0.00  0.00    +0.000 F 
ENDBRANCH   2   3
BRANCH   2   7
ATOM      7  N   UNL     1       1.893   1.502  18.547  0.00  0.00    +0.000 NA
ATOM      8  H   UNL     1       2.731   0.981  18.296  0.00  0.00    +0.000 HD
ATOM      9  H   UNL     1       1.289   1.497  17.723  0.00  0.00    +0.000 HD
ENDBRANCH   2   7
BRANCH   2  10
ATOM     10  C   UNL     1       1.317   3.418  19.973  0.00  0.00    +0.000 C 
ATOM     11  C   UNL     1       1.747   3.449  21.423  0.00  0.00    +0.000 C 
ATOM     12  C   UNL     1       1.478   4.740  20.704  0.00  0.00    +0.000 C 
ENDBRANCH   2  10
TORSDOF 3
ENDMDL
MODEL 5
REMARK VINA RESULT:      -5.0      1.506      1.763
REMARK  Name = 
REMARK  4 active torsions:
REMARK  status: ('A' for Active; 'I' for Inactive)
REMARK    1  A    between atoms: C_1  and  C_2
REMARK    2  A    between atoms: C_2  and  N_3
REMARK    3  A    between atoms: C_2  and  C_4
REMARK    4  A    between atoms: C_2  and  C_7
REMARK                            x       y       z     vdW  Elec       q    Type
REMARK                         _______ _______ _______ _____ _____    ______ ____
ROOT
ATOM      1  C   UNL     1       3.525   4.842  19.606  0.00  0.00    +0.000 C 
ATOM      2  C   UNL     1       3.463   3.358  19.180  0.00  0.00    +0.000 C 
ENDROOT
BRANCH   2   3
ATOM      3  C   UNL     1       2.896   3.283  17.698  0.00  0.00    +0.000 C 
ATOM      4  F   UNL     1       3.851   3.552  16.775  0.00  0.00    +0.000 F 
ATOM      5  F   UNL     1       2.427   2.041  17.415  0.00  0.00    +0.000 F 
ATOM      6  F   UNL     1       1.881   4.151  17.476  0.00  0.00    +0.000 F 
ENDBRANCH   2   3
BRANCH   2   7
ATOM      7  N   UNL     1       4.849   2.826  19.337  0.00  0.00    +0.000 NA
ATOM      8  H   UNL     1       5.500   3.409  18.813  0.00  0.00    +0.000 HD
ATOM      9  H   UNL     1       4.898   1.892  18.926  0.00  0.00    +0.000 HD
ENDBRANCH   2   7
BRANCH   2  10
ATOM     10  C   UNL     1       2.541   2.619  20.155  0.00  0.00    +0.000 C 
ATOM     11  C   UNL     1       2.224   3.191  21.520  0.00  0.00    +0.000 C 
ATOM     12  C   UNL     1       1.128   3.054  20.502  0.00  0.00    +0.000 C 
ENDBRANCH   2  10
TORSDOF 3
ENDMDL
MODEL 6
REMARK VINA RESULT:      -4.9      1.512      1.739
REMARK  Name = 
REMARK  4 active torsions:
REMARK  status: ('A' for Active; 'I' for Inactive)
REMARK    1  A    between atoms: C_1  and  C_2
REMARK    2  A    between atoms: C_2  and  N_3
REMARK    3  A    between atoms: C_2  and  C_4
REMARK    4  A    between atoms: C_2  and  C_7
REMARK                            x       y       z     vdW  Elec       q    Type
REMARK                         _______ _______ _______ _____ _____    ______ ____
ROOT
ATOM      1  C   UNL     1       3.506   4.863  19.609  0.00  0.00    +0.000 C 
ATOM      2  C   UNL     1       3.470   3.381  19.176  0.00  0.00    +0.000 C 
ENDROOT
BRANCH   2   3
ATOM      3  C   UNL     1       2.915   3.305  17.689  0.00  0.00    +0.000 C 
ATOM      4  F   UNL     1       2.405   2.083  17.399  0.00  0.00    +0.000 F 
ATOM      5  F   UNL     1       1.911   4.196  17.494  0.00  0.00    +0.000 F 
ATOM      6  F   UNL     1       3.863   3.564  16.757  0.00  0.00    +0.000 F 
ENDBRANCH   2   3
BRANCH   2   7
ATOM      7  N   UNL     1       4.862   2.870  19.340  0.00  0.00    +0.000 NA
ATOM      8  H   UNL     1       5.526   3.613  19.130  0.00  0.00    +0.000 HD
ATOM      9  H   UNL     1       5.029   2.127  18.659  0.00  0.00    +0.000 HD
ENDBRANCH   2   7
BRANCH   2  10
ATOM     10  C   UNL     1       2.552   2.624  20.139  0.00  0.00    +0.000 C 
ATOM     11  C   UNL     1       2.237   3.171  21.514  0.00  0.00    +0.000 C 
ATOM     12  C   UNL     1       1.138   3.049  20.498  0.00  0.00    +0.000 C 
ENDBRANCH   2  10
TORSDOF 3
ENDMDL
MODEL 7
REMARK VINA RESULT:      -4.9      1.507      2.043
REMARK  Name = 
REMARK  4 active torsions:
REMARK  status: ('A' for Active; 'I' for Inactive)
REMARK    1  A    between atoms: C_1  and  C_2
REMARK    2  A    between atoms: C_2  and  N_3
REMARK    3  A    between atoms: C_2  and  C_4
REMARK    4  A    between atoms: C_2  and  C_7
REMARK                            x       y       z     vdW  Elec       q    Type
REMARK                         _______ _______ _______ _____ _____    ______ ____
ROOT
ATOM      1  C   UNL     1       3.505   4.873  19.626  0.00  0.00    +0.000 C 
ATOM      2  C   UNL     1       3.463   3.392  19.189  0.00  0.00    +0.000 C 
ENDROOT
BRANCH   2   3
ATOM      3  C   UNL     1       2.889   3.320  17.709  0.00  0.00    +0.000 C 
ATOM      4  F   UNL     1       1.879   4.202  17.513  0.00  0.00    +0.000 F 
ATOM      5  F   UNL     1       3.846   3.624  16.797  0.00  0.00    +0.000 F 
ATOM      6  F   UNL     1       2.408   2.096  17.388  0.00  0.00    +0.000 F 
ENDBRANCH   2   3
BRANCH   2   7
ATOM      7  N   UNL     1       4.857   2.880  19.334  0.00  0.00    +0.000 NA
ATOM      8  H   UNL     1       5.372   3.041  18.470  0.00  0.00    +0.000 HD
ATOM      9  H   UNL     1       4.830   1.868  19.472  0.00  0.00    +0.000 HD
ENDBRANCH   2   7
BRANCH   2  10
ATOM     10  C   UNL     1       2.557   2.632  20.163  0.00  0.00    +0.000 C 
ATOM     11  C   UNL     1       2.216   3.202  21.522  0.00  0.00    +0.000 C 
ATOM     12  C   UNL     1       1.130   3.027  20.500  0.00  0.00    +0.000 C 
ENDBRANCH   2  10
TORSDOF 3
ENDMDL
MODEL 8
REMARK VINA RESULT:      -4.8      2.585      3.213
REMARK  Name = 
REMARK  4 active torsions:
REMARK  status: ('A' for Active; 'I' for Inactive)
REMARK    1  A    between atoms: C_1  and  C_2
REMARK    2  A    between atoms: C_2  and  N_3
REMARK    3  A    between atoms: C_2  and  C_4
REMARK    4  A    between atoms: C_2  and  C_7
REMARK                            x       y       z     vdW  Elec       q    Type
REMARK                         _______ _______ _______ _____ _____    ______ ____
ROOT
ATOM      1  C   UNL     1       4.510   3.547  16.956  0.00  0.00    +0.000 C 
ATOM      2  C   UNL     1       3.980   3.273  18.380  0.00  0.00    +0.000 C 
ENDROOT
BRANCH   2   3
ATOM      3  C   UNL     1       3.137   1.926  18.353  0.00  0.00    +0.000 C 
ATOM      4  F   UNL     1       2.261   1.854  19.385  0.00  0.00    +0.000 F 
ATOM      5  F   UNL     1       2.399   1.832  17.217  0.00  0.00    +0.000 F 
ATOM      6  F   UNL     1       3.910   0.817  18.418  0.00  0.00    +0.000 F 
ENDBRANCH   2   3
BRANCH   2   7
ATOM      7  N   UNL     1       5.180   3.230  19.266  0.00  0.00    +0.000 NA
ATOM      8  H   UNL     1       5.840   3.952  18.982  0.00  0.00    +0.000 HD
ATOM      9  H   UNL     1       5.656   2.335  19.142  0.00  0.00    +0.000 HD
ENDBRANCH   2   7
BRANCH   2  10
ATOM     10  C   UNL     1       3.103   4.456  18.800  0.00  0.00    +0.000 C 
ATOM     11  C   UNL     1       3.149   5.770  18.051  0.00  0.00    +0.000 C 
ATOM     12  C   UNL     1       1.892   4.949  18.027  0.00  0.00    +0.000 C 
ENDBRANCH   2  10
TORSDOF 3
ENDMDL
MODEL 9
REMARK VINA RESULT:      -4.8      2.583      3.164
REMARK  Name = 
REMARK  4 active torsions:
REMARK  status: ('A' for Active; 'I' for Inactive)
REMARK    1  A    between atoms: C_1  and  C_2
REMARK    2  A    between atoms: C_2  and  N_3
REMARK    3  A    between atoms: C_2  and  C_4
REMARK    4  A    between atoms: C_2  and  C_7
REMARK                            x       y       z     vdW  Elec       q    Type
REMARK                         _______ _______ _______ _____ _____    ______ ____
ROOT
ATOM      1  C   UNL     1       4.517   3.568  16.975  0.00  0.00    +0.000 C 
ATOM      2  C   UNL     1       3.985   3.277  18.396  0.00  0.00    +0.000 C 
ENDROOT
BRANCH   2   3
ATOM      3  C   UNL     1       3.131   1.938  18.348  0.00  0.00    +0.000 C 
ATOM      4  F   UNL     1       3.914   0.834  18.407  0.00  0.00    +0.000 F 
ATOM      5  F   UNL     1       2.281   1.861  19.404  0.00  0.00    +0.000 F 
ATOM      6  F   UNL     1       2.382   1.828  17.226  0.00  0.00    +0.000 F 
ENDBRANCH   2   3
BRANCH   2   7
ATOM      7  N   UNL     1       5.184   3.211  19.280  0.00  0.00    +0.000 NA
ATOM      8  H   UNL     1       4.925   2.807  20.179  0.00  0.00    +0.000 HD
ATOM      9  H   UNL     1       5.513   4.159  19.471  0.00  0.00    +0.000 HD
ENDBRANCH   2   7
BRANCH   2  10
ATOM     10  C   UNL     1       3.118   4.461  18.833  0.00  0.00    +0.000 C 
ATOM     11  C   UNL     1       3.207   5.799  18.131  0.00  0.00    +0.000 C 
ATOM     12  C   UNL     1       1.936   5.002  18.047  0.00  0.00    +0.000 C 
ENDBRANCH   2  10
TORSDOF 3
ENDMDL
