MODEL 1
REMARK VINA RESULT:      -6.6      0.000      0.000
REMARK  Name = 
REMARK  6 active torsions:
REMARK  status: ('A' for Active; 'I' for Inactive)
REMARK    1  A    between atoms: C_1  and  O_2
REMARK    2  A    between atoms: O_2  and  C_3
REMARK    3  A    between atoms: C_3  and  C_5
REMARK    4  A    between atoms: C_10  and  O_11
REMARK    5  A    between atoms: O_11  and  C_12
REMARK    6  A    between atoms: C_15  and  N_16
REMARK                            x       y       z     vdW  Elec       q    Type
REMARK                         _______ _______ _______ _____ _____    ______ ____
ROOT
ATOM      1  C   UNL     1       5.589   4.473  16.933  0.00  0.00    +0.000 A 
ATOM      2  O   UNL     1       4.342   4.201  16.421  0.00  0.00    +0.000 OA
ATOM      3  C   UNL     1       3.484   4.084  17.467  0.00  0.00    +0.000 A 
ATOM      4  C   UNL     1       2.125   3.804  17.366  0.00  0.00    +0.000 A 
ATOM      5  C   UNL     1       1.419   3.728  18.572  0.00  0.00    +0.000 A 
ATOM      6  C   UNL     1       2.046   3.923  19.808  0.00  0.00    +0.000 A 
ATOM      7  C   UNL     1       3.420   4.198  19.868  0.00  0.00    +0.000 A 
ATOM      8  C   UNL     1       4.152   4.282  18.667  0.00  0.00    +0.000 A 
ATOM      9  C   UNL     1       5.505   4.531  18.314  0.00  0.00    +0.000 A 
ENDROOT
BRANCH   9  10
ATOM     10  N   UNL     1       6.505   4.778  19.182  0.00  0.00    +0.000 N 
ATOM     11  H   UNL     1       7.221   4.097  19.408  0.00  0.00    +0.000 HD
ATOM     12  H   UNL     1       6.579   5.657  19.692  0.00  0.00    +0.000 HD
ENDBRANCH   9  10
BRANCH   1  13
ATOM     13  C   UNL     1       6.699   4.639  16.028  0.00  0.00    +0.000 C 
ATOM     14  O   UNL     1       7.881   4.472  16.308  0.00  0.00    +0.000 OA
BRANCH  13  16
ATOM     15  C   UNL     1       6.439   4.052  13.759  0.00  0.00    +0.000 C 
ATOM     16  O   UNL     1       6.241   5.011  14.796  0.00  0.00    +0.000 OA
ENDBRANCH  13  16
ENDBRANCH   1  13
BRANCH   6  17
ATOM     17  O   UNL     1       1.215   3.823  20.893  0.00  0.00    +0.000 OA
ATOM     18  C   UNL     1       1.382   2.679  21.721  0.00  0.00    +0.000 C 
ENDBRANCH   6  17
TORSDOF 4
ENDMDL
MODEL 2
REMARK VINA RESULT:      -6.5      1.700      5.633
REMARK  Name = 
REMARK  6 active torsions:
REMARK  status: ('A' for Active; 'I' for Inactive)
REMARK    1  A    between atoms: C_1  and  O_2
REMARK    2  A    between atoms: O_2  and  C_3
REMARK    3  A    between atoms: C_3  and  C_5
REMARK    4  A    between atoms: C_10  and  O_11
REMARK    5  A    between atoms: O_11  and  C_12
REMARK    6  A    between atoms: C_15  and  N_16
REMARK                            x       y       z     vdW  Elec       q    Type
REMARK                         _______ _______ _______ _____ _____    ______ ____
ROOT
ATOM      1  C   UNL     1       3.197   3.932  19.970  0.00  0.00    +0.000 A 
ATOM      2  O   UNL     1       2.943   5.148  19.380  0.00  0.00    +0.000 OA
ATOM      3  C   UNL     1       3.942   5.392  18.493  0.00  0.00    +0.000 A 
ATOM      4  C   UNL     1       4.051   6.527  17.697  0.00  0.00    +0.000 A 
ATOM      5  C   UNL     1       5.161   6.580  16.847  0.00  0.00    +0.000 A 
ATOM      6  C   UNL     1       6.107   5.549  16.801  0.00  0.00    +0.000 A 
ATOM      7  C   UNL     1       5.963   4.423  17.624  0.00  0.00    +0.000 A 
ATOM      8  C   UNL     1       4.853   4.344  18.488  0.00  0.00    +0.000 A 
ATOM      9  C   UNL     1       4.365   3.411  19.440  0.00  0.00    +0.000 A 
ENDROOT
BRANCH   9  10
ATOM     10  N   UNL     1       4.950   2.239  19.753  0.00  0.00    +0.000 N 
ATOM     11  H   UNL     1       5.672   1.811  19.183  0.00  0.00    +0.000 HD
ATOM     12  H   UNL     1       4.674   1.692  20.567  0.00  0.00    +0.000 HD
ENDBRANCH   9  10
BRANCH   1  13
ATOM     13  C   UNL     1       2.284   3.430  20.967  0.00  0.00    +0.000 C 
ATOM     14  O   UNL     1       2.601   2.972  22.060  0.00  0.00    +0.000 OA
BRANCH  13  16
ATOM     15  C   UNL     1       0.669   2.710  19.409  0.00  0.00    +0.000 C 
ATOM     16  O   UNL     1       1.000   3.542  20.519  0.00  0.00    +0.000 OA
ENDBRANCH  13  16
ENDBRANCH   1  13
BRANCH   6  17
ATOM     17  O   UNL     1       7.129   5.749  15.912  0.00  0.00    +0.000 OA
ATOM     18  C   UNL     1       7.136   4.926  14.751  0.00  0.00    +0.000 C 
ENDBRANCH   6  17
TORSDOF 4
ENDMDL
MODEL 3
REMARK VINA RESULT:      -6.5      1.910      5.895
REMARK  Name = 
REMARK  6 active torsions:
REMARK  status: ('A' for Active; 'I' for Inactive)
REMARK    1  A    between atoms: C_1  and  O_2
REMARK    2  A    between atoms: O_2  and  C_3
REMARK    3  A    between atoms: C_3  and  C_5
REMARK    4  A    between atoms: C_10  and  O_11
REMARK    5  A    between atoms: O_11  and  C_12
REMARK    6  A    between atoms: C_15  and  N_16
REMARK                            x       y       z     vdW  Elec       q    Type
REMARK                         _______ _______ _______ _____ _____    ______ ____
ROOT
ATOM      1  C   UNL     1       2.009   3.686  18.658  0.00  0.00    +0.000 A 
ATOM      2  O   UNL     1       2.200   5.048  18.654  0.00  0.00    +0.000 OA
ATOM      3  C   UNL     1       3.262   5.312  17.851  0.00  0.00    +0.000 A 
ATOM      4  C   UNL     1       3.778   6.577  17.589  0.00  0.00    +0.000 A 
ATOM      5  C   UNL     1       4.881   6.628  16.729  0.00  0.00    +0.000 A 
ATOM      6  C   UNL     1       5.432   5.471  16.165  0.00  0.00    +0.000 A 
ATOM      7  C   UNL     1       4.885   4.213  16.458  0.00  0.00    +0.000 A 
ATOM      8  C   UNL     1       3.773   4.136  17.320  0.00  0.00    +0.000 A 
ATOM      9  C   UNL     1       2.961   3.096  17.845  0.00  0.00    +0.000 A 
ENDROOT
BRANCH   9  10
ATOM     10  N   UNL     1       3.109   1.783  17.583  0.00  0.00    +0.000 N 
ATOM     11  H   UNL     1       3.138   1.406  16.642  0.00  0.00    +0.000 HD
ATOM     12  H   UNL     1       3.165   1.083  18.322  0.00  0.00    +0.000 HD
ENDBRANCH   9  10
BRANCH   1  13
ATOM     13  C   UNL     1       0.937   3.129  19.446  0.00  0.00    +0.000 C 
ATOM     14  O   UNL     1       0.131   2.287  19.064  0.00  0.00    +0.000 OA
BRANCH  13  16
ATOM     15  C   UNL     1       1.798   3.024  21.638  0.00  0.00    +0.000 C 
ATOM     16  O   UNL     1       0.949   3.677  20.697  0.00  0.00    +0.000 OA
ENDBRANCH  13  16
ENDBRANCH   1  13
BRANCH   6  17
ATOM     17  O   UNL     1       6.502   5.692  15.339  0.00  0.00    +0.000 OA
ATOM     18  C   UNL     1       6.748   4.712  14.337  0.00  0.00    +0.000 C 
ENDBRANCH   6  17
TORSDOF 4
ENDMDL
MODEL 4
REMARK VINA RESULT:      -6.5      1.335      1.802
REMARK  Name = 
REMARK  6 active torsions:
REMARK  status: ('A' for Active; 'I' for Inactive)
REMARK    1  A    between atoms: C_1  and  O_2
REMARK    2  A    between atoms: O_2  and  C_3
REMARK    3  A    between atoms: C_3  and  C_5
REMARK    4  A    between atoms: C_10  and  O_11
REMARK    5  A    between atoms: O_11  and  C_12
REMARK    6  A    between atoms: C_15  and  N_16
REMARK                            x       y       z     vdW  Elec       q    Type
REMARK                         _______ _______ _______ _____ _____    ______ ____
ROOT
ATOM      1  C   UNL     1       5.947   4.940  17.207  0.00  0.00    +0.000 A 
ATOM      2  O   UNL     1       4.855   4.520  16.484  0.00  0.00    +0.000 OA
ATOM      3  C   UNL     1       3.987   3.938  17.350  0.00  0.00    +0.000 A 
ATOM      4  C   UNL     1       2.760   3.379  17.006  0.00  0.00    +0.000 A 
ATOM      5  C   UNL     1       2.016   2.830  18.057  0.00  0.00    +0.000 A 
ATOM      6  C   UNL     1       2.480   2.844  19.377  0.00  0.00    +0.000 A 
ATOM      7  C   UNL     1       3.726   3.412  19.682  0.00  0.00    +0.000 A 
ATOM      8  C   UNL     1       4.493   3.973  18.642  0.00  0.00    +0.000 A 
ATOM      9  C   UNL     1       5.753   4.619  18.539  0.00  0.00    +0.000 A 
ENDROOT
BRANCH   9  10
ATOM     10  N   UNL     1       6.589   4.864  19.566  0.00  0.00    +0.000 N 
ATOM     11  H   UNL     1       7.599   4.877  19.468  0.00  0.00    +0.000 HD
ATOM     12  H   UNL     1       6.255   5.017  20.517  0.00  0.00    +0.000 HD
ENDBRANCH   9  10
BRANCH   1  13
ATOM     13  C   UNL     1       7.035   5.592  16.521  0.00  0.00    +0.000 C 
ATOM     14  O   UNL     1       7.254   5.540  15.315  0.00  0.00    +0.000 OA
BRANCH  13  16
ATOM     15  C   UNL     1       7.549   7.693  17.460  0.00  0.00    +0.000 C 
ATOM     16  O   UNL     1       7.795   6.288  17.416  0.00  0.00    +0.000 OA
ENDBRANCH  13  16
ENDBRANCH   1  13
BRANCH   6  17
ATOM     17  O   UNL     1       1.631   2.274  20.288  0.00  0.00    +0.000 OA
ATOM     18  C   UNL     1       1.704   2.763  21.622  0.00  0.00    +0.000 C 
ENDBRANCH   6  17
TORSDOF 4
ENDMDL
MODEL 5
REMARK VINA RESULT:      -6.5      2.124      5.585
REMARK  Name = 
REMARK  6 active torsions:
REMARK  status: ('A' for Active; 'I' for Inactive)
REMARK    1  A    between atoms: C_1  and  O_2
REMARK    2  A    between atoms: O_2  and  C_3
REMARK    3  A    between atoms: C_3  and  C_5
REMARK    4  A    between atoms: C_10  and  O_11
REMARK    5  A    between atoms: O_11  and  C_12
REMARK    6  A    between atoms: C_15  and  N_16
REMARK                            x       y       z     vdW  Elec       q    Type
REMARK                         _______ _______ _______ _____ _____    ______ ____
ROOT
ATOM      1  C   UNL     1       2.874   3.431  18.732  0.00  0.00    +0.000 A 
ATOM      2  O   UNL     1       2.663   4.608  18.053  0.00  0.00    +0.000 OA
ATOM      3  C   UNL     1       3.874   5.183  17.840  0.00  0.00    +0.000 A 
ATOM      4  C   UNL     1       4.087   6.393  17.187  0.00  0.00    +0.000 A 
ATOM      5  C   UNL     1       5.420   6.806  17.072  0.00  0.00    +0.000 A 
ATOM      6  C   UNL     1       6.476   6.044  17.585  0.00  0.00    +0.000 A 
ATOM      7  C   UNL     1       6.219   4.832  18.242  0.00  0.00    +0.000 A 
ATOM      8  C   UNL     1       4.886   4.393  18.368  0.00  0.00    +0.000 A 
ATOM      9  C   UNL     1       4.233   3.270  18.940  0.00  0.00    +0.000 A 
ENDROOT
BRANCH   9  10
ATOM     10  N   UNL     1       4.846   2.245  19.564  0.00  0.00    +0.000 N 
ATOM     11  H   UNL     1       4.672   1.273  19.334  0.00  0.00    +0.000 HD
ATOM     12  H   UNL     1       5.497   2.388  20.335  0.00  0.00    +0.000 HD
ENDBRANCH   9  10
BRANCH   1  13
ATOM     13  C   UNL     1       1.740   2.617  19.095  0.00  0.00    +0.000 C 
ATOM     14  O   UNL     1       0.754   2.412  18.396  0.00  0.00    +0.000 OA
BRANCH  13  16
ATOM     15  C   UNL     1       1.497   2.929  21.420  0.00  0.00    +0.000 C 
ATOM     16  O   UNL     1       1.925   2.096  20.344  0.00  0.00    +0.000 OA
ENDBRANCH  13  16
ENDBRANCH   1  13
BRANCH   6  17
ATOM     17  O   UNL     1       7.720   6.582  17.384  0.00  0.00    +0.000 OA
ATOM     18  C   UNL     1       7.866   7.970  17.663  0.00  0.00    +0.000 C 
ENDBRANCH   6  17
TORSDOF 4
ENDMDL
MODEL 6
REMARK VINA RESULT:      -6.5      0.991      1.021
REMARK  Name = 
REMARK  6 active torsions:
REMARK  status: ('A' for Active; 'I' for Inactive)
REMARK    1  A    between atoms: C_1  and  O_2
REMARK    2  A    between atoms: O_2  and  C_3
REMARK    3  A    between atoms: C_3  and  C_5
REMARK    4  A    between atoms: C_10  and  O_11
REMARK    5  A    between atoms: O_11  and  C_12
REMARK    6  A    between atoms: C_15  and  N_16
REMARK                            x       y       z     vdW  Elec       q    Type
REMARK                         _______ _______ _______ _____ _____    ______ ____
ROOT
ATOM      1  C   UNL     1       5.900   4.824  17.125  0.00  0.00    +0.000 A 
ATOM      2  O   UNL     1       4.829   4.303  16.437  0.00  0.00    +0.000 OA
ATOM      3  C   UNL     1       3.959   3.799  17.349  0.00  0.00    +0.000 A 
ATOM      4  C   UNL     1       2.750   3.179  17.050  0.00  0.00    +0.000 A 
ATOM      5  C   UNL     1       2.000   2.731  18.144  0.00  0.00    +0.000 A 
ATOM      6  C   UNL     1       2.442   2.899  19.461  0.00  0.00    +0.000 A 
ATOM      7  C   UNL     1       3.669   3.525  19.720  0.00  0.00    +0.000 A 
ATOM      8  C   UNL     1       4.442   3.987  18.636  0.00  0.00    +0.000 A 
ATOM      9  C   UNL     1       5.690   4.645  18.482  0.00  0.00    +0.000 A 
ENDROOT
BRANCH   9  10
ATOM     10  N   UNL     1       6.504   5.020  19.488  0.00  0.00    +0.000 N 
ATOM     11  H   UNL     1       7.086   5.849  19.450  0.00  0.00    +0.000 HD
ATOM     12  H   UNL     1       6.610   4.468  20.338  0.00  0.00    +0.000 HD
ENDBRANCH   9  10
BRANCH   1  13
ATOM     13  C   UNL     1       6.985   5.422  16.388  0.00  0.00    +0.000 C 
ATOM     14  O   UNL     1       7.458   6.536  16.590  0.00  0.00    +0.000 OA
BRANCH  13  16
ATOM     15  C   UNL     1       7.094   4.928  14.086  0.00  0.00    +0.000 C 
ATOM     16  O   UNL     1       7.421   4.560  15.424  0.00  0.00    +0.000 OA
ENDBRANCH  13  16
ENDBRANCH   1  13
BRANCH   6  17
ATOM     17  O   UNL     1       1.589   2.412  20.416  0.00  0.00    +0.000 OA
ATOM     18  C   UNL     1       1.802   2.860  21.750  0.00  0.00    +0.000 C 
ENDBRANCH   6  17
TORSDOF 4
ENDMDL
MODEL 7
REMARK VINA RESULT:      -6.4      2.314      2.522
REMARK  Name = 
REMARK  6 active torsions:
REMARK  status: ('A' for Active; 'I' for Inactive)
REMARK    1  A    between atoms: C_1  and  O_2
REMARK    2  A    between atoms: O_2  and  C_3
REMARK    3  A    between atoms: C_3  and  C_5
REMARK    4  A    between atoms: C_10  and  O_11
REMARK    5  A    between atoms: O_11  and  C_12
REMARK    6  A    between atoms: C_15  and  N_16
REMARK                            x       y       z     vdW  Elec       q    Type
REMARK                         _______ _______ _______ _____ _____    ______ ____
ROOT
ATOM      1  C   UNL     1       5.840   5.407  16.963  0.00  0.00    +0.000 A 
ATOM      2  O   UNL     1       5.098   6.519  16.637  0.00  0.00    +0.000 OA
ATOM      3  C   UNL     1       4.161   6.687  17.605  0.00  0.00    +0.000 A 
ATOM      4  C   UNL     1       3.209   7.700  17.636  0.00  0.00    +0.000 A 
ATOM      5  C   UNL     1       2.334   7.693  18.729  0.00  0.00    +0.000 A 
ATOM      6  C   UNL     1       2.414   6.719  19.732  0.00  0.00    +0.000 A 
ATOM      7  C   UNL     1       3.385   5.710  19.660  0.00  0.00    +0.000 A 
ATOM      8  C   UNL     1       4.279   5.697  18.572  0.00  0.00    +0.000 A 
ATOM      9  C   UNL     1       5.360   4.880  18.150  0.00  0.00    +0.000 A 
ENDROOT
BRANCH   9  10
ATOM     10  N   UNL     1       5.819   3.795  18.804  0.00  0.00    +0.000 N 
ATOM     11  H   UNL     1       6.350   3.852  19.666  0.00  0.00    +0.000 HD
ATOM     12  H   UNL     1       5.689   2.849  18.448  0.00  0.00    +0.000 HD
ENDBRANCH   9  10
BRANCH   1  13
ATOM     13  C   UNL     1       6.910   4.995  16.089  0.00  0.00    +0.000 C 
ATOM     14  O   UNL     1       7.954   4.456  16.441  0.00  0.00    +0.000 OA
BRANCH  13  16
ATOM     15  C   UNL     1       6.280   4.168  13.973  0.00  0.00    +0.000 C 
ATOM     16  O   UNL     1       6.591   5.291  14.795  0.00  0.00    +0.000 OA
ENDBRANCH  13  16
ENDBRANCH   1  13
BRANCH   6  17
ATOM     17  O   UNL     1       1.491   6.856  20.735  0.00  0.00    +0.000 OA
ATOM     18  C   UNL     1       1.160   8.184  21.120  0.00  0.00    +0.000 C 
ENDBRANCH   6  17
TORSDOF 4
ENDMDL
MODEL 8
REMARK VINA RESULT:      -6.4      1.835      5.666
REMARK  Name = 
REMARK  6 active torsions:
REMARK  status: ('A' for Active; 'I' for Inactive)
REMARK    1  A    between atoms: C_1  and  O_2
REMARK    2  A    between atoms: O_2  and  C_3
REMARK    3  A    between atoms: C_3  and  C_5
REMARK    4  A    between atoms: C_10  and  O_11
REMARK    5  A    between atoms: O_11  and  C_12
REMARK    6  A    between atoms: C_15  and  N_16
REMARK                            x       y       z     vdW  Elec       q    Type
REMARK                         _______ _______ _______ _____ _____    ______ ____
ROOT
ATOM      1  C   UNL     1       2.644   3.939  18.649  0.00  0.00    +0.000 A 
ATOM      2  O   UNL     1       3.218   3.402  17.520  0.00  0.00    +0.000 OA
ATOM      3  C   UNL     1       4.298   4.162  17.206  0.00  0.00    +0.000 A 
ATOM      4  C   UNL     1       5.144   3.948  16.123  0.00  0.00    +0.000 A 
ATOM      5  C   UNL     1       6.204   4.851  15.980  0.00  0.00    +0.000 A 
ATOM      6  C   UNL     1       6.400   5.908  16.878  0.00  0.00    +0.000 A 
ATOM      7  C   UNL     1       5.521   6.092  17.954  0.00  0.00    +0.000 A 
ATOM      8  C   UNL     1       4.448   5.195  18.121  0.00  0.00    +0.000 A 
ATOM      9  C   UNL     1       3.380   5.044  19.044  0.00  0.00    +0.000 A 
ENDROOT
BRANCH   9  10
ATOM     10  N   UNL     1       3.146   5.841  20.104  0.00  0.00    +0.000 N 
ATOM     11  H   UNL     1       3.102   6.852  20.037  0.00  0.00    +0.000 HD
ATOM     12  H   UNL     1       3.036   5.474  21.049  0.00  0.00    +0.000 HD
ENDBRANCH   9  10
BRANCH   1  13
ATOM     13  C   UNL     1       1.463   3.322  19.198  0.00  0.00    +0.000 C 
ATOM     14  O   UNL     1       0.750   2.505  18.624  0.00  0.00    +0.000 OA
BRANCH  13  16
ATOM     15  C   UNL     1       1.568   2.856  21.507  0.00  0.00    +0.000 C 
ATOM     16  O   UNL     1       1.249   3.778  20.467  0.00  0.00    +0.000 OA
ENDBRANCH  13  16
ENDBRANCH   1  13
BRANCH   6  17
ATOM     17  O   UNL     1       7.487   6.696  16.603  0.00  0.00    +0.000 OA
ATOM     18  C   UNL     1       7.696   7.814  17.459  0.00  0.00    +0.000 C 
ENDBRANCH   6  17
TORSDOF 4
ENDMDL
MODEL 9
REMARK VINA RESULT:      -6.3      1.788      5.654
REMARK  Name = 
REMARK  6 active torsions:
REMARK  status: ('A' for Active; 'I' for Inactive)
REMARK    1  A    between atoms: C_1  and  O_2
REMARK    2  A    between atoms: O_2  and  C_3
REMARK    3  A    between atoms: C_3  and  C_5
REMARK    4  A    between atoms: C_10  and  O_11
REMARK    5  A    between atoms: O_11  and  C_12
REMARK    6  A    between atoms: C_15  and  N_16
REMARK                            x       y       z     vdW  Elec       q    Type
REMARK                         _______ _______ _______ _____ _____    ______ ____
ROOT
ATOM      1  C   UNL     1       3.137   3.816  19.235  0.00  0.00    +0.000 A 
ATOM      2  O   UNL     1       3.170   5.164  18.965  0.00  0.00    +0.000 OA
ATOM      3  C   UNL     1       3.973   5.348  17.886  0.00  0.00    +0.000 A 
ATOM      4  C   UNL     1       4.268   6.576  17.303  0.00  0.00    +0.000 A 
ATOM      5  C   UNL     1       5.119   6.544  16.192  0.00  0.00    +0.000 A 
ATOM      6  C   UNL     1       5.641   5.343  15.697  0.00  0.00    +0.000 A 
ATOM      7  C   UNL     1       5.323   4.126  16.317  0.00  0.00    +0.000 A 
ATOM      8  C   UNL     1       4.467   4.132  17.435  0.00  0.00    +0.000 A 
ATOM      9  C   UNL     1       3.925   3.153  18.309  0.00  0.00    +0.000 A 
ENDROOT
BRANCH   9  10
ATOM     10  N   UNL     1       4.150   1.827  18.230  0.00  0.00    +0.000 N 
ATOM     11  H   UNL     1       3.701   1.153  18.840  0.00  0.00    +0.000 HD
ATOM     12  H   UNL     1       4.817   1.426  17.572  0.00  0.00    +0.000 HD
ENDBRANCH   9  10
BRANCH   1  13
ATOM     13  C   UNL     1       2.355   3.341  20.350  0.00  0.00    +0.000 C 
ATOM     14  O   UNL     1       2.314   3.852  21.464  0.00  0.00    +0.000 OA
BRANCH  13  16
ATOM     15  C   UNL     1       0.614   2.452  19.031  0.00  0.00    +0.000 C 
ATOM     16  O   UNL     1       1.653   2.229  19.983  0.00  0.00    +0.000 OA
ENDBRANCH  13  16
ENDBRANCH   1  13
BRANCH   6  17
ATOM     17  O   UNL     1       6.451   5.481  14.600  0.00  0.00    +0.000 OA
ATOM     18  C   UNL     1       6.625   4.328  13.786  0.00  0.00    +0.000 C 
ENDBRANCH   6  17
TORSDOF 4
ENDMDL
