MODEL 1
REMARK VINA RESULT:      -7.2      0.000      0.000
REMARK  Name = 
REMARK  3 active torsions:
REMARK  status: ('A' for Active; 'I' for Inactive)
REMARK    1  A    between atoms: C_1  and  C_2
REMARK    2  A    between atoms: N_9  and  C_10
REMARK    3  A    between atoms: C_10  and  C_11
REMARK                            x       y       z     vdW  Elec       q    Type
REMARK                         _______ _______ _______ _____ _____    ______ ____
ROOT
ATOM      1  C   UNL     1       5.750   2.934  11.858  0.00  0.00    +0.000 C 
ATOM      2  C   UNL     1       6.099   3.698  13.099  0.00  0.00    +0.000 A 
ATOM      3  C   UNL     1       7.115   4.660  13.085  0.00  0.00    +0.000 A 
ATOM      4  C   UNL     1       7.453   5.333  14.258  0.00  0.00    +0.000 A 
ATOM      5  C   UNL     1       6.773   5.041  15.440  0.00  0.00    +0.000 A 
ATOM      6  O   UNL     1       7.259   5.672  16.584  0.00  0.00    +0.000 OA
ATOM      7  C   UNL     1       6.846   5.240  17.832  0.00  0.00    +0.000 A 
ATOM      8  S   UNL     1       7.859   5.770  19.054  0.00  0.00    +0.000 S 
ATOM      9  N   UNL     1       5.670   4.479  17.922  0.00  0.00    +0.000 N 
ATOM     10  C   UNL     1       5.005   3.960  16.779  0.00  0.00    +0.000 A 
ATOM     11  S   UNL     1       3.503   3.170  16.829  0.00  0.00    +0.000 S 
ATOM     12  C   UNL     1       5.718   4.146  15.480  0.00  0.00    +0.000 A 
ATOM     13  C   UNL     1       5.393   3.462  14.293  0.00  0.00    +0.000 A 
ENDROOT
BRANCH   9  14
ATOM     14  C   UNL     1       5.108   4.238  19.272  0.00  0.00    +0.000 C 
BRANCH  14  15
ATOM     15  C   UNL     1       3.845   5.012  19.602  0.00  0.00    +0.000 A 
ATOM     16  C   UNL     1       3.611   6.331  19.187  0.00  0.00    +0.000 A 
ATOM     17  C   UNL     1       2.455   7.009  19.585  0.00  0.00    +0.000 A 
ATOM     18  C   UNL     1       1.509   6.370  20.384  0.00  0.00    +0.000 A 
ATOM     19  C   UNL     1       1.707   5.049  20.772  0.00  0.00    +0.000 A 
ATOM     20  C   UNL     1       2.864   4.374  20.382  0.00  0.00    +0.000 A 
ENDBRANCH  14  15
ENDBRANCH   9  14
TORSDOF 2
ENDMDL
MODEL 2
REMARK VINA RESULT:      -7.1      2.756      5.794
REMARK  Name = 
REMARK  3 active torsions:
REMARK  status: ('A' for Active; 'I' for Inactive)
REMARK    1  A    between atoms: C_1  and  C_2
REMARK    2  A    between atoms: N_9  and  C_10
REMARK    3  A    between atoms: C_10  and  C_11
REMARK                            x       y       z     vdW  Elec       q    Type
REMARK                         _______ _______ _______ _____ _____    ______ ____
ROOT
ATOM      1  C   UNL     1       1.053   2.790  21.436  0.00  0.00    +0.000 C 
ATOM      2  C   UNL     1       1.789   2.906  20.135  0.00  0.00    +0.000 A 
ATOM      3  C   UNL     1       1.991   1.783  19.326  0.00  0.00    +0.000 A 
ATOM      4  C   UNL     1       2.711   1.902  18.138  0.00  0.00    +0.000 A 
ATOM      5  C   UNL     1       3.224   3.144  17.765  0.00  0.00    +0.000 A 
ATOM      6  O   UNL     1       4.032   3.144  16.629  0.00  0.00    +0.000 OA
ATOM      7  C   UNL     1       4.810   4.252  16.341  0.00  0.00    +0.000 A 
ATOM      8  S   UNL     1       6.031   3.903  15.251  0.00  0.00    +0.000 S 
ATOM      9  N   UNL     1       4.477   5.477  16.939  0.00  0.00    +0.000 N 
ATOM     10  C   UNL     1       3.515   5.585  17.979  0.00  0.00    +0.000 A 
ATOM     11  S   UNL     1       2.971   7.059  18.623  0.00  0.00    +0.000 S 
ATOM     12  C   UNL     1       2.988   4.290  18.504  0.00  0.00    +0.000 A 
ATOM     13  C   UNL     1       2.270   4.157  19.708  0.00  0.00    +0.000 A 
ENDROOT
BRANCH   9  14
ATOM     14  C   UNL     1       5.154   6.695  16.435  0.00  0.00    +0.000 C 
BRANCH  14  15
ATOM     15  C   UNL     1       6.344   7.167  17.250  0.00  0.00    +0.000 A 
ATOM     16  C   UNL     1       6.873   8.464  17.172  0.00  0.00    +0.000 A 
ATOM     17  C   UNL     1       8.013   8.812  17.901  0.00  0.00    +0.000 A 
ATOM     18  C   UNL     1       8.627   7.877  18.731  0.00  0.00    +0.000 A 
ATOM     19  C   UNL     1       8.093   6.598  18.849  0.00  0.00    +0.000 A 
ATOM     20  C   UNL     1       6.957   6.247  18.116  0.00  0.00    +0.000 A 
ENDBRANCH  14  15
ENDBRANCH   9  14
TORSDOF 2
ENDMDL
MODEL 3
REMARK VINA RESULT:      -7.1      2.744      5.908
REMARK  Name = 
REMARK  3 active torsions:
REMARK  status: ('A' for Active; 'I' for Inactive)
REMARK    1  A    between atoms: C_1  and  C_2
REMARK    2  A    between atoms: N_9  and  C_10
REMARK    3  A    between atoms: C_10  and  C_11
REMARK                            x       y       z     vdW  Elec       q    Type
REMARK                         _______ _______ _______ _____ _____    ______ ____
ROOT
ATOM      1  C   UNL     1       1.199   2.751  21.536  0.00  0.00    +0.000 C 
ATOM      2  C   UNL     1       1.908   2.882  20.222  0.00  0.00    +0.000 A 
ATOM      3  C   UNL     1       2.083   1.770  19.391  0.00  0.00    +0.000 A 
ATOM      4  C   UNL     1       2.780   1.902  18.191  0.00  0.00    +0.000 A 
ATOM      5  C   UNL     1       3.297   3.145  17.827  0.00  0.00    +0.000 A 
ATOM      6  O   UNL     1       4.080   3.156  16.673  0.00  0.00    +0.000 OA
ATOM      7  C   UNL     1       4.862   4.261  16.388  0.00  0.00    +0.000 A 
ATOM      8  S   UNL     1       6.057   3.919  15.266  0.00  0.00    +0.000 S 
ATOM      9  N   UNL     1       4.553   5.479  17.012  0.00  0.00    +0.000 N 
ATOM     10  C   UNL     1       3.615   5.579  18.073  0.00  0.00    +0.000 A 
ATOM     11  S   UNL     1       3.098   7.048  18.751  0.00  0.00    +0.000 S 
ATOM     12  C   UNL     1       3.086   4.281  18.588  0.00  0.00    +0.000 A 
ATOM     13  C   UNL     1       2.392   4.135  19.805  0.00  0.00    +0.000 A 
ENDROOT
BRANCH   9  14
ATOM     14  C   UNL     1       5.231   6.699  16.513  0.00  0.00    +0.000 C 
BRANCH  14  15
ATOM     15  C   UNL     1       6.465   7.125  17.287  0.00  0.00    +0.000 A 
ATOM     16  C   UNL     1       7.180   6.271  18.140  0.00  0.00    +0.000 A 
ATOM     17  C   UNL     1       8.268   6.748  18.875  0.00  0.00    +0.000 A 
ATOM     18  C   UNL     1       8.669   8.076  18.752  0.00  0.00    +0.000 A 
ATOM     19  C   UNL     1       7.995   8.927  17.882  0.00  0.00    +0.000 A 
ATOM     20  C   UNL     1       6.903   8.453  17.151  0.00  0.00    +0.000 A 
ENDBRANCH  14  15
ENDBRANCH   9  14
TORSDOF 2
ENDMDL
MODEL 4
REMARK VINA RESULT:      -6.9      0.123      1.082
REMARK  Name = 
REMARK  3 active torsions:
REMARK  status: ('A' for Active; 'I' for Inactive)
REMARK    1  A    between atoms: C_1  and  C_2
REMARK    2  A    between atoms: N_9  and  C_10
REMARK    3  A    between atoms: C_10  and  C_11
REMARK                            x       y       z     vdW  Elec       q    Type
REMARK                         _______ _______ _______ _____ _____    ______ ____
ROOT
ATOM      1  C   UNL     1       5.730   3.000  11.885  0.00  0.00    +0.000 C 
ATOM      2  C   UNL     1       6.089   3.744  13.135  0.00  0.00    +0.000 A 
ATOM      3  C   UNL     1       7.114   4.695  13.131  0.00  0.00    +0.000 A 
ATOM      4  C   UNL     1       7.462   5.349  14.312  0.00  0.00    +0.000 A 
ATOM      5  C   UNL     1       6.781   5.048  15.492  0.00  0.00    +0.000 A 
ATOM      6  O   UNL     1       7.275   5.659  16.643  0.00  0.00    +0.000 OA
ATOM      7  C   UNL     1       6.860   5.214  17.886  0.00  0.00    +0.000 A 
ATOM      8  S   UNL     1       7.882   5.718  19.113  0.00  0.00    +0.000 S 
ATOM      9  N   UNL     1       5.676   4.465  17.968  0.00  0.00    +0.000 N 
ATOM     10  C   UNL     1       5.004   3.969  16.820  0.00  0.00    +0.000 A 
ATOM     11  S   UNL     1       3.494   3.193  16.863  0.00  0.00    +0.000 S 
ATOM     12  C   UNL     1       5.717   4.164  15.523  0.00  0.00    +0.000 A 
ATOM     13  C   UNL     1       5.382   3.499  14.327  0.00  0.00    +0.000 A 
ENDROOT
BRANCH   9  14
ATOM     14  C   UNL     1       5.115   4.212  19.316  0.00  0.00    +0.000 C 
BRANCH  14  15
ATOM     15  C   UNL     1       3.867   5.003  19.664  0.00  0.00    +0.000 A 
ATOM     16  C   UNL     1       2.820   4.497  20.449  0.00  0.00    +0.000 A 
ATOM     17  C   UNL     1       1.668   5.256  20.674  0.00  0.00    +0.000 A 
ATOM     18  C   UNL     1       1.557   6.536  20.137  0.00  0.00    +0.000 A 
ATOM     19  C   UNL     1       2.601   7.068  19.388  0.00  0.00    +0.000 A 
ATOM     20  C   UNL     1       3.750   6.309  19.157  0.00  0.00    +0.000 A 
ENDBRANCH  14  15
ENDBRANCH   9  14
TORSDOF 2
ENDMDL
MODEL 5
REMARK VINA RESULT:      -6.4      4.753      7.084
REMARK  Name = 
REMARK  3 active torsions:
REMARK  status: ('A' for Active; 'I' for Inactive)
REMARK    1  A    between atoms: C_1  and  C_2
REMARK    2  A    between atoms: N_9  and  C_10
REMARK    3  A    between atoms: C_10  and  C_11
REMARK                            x       y       z     vdW  Elec       q    Type
REMARK                         _______ _______ _______ _____ _____    ______ ____
ROOT
ATOM      1  C   UNL     1       2.705   3.178  17.456  0.00  0.00    +0.000 C 
ATOM      2  C   UNL     1       2.376   4.189  18.513  0.00  0.00    +0.000 A 
ATOM      3  C   UNL     1       2.099   3.789  19.824  0.00  0.00    +0.000 A 
ATOM      4  C   UNL     1       1.757   4.739  20.784  0.00  0.00    +0.000 A 
ATOM      5  C   UNL     1       1.694   6.086  20.429  0.00  0.00    +0.000 A 
ATOM      6  O   UNL     1       1.226   6.948  21.420  0.00  0.00    +0.000 OA
ATOM      7  C   UNL     1       0.860   8.240  21.086  0.00  0.00    +0.000 A 
ATOM      8  S   UNL     1      -0.096   8.951  22.262  0.00  0.00    +0.000 S 
ATOM      9  N   UNL     1       1.337   8.782  19.883  0.00  0.00    +0.000 N 
ATOM     10  C   UNL     1       2.001   7.999  18.901  0.00  0.00    +0.000 A 
ATOM     11  S   UNL     1       2.728   8.639  17.506  0.00  0.00    +0.000 S 
ATOM     12  C   UNL     1       2.026   6.529  19.161  0.00  0.00    +0.000 A 
ATOM     13  C   UNL     1       2.358   5.560  18.194  0.00  0.00    +0.000 A 
ENDROOT
BRANCH   9  14
ATOM     14  C   UNL     1       1.148  10.235  19.660  0.00  0.00    +0.000 C 
BRANCH  14  15
ATOM     15  C   UNL     1      -0.200  10.639  19.092  0.00  0.00    +0.000 A 
ATOM     16  C   UNL     1      -0.817   9.985  18.015  0.00  0.00    +0.000 A 
ATOM     17  C   UNL     1      -2.027  10.453  17.497  0.00  0.00    +0.000 A 
ATOM     18  C   UNL     1      -2.647  11.565  18.061  0.00  0.00    +0.000 A 
ATOM     19  C   UNL     1      -2.069  12.202  19.154  0.00  0.00    +0.000 A 
ATOM     20  C   UNL     1      -0.856  11.740  19.668  0.00  0.00    +0.000 A 
ENDBRANCH  14  15
ENDBRANCH   9  14
TORSDOF 2
ENDMDL
MODEL 6
REMARK VINA RESULT:      -6.3      1.699      3.101
REMARK  Name = 
REMARK  3 active torsions:
REMARK  status: ('A' for Active; 'I' for Inactive)
REMARK    1  A    between atoms: C_1  and  C_2
REMARK    2  A    between atoms: N_9  and  C_10
REMARK    3  A    between atoms: C_10  and  C_11
REMARK                            x       y       z     vdW  Elec       q    Type
REMARK                         _______ _______ _______ _____ _____    ______ ____
ROOT
ATOM      1  C   UNL     1       8.150   5.486  12.939  0.00  0.00    +0.000 C 
ATOM      2  C   UNL     1       7.095   4.955  13.861  0.00  0.00    +0.000 A 
ATOM      3  C   UNL     1       6.333   3.837  13.506  0.00  0.00    +0.000 A 
ATOM      4  C   UNL     1       5.329   3.379  14.359  0.00  0.00    +0.000 A 
ATOM      5  C   UNL     1       5.093   4.043  15.562  0.00  0.00    +0.000 A 
ATOM      6  O   UNL     1       3.994   3.591  16.292  0.00  0.00    +0.000 OA
ATOM      7  C   UNL     1       3.508   4.353  17.340  0.00  0.00    +0.000 A 
ATOM      8  S   UNL     1       1.953   3.914  17.775  0.00  0.00    +0.000 S 
ATOM      9  N   UNL     1       4.347   5.325  17.906  0.00  0.00    +0.000 N 
ATOM     10  C   UNL     1       5.584   5.703  17.320  0.00  0.00    +0.000 A 
ATOM     11  S   UNL     1       6.699   6.758  18.047  0.00  0.00    +0.000 S 
ATOM     12  C   UNL     1       5.869   5.110  15.979  0.00  0.00    +0.000 A 
ATOM     13  C   UNL     1       6.871   5.572  15.106  0.00  0.00    +0.000 A 
ENDROOT
BRANCH   9  14
ATOM     14  C   UNL     1       3.913   5.953  19.176  0.00  0.00    +0.000 C 
BRANCH  14  15
ATOM     15  C   UNL     1       2.955   7.121  19.035  0.00  0.00    +0.000 A 
ATOM     16  C   UNL     1       2.865   7.917  17.883  0.00  0.00    +0.000 A 
ATOM     17  C   UNL     1       2.008   9.020  17.845  0.00  0.00    +0.000 A 
ATOM     18  C   UNL     1       1.216   9.330  18.947  0.00  0.00    +0.000 A 
ATOM     19  C   UNL     1       1.264   8.529  20.084  0.00  0.00    +0.000 A 
ATOM     20  C   UNL     1       2.124   7.430  20.126  0.00  0.00    +0.000 A 
ENDBRANCH  14  15
ENDBRANCH   9  14
TORSDOF 2
ENDMDL
MODEL 7
REMARK VINA RESULT:      -6.2      6.433      8.897
REMARK  Name = 
REMARK  3 active torsions:
REMARK  status: ('A' for Active; 'I' for Inactive)
REMARK    1  A    between atoms: C_1  and  C_2
REMARK    2  A    between atoms: N_9  and  C_10
REMARK    3  A    between atoms: C_10  and  C_11
REMARK                            x       y       z     vdW  Elec       q    Type
REMARK                         _______ _______ _______ _____ _____    ______ ____
ROOT
ATOM      1  C   UNL     1       2.670   5.587  20.031  0.00  0.00    +0.000 C 
ATOM      2  C   UNL     1       2.196   6.947  19.618  0.00  0.00    +0.000 A 
ATOM      3  C   UNL     1       2.319   7.374  18.292  0.00  0.00    +0.000 A 
ATOM      4  C   UNL     1       1.908   8.657  17.933  0.00  0.00    +0.000 A 
ATOM      5  C   UNL     1       1.376   9.506  18.902  0.00  0.00    +0.000 A 
ATOM      6  O   UNL     1       1.106  10.807  18.479  0.00  0.00    +0.000 OA
ATOM      7  C   UNL     1       0.849  11.792  19.416  0.00  0.00    +0.000 A 
ATOM      8  S   UNL     1       1.019  13.331  18.780  0.00  0.00    +0.000 S 
ATOM      9  N   UNL     1       0.463  11.403  20.708  0.00  0.00    +0.000 N 
ATOM     10  C   UNL     1       0.527  10.056  21.153  0.00  0.00    +0.000 A 
ATOM     11  S   UNL     1      -0.072   9.518  22.648  0.00  0.00    +0.000 S 
ATOM     12  C   UNL     1       1.175   9.097  20.209  0.00  0.00    +0.000 A 
ATOM     13  C   UNL     1       1.605   7.804  20.564  0.00  0.00    +0.000 A 
ENDROOT
BRANCH   9  14
ATOM     14  C   UNL     1      -0.048  12.454  21.619  0.00  0.00    +0.000 C 
BRANCH  14  15
ATOM     15  C   UNL     1      -1.558  12.585  21.686  0.00  0.00    +0.000 A 
ATOM     16  C   UNL     1      -2.284  12.596  22.887  0.00  0.00    +0.000 A 
ATOM     17  C   UNL     1      -3.680  12.651  22.874  0.00  0.00    +0.000 A 
ATOM     18  C   UNL     1      -4.367  12.717  21.664  0.00  0.00    +0.000 A 
ATOM     19  C   UNL     1      -3.662  12.746  20.466  0.00  0.00    +0.000 A 
ATOM     20  C   UNL     1      -2.267  12.684  20.477  0.00  0.00    +0.000 A 
ENDBRANCH  14  15
ENDBRANCH   9  14
TORSDOF 2
ENDMDL
MODEL 8
REMARK VINA RESULT:      -6.2      6.259      8.650
REMARK  Name = 
REMARK  3 active torsions:
REMARK  status: ('A' for Active; 'I' for Inactive)
REMARK    1  A    between atoms: C_1  and  C_2
REMARK    2  A    between atoms: N_9  and  C_10
REMARK    3  A    between atoms: C_10  and  C_11
REMARK                            x       y       z     vdW  Elec       q    Type
REMARK                         _______ _______ _______ _____ _____    ______ ____
ROOT
ATOM      1  C   UNL     1       2.852   5.404  20.019  0.00  0.00    +0.000 C 
ATOM      2  C   UNL     1       2.377   6.756  19.579  0.00  0.00    +0.000 A 
ATOM      3  C   UNL     1       2.486   7.152  18.242  0.00  0.00    +0.000 A 
ATOM      4  C   UNL     1       2.075   8.428  17.859  0.00  0.00    +0.000 A 
ATOM      5  C   UNL     1       1.557   9.301  18.814  0.00  0.00    +0.000 A 
ATOM      6  O   UNL     1       1.286  10.592  18.364  0.00  0.00    +0.000 OA
ATOM      7  C   UNL     1       1.043  11.600  19.281  0.00  0.00    +0.000 A 
ATOM      8  S   UNL     1       1.210  13.123  18.608  0.00  0.00    +0.000 S 
ATOM      9  N   UNL     1       0.671  11.242  20.586  0.00  0.00    +0.000 N 
ATOM     10  C   UNL     1       0.736   9.905  21.061  0.00  0.00    +0.000 A 
ATOM     11  S   UNL     1       0.154   9.404  22.575  0.00  0.00    +0.000 S 
ATOM     12  C   UNL     1       1.370   8.923  20.132  0.00  0.00    +0.000 A 
ATOM     13  C   UNL     1       1.800   7.637  20.512  0.00  0.00    +0.000 A 
ENDROOT
BRANCH   9  14
ATOM     14  C   UNL     1       0.174  12.316  21.479  0.00  0.00    +0.000 C 
BRANCH  14  15
ATOM     15  C   UNL     1      -1.335  12.455  21.559  0.00  0.00    +0.000 A 
ATOM     16  C   UNL     1      -2.180  12.404  20.440  0.00  0.00    +0.000 A 
ATOM     17  C   UNL     1      -3.555  12.608  20.578  0.00  0.00    +0.000 A 
ATOM     18  C   UNL     1      -4.106  12.843  21.835  0.00  0.00    +0.000 A 
ATOM     19  C   UNL     1      -3.288  12.859  22.960  0.00  0.00    +0.000 A 
ATOM     20  C   UNL     1      -1.912  12.662  22.823  0.00  0.00    +0.000 A 
ENDBRANCH  14  15
ENDBRANCH   9  14
TORSDOF 2
ENDMDL
MODEL 9
REMARK VINA RESULT:      -6.2      5.184      7.481
REMARK  Name = 
REMARK  3 active torsions:
REMARK  status: ('A' for Active; 'I' for Inactive)
REMARK    1  A    between atoms: C_1  and  C_2
REMARK    2  A    between atoms: N_9  and  C_10
REMARK    3  A    between atoms: C_10  and  C_11
REMARK                            x       y       z     vdW  Elec       q    Type
REMARK                         _______ _______ _______ _____ _____    ______ ____
ROOT
ATOM      1  C   UNL     1       3.156   4.351  17.361  0.00  0.00    +0.000 C 
ATOM      2  C   UNL     1       2.696   5.240  18.476  0.00  0.00    +0.000 A 
ATOM      3  C   UNL     1       2.534   4.736  19.771  0.00  0.00    +0.000 A 
ATOM      4  C   UNL     1       2.068   5.568  20.788  0.00  0.00    +0.000 A 
ATOM      5  C   UNL     1       1.767   6.899  20.506  0.00  0.00    +0.000 A 
ATOM      6  O   UNL     1       1.194   7.621  21.552  0.00  0.00    +0.000 OA
ATOM      7  C   UNL     1       0.604   8.846  21.295  0.00  0.00    +0.000 A 
ATOM      8  S   UNL     1      -0.418   9.328  22.530  0.00  0.00    +0.000 S 
ATOM      9  N   UNL     1       0.943   9.518  20.111  0.00  0.00    +0.000 N 
ATOM     10  C   UNL     1       1.696   8.907  19.073  0.00  0.00    +0.000 A 
ATOM     11  S   UNL     1       2.258   9.727  17.696  0.00  0.00    +0.000 S 
ATOM     12  C   UNL     1       1.977   7.452  19.255  0.00  0.00    +0.000 A 
ATOM     13  C   UNL     1       2.436   6.601  18.231  0.00  0.00    +0.000 A 
ENDROOT
BRANCH   9  14
ATOM     14  C   UNL     1       0.503  10.926  19.969  0.00  0.00    +0.000 C 
BRANCH  14  15
ATOM     15  C   UNL     1      -0.873  11.125  19.362  0.00  0.00    +0.000 A 
ATOM     16  C   UNL     1      -1.803  12.062  19.836  0.00  0.00    +0.000 A 
ATOM     17  C   UNL     1      -3.080  12.145  19.273  0.00  0.00    +0.000 A 
ATOM     18  C   UNL     1      -3.436  11.309  18.218  0.00  0.00    +0.000 A 
ATOM     19  C   UNL     1      -2.513  10.400  17.710  0.00  0.00    +0.000 A 
ATOM     20  C   UNL     1      -1.239  10.311  18.276  0.00  0.00    +0.000 A 
ENDBRANCH  14  15
ENDBRANCH   9  14
TORSDOF 2
ENDMDL
