MODEL 1
REMARK VINA RESULT:      -8.6      0.000      0.000
REMARK  Name = 
REMARK  10 active torsions:
REMARK  status: ('A' for Active; 'I' for Inactive)
REMARK    1  A    between atoms: C_1  and  O_2
REMARK    2  A    between atoms: O_2  and  C_3
REMARK    3  A    between atoms: C_5  and  N_6
REMARK    4  A    between atoms: C_7  and  C_9
REMARK    5  A    between atoms: C_9  and  N_10
REMARK    6  A    between atoms: C_18  and  S_19
REMARK    7  A    between atoms: S_19  and  N_22
REMARK    8  A    between atoms: N_22  and  C_23
REMARK    9  A    between atoms: C_31  and  O_32
REMARK   10  A    between atoms: O_32  and  C_33
REMARK                            x       y       z     vdW  Elec       q    Type
REMARK                         _______ _______ _______ _____ _____    ______ ____
ROOT
ATOM      1  N   UNL     1       2.208   6.854  19.028  0.00  0.00    +0.000 N 
ATOM      2  C   UNL     1       1.772   6.595  20.337  0.00  0.00    +0.000 C 
ATOM      3  O   UNL     1       1.306   7.459  21.078  0.00  0.00    +0.000 OA
ATOM      4  C   UNL     1       1.846   5.130  20.739  0.00  0.00    +0.000 C 
ATOM      5  O   UNL     1       2.107   4.216  19.686  0.00  0.00    +0.000 OA
ATOM      6  C   UNL     1       3.225   4.642  19.010  0.00  0.00    +0.000 A 
ATOM      7  C   UNL     1       4.229   3.660  18.868  0.00  0.00    +0.000 A 
ATOM      8  C   UNL     1       5.470   3.980  18.364  0.00  0.00    +0.000 A 
ATOM      9  C   UNL     1       5.701   5.290  17.950  0.00  0.00    +0.000 A 
ATOM     10  C   UNL     1       4.625   6.304  18.015  0.00  0.00    +0.000 A 
ATOM     11  C   UNL     1       3.311   5.979  18.566  0.00  0.00    +0.000 A 
ENDROOT
BRANCH   9  12
ATOM     12  S   UNL     1       7.363   5.516  17.198  0.00  0.00    +0.000 S 
ATOM     13  O   UNL     1       7.871   6.754  17.750  0.00  0.00    +0.000 OA
ATOM     14  O   UNL     1       8.067   4.271  17.348  0.00  0.00    +0.000 OA
BRANCH  12  15
ATOM     15  N   UNL     1       7.208   5.845  15.481  0.00  0.00    +0.000 NA
ATOM     16  H   UNL     1       7.982   6.481  15.220  0.00  0.00    +0.000 HD
BRANCH  15  17
ATOM     17  C   UNL     1       7.104   4.688  14.519  0.00  0.00    +0.000 C 
ATOM     18  C   UNL     1       5.643   4.375  14.258  0.00  0.00    +0.000 C 
ATOM     19  C   UNL     1       5.660   3.485  13.024  0.00  0.00    +0.000 C 
ATOM     20  C   UNL     1       6.838   3.972  12.184  0.00  0.00    +0.000 C 
ATOM     21  C   UNL     1       7.597   4.976  13.076  0.00  0.00    +0.000 C 
ENDBRANCH  15  17
ENDBRANCH  12  15
ENDBRANCH   9  12
BRANCH   1  22
ATOM     22  C   UNL     1       1.285   7.834  18.341  0.00  0.00    +0.000 C 
BRANCH  22  24
ATOM     23  N   UNL     1       1.236  10.580  18.162  0.00  0.00    +0.000 N 
ATOM     24  C   UNL     1       1.871   9.330  17.961  0.00  0.00    +0.000 C 
ATOM     25  O   UNL     1       3.007   9.422  17.456  0.00  0.00    +0.000 OA
ATOM     26  H   UNL     1       1.824  11.331  17.828  0.00  0.00    +0.000 HD
BRANCH  23  29
ATOM     27  C   UNL     1      -2.363  11.600  18.216  0.00  0.00    +0.000 A 
ATOM     28  C   UNL     1      -1.126  11.104  17.794  0.00  0.00    +0.000 A 
ATOM     29  C   UNL     1      -0.043  11.019  18.641  0.00  0.00    +0.000 A 
ATOM     30  C   UNL     1      -0.270  11.389  19.997  0.00  0.00    +0.000 A 
ATOM     31  C   UNL     1      -1.547  11.850  20.466  0.00  0.00    +0.000 A 
ATOM     32  C   UNL     1      -2.584  11.958  19.539  0.00  0.00    +0.000 A 
BRANCH  27  34
ATOM     33  C   UNL     1      -3.562  10.740  16.386  0.00  0.00    +0.000 C 
ATOM     34  O   UNL     1      -3.437  11.748  17.381  0.00  0.00    +0.000 OA
ENDBRANCH  27  34
BRANCH  31  35
ATOM     35  O   UNL     1      -1.682  12.165  21.790  0.00  0.00    +0.000 OA
ATOM     36  C   UNL     1      -0.917  11.393  22.752  0.00  0.00    +0.000 C 
ENDBRANCH  31  35
ENDBRANCH  23  29
ENDBRANCH  22  24
ENDBRANCH   1  22
TORSDOF 8
ENDMDL
MODEL 2
REMARK VINA RESULT:      -8.6      1.960      2.117
REMARK  Name = 
REMARK  10 active torsions:
REMARK  status: ('A' for Active; 'I' for Inactive)
REMARK    1  A    between atoms: C_1  and  O_2
REMARK    2  A    between atoms: O_2  and  C_3
REMARK    3  A    between atoms: C_5  and  N_6
REMARK    4  A    between atoms: C_7  and  C_9
REMARK    5  A    between atoms: C_9  and  N_10
REMARK    6  A    between atoms: C_18  and  S_19
REMARK    7  A    between atoms: S_19  and  N_22
REMARK    8  A    between atoms: N_22  and  C_23
REMARK    9  A    between atoms: C_31  and  O_32
REMARK   10  A    between atoms: O_32  and  C_33
REMARK                            x       y       z     vdW  Elec       q    Type
REMARK                         _______ _______ _______ _____ _____    ______ ____
ROOT
ATOM      1  N   UNL     1       2.413   6.793  19.330  0.00  0.00    +0.000 N 
ATOM      2  C   UNL     1       1.825   6.002  20.329  0.00  0.00    +0.000 C 
ATOM      3  O   UNL     1       1.522   6.432  21.441  0.00  0.00    +0.000 OA
ATOM      4  C   UNL     1       1.516   4.578  19.893  0.00  0.00    +0.000 C 
ATOM      5  O   UNL     1       1.634   4.321  18.504  0.00  0.00    +0.000 OA
ATOM      6  C   UNL     1       2.872   4.750  18.088  0.00  0.00    +0.000 A 
ATOM      7  C   UNL     1       3.622   3.779  17.389  0.00  0.00    +0.000 A 
ATOM      8  C   UNL     1       4.939   4.002  17.057  0.00  0.00    +0.000 A 
ATOM      9  C   UNL     1       5.508   5.231  17.383  0.00  0.00    +0.000 A 
ATOM     10  C   UNL     1       4.702   6.286  18.037  0.00  0.00    +0.000 A 
ATOM     11  C   UNL     1       3.309   6.053  18.412  0.00  0.00    +0.000 A 
ENDROOT
BRANCH   9  12
ATOM     12  S   UNL     1       7.230   5.405  16.765  0.00  0.00    +0.000 S 
ATOM     13  O   UNL     1       7.733   6.623  17.361  0.00  0.00    +0.000 OA
ATOM     14  O   UNL     1       7.880   4.137  16.964  0.00  0.00    +0.000 OA
BRANCH  12  15
ATOM     15  N   UNL     1       7.222   5.742  15.042  0.00  0.00    +0.000 NA
ATOM     16  H   UNL     1       8.014   6.379  14.852  0.00  0.00    +0.000 HD
BRANCH  15  17
ATOM     17  C   UNL     1       7.201   4.590  14.069  0.00  0.00    +0.000 C 
ATOM     18  C   UNL     1       5.765   4.193  13.783  0.00  0.00    +0.000 C 
ATOM     19  C   UNL     1       5.854   3.317  12.542  0.00  0.00    +0.000 C 
ATOM     20  C   UNL     1       7.013   3.882  11.725  0.00  0.00    +0.000 C 
ATOM     21  C   UNL     1       7.697   4.920  12.637  0.00  0.00    +0.000 C 
ENDBRANCH  15  17
ENDBRANCH  12  15
ENDBRANCH   9  12
BRANCH   1  22
ATOM     22  C   UNL     1       1.808   8.178  19.320  0.00  0.00    +0.000 C 
BRANCH  22  24
ATOM     23  N   UNL     1       1.931  10.553  17.934  0.00  0.00    +0.000 N 
ATOM     24  C   UNL     1       2.087   9.147  18.012  0.00  0.00    +0.000 C 
ATOM     25  O   UNL     1       2.502   8.630  16.957  0.00  0.00    +0.000 OA
ATOM     26  H   UNL     1       2.166  10.881  17.007  0.00  0.00    +0.000 HD
BRANCH  23  29
ATOM     27  C   UNL     1       1.074  13.940  19.271  0.00  0.00    +0.000 A 
ATOM     28  C   UNL     1       1.461  12.906  18.413  0.00  0.00    +0.000 A 
ATOM     29  C   UNL     1       1.455  11.586  18.807  0.00  0.00    +0.000 A 
ATOM     30  C   UNL     1       0.954  11.318  20.113  0.00  0.00    +0.000 A 
ATOM     31  C   UNL     1       0.500  12.360  20.992  0.00  0.00    +0.000 A 
ATOM     32  C   UNL     1       0.584  13.677  20.543  0.00  0.00    +0.000 A 
BRANCH  27  34
ATOM     33  C   UNL     1      -0.135  15.919  18.889  0.00  0.00    +0.000 C 
ATOM     34  O   UNL     1       1.126  15.263  18.924  0.00  0.00    +0.000 OA
ENDBRANCH  27  34
BRANCH  31  35
ATOM     35  O   UNL     1       0.014  12.011  22.222  0.00  0.00    +0.000 OA
ATOM     36  C   UNL     1      -1.184  12.680  22.694  0.00  0.00    +0.000 C 
ENDBRANCH  31  35
ENDBRANCH  23  29
ENDBRANCH  22  24
ENDBRANCH   1  22
TORSDOF 8
ENDMDL
MODEL 3
REMARK VINA RESULT:      -8.6      1.127      2.388
REMARK  Name = 
REMARK  10 active torsions:
REMARK  status: ('A' for Active; 'I' for Inactive)
REMARK    1  A    between atoms: C_1  and  O_2
REMARK    2  A    between atoms: O_2  and  C_3
REMARK    3  A    between atoms: C_5  and  N_6
REMARK    4  A    between atoms: C_7  and  C_9
REMARK    5  A    between atoms: C_9  and  N_10
REMARK    6  A    between atoms: C_18  and  S_19
REMARK    7  A    between atoms: S_19  and  N_22
REMARK    8  A    between atoms: N_22  and  C_23
REMARK    9  A    between atoms: C_31  and  O_32
REMARK   10  A    between atoms: O_32  and  C_33
REMARK                            x       y       z     vdW  Elec       q    Type
REMARK                         _______ _______ _______ _____ _____    ______ ____
ROOT
ATOM      1  N   UNL     1       2.064   7.787  18.804  0.00  0.00    +0.000 N 
ATOM      2  C   UNL     1       1.771   7.741  20.176  0.00  0.00    +0.000 C 
ATOM      3  O   UNL     1       1.459   8.733  20.834  0.00  0.00    +0.000 OA
ATOM      4  C   UNL     1       1.790   6.342  20.771  0.00  0.00    +0.000 C 
ATOM      5  O   UNL     1       1.858   5.278  19.836  0.00  0.00    +0.000 OA
ATOM      6  C   UNL     1       2.915   5.513  18.988  0.00  0.00    +0.000 A 
ATOM      7  C   UNL     1       3.824   4.438  18.878  0.00  0.00    +0.000 A 
ATOM      8  C   UNL     1       5.015   4.582  18.202  0.00  0.00    +0.000 A 
ATOM      9  C   UNL     1       5.286   5.801  17.585  0.00  0.00    +0.000 A 
ATOM     10  C   UNL     1       4.298   6.903  17.623  0.00  0.00    +0.000 A 
ATOM     11  C   UNL     1       3.041   6.768  18.354  0.00  0.00    +0.000 A 
ENDROOT
BRANCH   9  12
ATOM     12  S   UNL     1       6.858   5.783  16.632  0.00  0.00    +0.000 S 
ATOM     13  O   UNL     1       7.500   7.046  16.923  0.00  0.00    +0.000 OA
ATOM     14  O   UNL     1       7.500   4.524  16.901  0.00  0.00    +0.000 OA
BRANCH  12  15
ATOM     15  N   UNL     1       6.521   5.860  14.911  0.00  0.00    +0.000 NA
ATOM     16  H   UNL     1       6.989   6.707  14.545  0.00  0.00    +0.000 HD
BRANCH  15  17
ATOM     17  C   UNL     1       6.819   4.657  14.051  0.00  0.00    +0.000 C 
ATOM     18  C   UNL     1       5.517   4.039  13.575  0.00  0.00    +0.000 C 
ATOM     19  C   UNL     1       5.931   3.108  12.445  0.00  0.00    +0.000 C 
ATOM     20  C   UNL     1       7.128   3.781  11.777  0.00  0.00    +0.000 C 
ATOM     21  C   UNL     1       7.504   4.963  12.693  0.00  0.00    +0.000 C 
ENDBRANCH  15  17
ENDBRANCH  12  15
ENDBRANCH   9  12
BRANCH   1  22
ATOM     22  C   UNL     1       1.137   8.743  18.090  0.00  0.00    +0.000 C 
BRANCH  22  24
ATOM     23  N   UNL     1       0.585  11.430  18.316  0.00  0.00    +0.000 N 
ATOM     24  C   UNL     1       1.489  10.356  18.131  0.00  0.00    +0.000 C 
ATOM     25  O   UNL     1       2.676  10.716  18.009  0.00  0.00    +0.000 OA
ATOM     26  H   UNL     1       1.077  12.313  18.289  0.00  0.00    +0.000 HD
BRANCH  23  29
ATOM     27  C   UNL     1      -2.770  12.269  19.742  0.00  0.00    +0.000 A 
ATOM     28  C   UNL     1      -1.388  12.188  19.549  0.00  0.00    +0.000 A 
ATOM     29  C   UNL     1      -0.836  11.567  18.451  0.00  0.00    +0.000 A 
ATOM     30  C   UNL     1      -1.751  11.081  17.473  0.00  0.00    +0.000 A 
ATOM     31  C   UNL     1      -3.175  11.201  17.625  0.00  0.00    +0.000 A 
ATOM     32  C   UNL     1      -3.661  11.796  18.788  0.00  0.00    +0.000 A 
BRANCH  27  34
ATOM     33  C   UNL     1      -3.216  14.243  20.939  0.00  0.00    +0.000 C 
ATOM     34  O   UNL     1      -3.343  12.829  20.852  0.00  0.00    +0.000 OA
ENDBRANCH  27  34
BRANCH  31  35
ATOM     35  O   UNL     1      -3.980  10.724  16.626  0.00  0.00    +0.000 OA
ATOM     36  C   UNL     1      -3.436  10.673  15.282  0.00  0.00    +0.000 C 
ENDBRANCH  31  35
ENDBRANCH  23  29
ENDBRANCH  22  24
ENDBRANCH   1  22
TORSDOF 8
ENDMDL
MODEL 4
REMARK VINA RESULT:      -8.6      1.126      2.373
REMARK  Name = 
REMARK  10 active torsions:
REMARK  status: ('A' for Active; 'I' for Inactive)
REMARK    1  A    between atoms: C_1  and  O_2
REMARK    2  A    between atoms: O_2  and  C_3
REMARK    3  A    between atoms: C_5  and  N_6
REMARK    4  A    between atoms: C_7  and  C_9
REMARK    5  A    between atoms: C_9  and  N_10
REMARK    6  A    between atoms: C_18  and  S_19
REMARK    7  A    between atoms: S_19  and  N_22
REMARK    8  A    between atoms: N_22  and  C_23
REMARK    9  A    between atoms: C_31  and  O_32
REMARK   10  A    between atoms: O_32  and  C_33
REMARK                            x       y       z     vdW  Elec       q    Type
REMARK                         _______ _______ _______ _____ _____    ______ ____
ROOT
ATOM      1  N   UNL     1       2.443   6.534  19.348  0.00  0.00    +0.000 N 
ATOM      2  C   UNL     1       1.734   5.655  20.181  0.00  0.00    +0.000 C 
ATOM      3  O   UNL     1       1.379   5.945  21.324  0.00  0.00    +0.000 OA
ATOM      4  C   UNL     1       1.364   4.335  19.523  0.00  0.00    +0.000 C 
ATOM      5  O   UNL     1       1.566   4.270  18.121  0.00  0.00    +0.000 OA
ATOM      6  C   UNL     1       2.857   4.659  17.850  0.00  0.00    +0.000 A 
ATOM      7  C   UNL     1       3.589   3.743  17.065  0.00  0.00    +0.000 A 
ATOM      8  C   UNL     1       4.939   3.911  16.852  0.00  0.00    +0.000 A 
ATOM      9  C   UNL     1       5.562   5.035  17.390  0.00  0.00    +0.000 A 
ATOM     10  C   UNL     1       4.782   6.045  18.140  0.00  0.00    +0.000 A 
ATOM     11  C   UNL     1       3.353   5.866  18.389  0.00  0.00    +0.000 A 
ENDROOT
BRANCH   9  12
ATOM     12  S   UNL     1       7.333   5.165  16.912  0.00  0.00    +0.000 S 
ATOM     13  O   UNL     1       7.524   6.542  16.513  0.00  0.00    +0.000 OA
ATOM     14  O   UNL     1       8.100   4.566  17.971  0.00  0.00    +0.000 OA
BRANCH  12  15
ATOM     15  N   UNL     1       7.631   4.248  15.445  0.00  0.00    +0.000 NA
ATOM     16  H   UNL     1       7.431   3.256  15.659  0.00  0.00    +0.000 HD
BRANCH  15  17
ATOM     17  C   UNL     1       6.960   4.677  14.164  0.00  0.00    +0.000 C 
ATOM     18  C   UNL     1       8.015   5.037  13.135  0.00  0.00    +0.000 C 
ATOM     19  C   UNL     1       7.259   5.076  11.815  0.00  0.00    +0.000 C 
ATOM     20  C   UNL     1       6.170   4.013  11.934  0.00  0.00    +0.000 C 
ATOM     21  C   UNL     1       6.193   3.559  13.408  0.00  0.00    +0.000 C 
ENDBRANCH  15  17
ENDBRANCH  12  15
ENDBRANCH   9  12
BRANCH   1  22
ATOM     22  C   UNL     1       1.932   7.948  19.504  0.00  0.00    +0.000 C 
BRANCH  22  24
ATOM     23  N   UNL     1       1.069  10.080  17.992  0.00  0.00    +0.000 N 
ATOM     24  C   UNL     1       1.835   8.900  18.157  0.00  0.00    +0.000 C 
ATOM     25  O   UNL     1       2.510   8.597  17.155  0.00  0.00    +0.000 OA
ATOM     26  H   UNL     1       1.194  10.452  17.060  0.00  0.00    +0.000 HD
BRANCH  23  29
ATOM     27  C   UNL     1      -0.453  11.989  20.826  0.00  0.00    +0.000 A 
ATOM     28  C   UNL     1       0.471  11.339  20.003  0.00  0.00    +0.000 A 
ATOM     29  C   UNL     1       0.119  10.810  18.781  0.00  0.00    +0.000 A 
ATOM     30  C   UNL     1      -1.222  11.032  18.358  0.00  0.00    +0.000 A 
ATOM     31  C   UNL     1      -2.175  11.745  19.163  0.00  0.00    +0.000 A 
ATOM     32  C   UNL     1      -1.761  12.207  20.412  0.00  0.00    +0.000 A 
BRANCH  27  34
ATOM     33  C   UNL     1      -1.214  12.440  23.004  0.00  0.00    +0.000 C 
ATOM     34  O   UNL     1      -0.144  12.473  22.068  0.00  0.00    +0.000 OA
ENDBRANCH  27  34
BRANCH  31  35
ATOM     35  O   UNL     1      -3.438  11.930  18.670  0.00  0.00    +0.000 OA
ATOM     36  C   UNL     1      -4.474  12.347  19.597  0.00  0.00    +0.000 C 
ENDBRANCH  31  35
ENDBRANCH  23  29
ENDBRANCH  22  24
ENDBRANCH   1  22
TORSDOF 8
ENDMDL
MODEL 5
REMARK VINA RESULT:      -8.6      1.423      1.658
REMARK  Name = 
REMARK  10 active torsions:
REMARK  status: ('A' for Active; 'I' for Inactive)
REMARK    1  A    between atoms: C_1  and  O_2
REMARK    2  A    between atoms: O_2  and  C_3
REMARK    3  A    between atoms: C_5  and  N_6
REMARK    4  A    between atoms: C_7  and  C_9
REMARK    5  A    between atoms: C_9  and  N_10
REMARK    6  A    between atoms: C_18  and  S_19
REMARK    7  A    between atoms: S_19  and  N_22
REMARK    8  A    between atoms: N_22  and  C_23
REMARK    9  A    between atoms: C_31  and  O_32
REMARK   10  A    between atoms: O_32  and  C_33
REMARK                            x       y       z     vdW  Elec       q    Type
REMARK                         _______ _______ _______ _____ _____    ______ ____
ROOT
ATOM      1  N   UNL     1       2.262   6.748  19.150  0.00  0.00    +0.000 N 
ATOM      2  C   UNL     1       1.851   6.405  20.447  0.00  0.00    +0.000 C 
ATOM      3  O   UNL     1       1.420   7.224  21.258  0.00  0.00    +0.000 OA
ATOM      4  C   UNL     1       1.906   4.915  20.744  0.00  0.00    +0.000 C 
ATOM      5  O   UNL     1       2.124   4.073  19.624  0.00  0.00    +0.000 OA
ATOM      6  C   UNL     1       3.235   4.525  18.952  0.00  0.00    +0.000 A 
ATOM      7  C   UNL     1       4.216   3.537  18.717  0.00  0.00    +0.000 A 
ATOM      8  C   UNL     1       5.451   3.870  18.207  0.00  0.00    +0.000 A 
ATOM      9  C   UNL     1       5.699   5.201  17.881  0.00  0.00    +0.000 A 
ATOM     10  C   UNL     1       4.644   6.227  18.043  0.00  0.00    +0.000 A 
ATOM     11  C   UNL     1       3.337   5.888  18.601  0.00  0.00    +0.000 A 
ENDROOT
BRANCH   9  12
ATOM     12  S   UNL     1       7.347   5.450  17.106  0.00  0.00    +0.000 S 
ATOM     13  O   UNL     1       7.857   6.681  17.670  0.00  0.00    +0.000 OA
ATOM     14  O   UNL     1       8.061   4.206  17.225  0.00  0.00    +0.000 OA
BRANCH  12  15
ATOM     15  N   UNL     1       7.163   5.805  15.398  0.00  0.00    +0.000 NA
ATOM     16  H   UNL     1       7.893   6.494  15.148  0.00  0.00    +0.000 HD
BRANCH  15  17
ATOM     17  C   UNL     1       7.129   4.665  14.411  0.00  0.00    +0.000 C 
ATOM     18  C   UNL     1       5.689   4.283  14.125  0.00  0.00    +0.000 C 
ATOM     19  C   UNL     1       5.766   3.422  12.873  0.00  0.00    +0.000 C 
ATOM     20  C   UNL     1       6.928   3.986  12.058  0.00  0.00    +0.000 C 
ATOM     21  C   UNL     1       7.624   5.008  12.980  0.00  0.00    +0.000 C 
ENDBRANCH  15  17
ENDBRANCH  12  15
ENDBRANCH   9  12
BRANCH   1  22
ATOM     22  C   UNL     1       1.344   7.791  18.556  0.00  0.00    +0.000 C 
BRANCH  22  24
ATOM     23  N   UNL     1       1.799  10.494  18.308  0.00  0.00    +0.000 N 
ATOM     24  C   UNL     1       2.017   9.153  17.908  0.00  0.00    +0.000 C 
ATOM     25  O   UNL     1       2.831   9.036  16.972  0.00  0.00    +0.000 OA
ATOM     26  H   UNL     1       2.337  11.125  17.730  0.00  0.00    +0.000 HD
BRANCH  23  29
ATOM     27  C   UNL     1      -0.558  12.974  19.822  0.00  0.00    +0.000 A 
ATOM     28  C   UNL     1       0.211  12.260  18.898  0.00  0.00    +0.000 A 
ATOM     29  C   UNL     1       0.958  11.161  19.260  0.00  0.00    +0.000 A 
ATOM     30  C   UNL     1       0.844  10.736  20.614  0.00  0.00    +0.000 A 
ATOM     31  C   UNL     1       0.018  11.422  21.569  0.00  0.00    +0.000 A 
ATOM     32  C   UNL     1      -0.671  12.558  21.142  0.00  0.00    +0.000 A 
BRANCH  27  34
ATOM     33  C   UNL     1      -0.735  15.308  20.037  0.00  0.00    +0.000 C 
ATOM     34  O   UNL     1      -1.263  14.101  19.501  0.00  0.00    +0.000 OA
ENDBRANCH  27  34
BRANCH  31  35
ATOM     35  O   UNL     1      -0.050  10.933  22.845  0.00  0.00    +0.000 OA
ATOM     36  C   UNL     1      -0.365   9.527  23.017  0.00  0.00    +0.000 C 
ENDBRANCH  31  35
ENDBRANCH  23  29
ENDBRANCH  22  24
ENDBRANCH   1  22
TORSDOF 8
ENDMDL
MODEL 6
REMARK VINA RESULT:      -8.5      1.673      2.357
REMARK  Name = 
REMARK  10 active torsions:
REMARK  status: ('A' for Active; 'I' for Inactive)
REMARK    1  A    between atoms: C_1  and  O_2
REMARK    2  A    between atoms: O_2  and  C_3
REMARK    3  A    between atoms: C_5  and  N_6
REMARK    4  A    between atoms: C_7  and  C_9
REMARK    5  A    between atoms: C_9  and  N_10
REMARK    6  A    between atoms: C_18  and  S_19
REMARK    7  A    between atoms: S_19  and  N_22
REMARK    8  A    between atoms: N_22  and  C_23
REMARK    9  A    between atoms: C_31  and  O_32
REMARK   10  A    between atoms: O_32  and  C_33
REMARK                            x       y       z     vdW  Elec       q    Type
REMARK                         _______ _______ _______ _____ _____    ______ ____
ROOT
ATOM      1  N   UNL     1       2.448   6.555  19.291  0.00  0.00    +0.000 N 
ATOM      2  C   UNL     1       1.912   5.679  20.247  0.00  0.00    +0.000 C 
ATOM      3  O   UNL     1       1.683   6.007  21.411  0.00  0.00    +0.000 OA
ATOM      4  C   UNL     1       1.558   4.304  19.703  0.00  0.00    +0.000 C 
ATOM      5  O   UNL     1       1.587   4.176  18.291  0.00  0.00    +0.000 OA
ATOM      6  C   UNL     1       2.803   4.632  17.840  0.00  0.00    +0.000 A 
ATOM      7  C   UNL     1       3.495   3.724  17.010  0.00  0.00    +0.000 A 
ATOM      8  C   UNL     1       4.793   3.968  16.618  0.00  0.00    +0.000 A 
ATOM      9  C   UNL     1       5.397   5.157  17.019  0.00  0.00    +0.000 A 
ATOM     10  C   UNL     1       4.646   6.153  17.816  0.00  0.00    +0.000 A 
ATOM     11  C   UNL     1       3.276   5.896  18.254  0.00  0.00    +0.000 A 
ENDROOT
BRANCH   9  12
ATOM     12  S   UNL     1       7.080   5.375  16.313  0.00  0.00    +0.000 S 
ATOM     13  O   UNL     1       7.529   6.669  16.779  0.00  0.00    +0.000 OA
ATOM     14  O   UNL     1       7.814   4.169  16.593  0.00  0.00    +0.000 OA
BRANCH  12  15
ATOM     15  N   UNL     1       6.984   5.556  14.570  0.00  0.00    +0.000 NA
ATOM     16  H   UNL     1       7.764   6.173  14.283  0.00  0.00    +0.000 HD
BRANCH  15  17
ATOM     17  C   UNL     1       6.920   4.321  13.707  0.00  0.00    +0.000 C 
ATOM     18  C   UNL     1       5.477   4.039  13.331  0.00  0.00    +0.000 C 
ATOM     19  C   UNL     1       5.571   3.040  12.187  0.00  0.00    +0.000 C 
ATOM     20  C   UNL     1       6.844   3.406  11.428  0.00  0.00    +0.000 C 
ATOM     21  C   UNL     1       7.560   4.458  12.300  0.00  0.00    +0.000 C 
ENDBRANCH  15  17
ENDBRANCH  12  15
ENDBRANCH   9  12
BRANCH   1  22
ATOM     22  C   UNL     1       1.861   7.940  19.445  0.00  0.00    +0.000 C 
BRANCH  22  24
ATOM     23  N   UNL     1       1.451  10.301  18.093  0.00  0.00    +0.000 N 
ATOM     24  C   UNL     1       1.938   8.973  18.159  0.00  0.00    +0.000 C 
ATOM     25  O   UNL     1       2.498   8.592  17.113  0.00  0.00    +0.000 OA
ATOM     26  H   UNL     1       1.628  10.695  17.179  0.00  0.00    +0.000 HD
BRANCH  23  29
ATOM     27  C   UNL     1      -0.548  11.530  21.007  0.00  0.00    +0.000 A 
ATOM     28  C   UNL     1       0.237  10.726  20.175  0.00  0.00    +0.000 A 
ATOM     29  C   UNL     1       0.713  11.172  18.962  0.00  0.00    +0.000 A 
ATOM     30  C   UNL     1       0.433  12.529  18.632  0.00  0.00    +0.000 A 
ATOM     31  C   UNL     1      -0.326  13.389  19.497  0.00  0.00    +0.000 A 
ATOM     32  C   UNL     1      -0.819  12.853  20.686  0.00  0.00    +0.000 A 
BRANCH  27  34
ATOM     33  C   UNL     1      -1.649  12.112  23.000  0.00  0.00    +0.000 C 
ATOM     34  O   UNL     1      -1.081  11.092  22.189  0.00  0.00    +0.000 OA
ENDBRANCH  27  34
BRANCH  31  35
ATOM     35  O   UNL     1      -0.531  14.686  19.111  0.00  0.00    +0.000 OA
ATOM     36  C   UNL     1       0.629  15.550  18.991  0.00  0.00    +0.000 C 
ENDBRANCH  31  35
ENDBRANCH  23  29
ENDBRANCH  22  24
ENDBRANCH   1  22
TORSDOF 8
ENDMDL
MODEL 7
REMARK VINA RESULT:      -8.5      1.093      1.296
REMARK  Name = 
REMARK  10 active torsions:
REMARK  status: ('A' for Active; 'I' for Inactive)
REMARK    1  A    between atoms: C_1  and  O_2
REMARK    2  A    between atoms: O_2  and  C_3
REMARK    3  A    between atoms: C_5  and  N_6
REMARK    4  A    between atoms: C_7  and  C_9
REMARK    5  A    between atoms: C_9  and  N_10
REMARK    6  A    between atoms: C_18  and  S_19
REMARK    7  A    between atoms: S_19  and  N_22
REMARK    8  A    between atoms: N_22  and  C_23
REMARK    9  A    between atoms: C_31  and  O_32
REMARK   10  A    between atoms: O_32  and  C_33
REMARK                            x       y       z     vdW  Elec       q    Type
REMARK                         _______ _______ _______ _____ _____    ______ ____
ROOT
ATOM      1  N   UNL     1       2.340   6.705  19.361  0.00  0.00    +0.000 N 
ATOM      2  C   UNL     1       1.637   5.881  20.255  0.00  0.00    +0.000 C 
ATOM      3  O   UNL     1       1.270   6.252  21.369  0.00  0.00    +0.000 OA
ATOM      4  C   UNL     1       1.293   4.509  19.697  0.00  0.00    +0.000 C 
ATOM      5  O   UNL     1       1.506   4.340  18.306  0.00  0.00    +0.000 OA
ATOM      6  C   UNL     1       2.792   4.728  18.014  0.00  0.00    +0.000 A 
ATOM      7  C   UNL     1       3.544   3.766  17.305  0.00  0.00    +0.000 A 
ATOM      8  C   UNL     1       4.893   3.938  17.088  0.00  0.00    +0.000 A 
ATOM      9  C   UNL     1       5.495   5.109  17.542  0.00  0.00    +0.000 A 
ATOM     10  C   UNL     1       4.694   6.161  18.208  0.00  0.00    +0.000 A 
ATOM     11  C   UNL     1       3.267   5.980  18.461  0.00  0.00    +0.000 A 
ENDROOT
BRANCH   9  12
ATOM     12  S   UNL     1       7.267   5.230  17.066  0.00  0.00    +0.000 S 
ATOM     13  O   UNL     1       7.455   6.594  16.623  0.00  0.00    +0.000 OA
ATOM     14  O   UNL     1       8.032   4.668  18.147  0.00  0.00    +0.000 OA
BRANCH  12  15
ATOM     15  N   UNL     1       7.573   4.267  15.631  0.00  0.00    +0.000 NA
ATOM     16  H   UNL     1       7.359   3.284  15.871  0.00  0.00    +0.000 HD
BRANCH  15  17
ATOM     17  C   UNL     1       6.924   4.665  14.329  0.00  0.00    +0.000 C 
ATOM     18  C   UNL     1       7.997   4.957  13.296  0.00  0.00    +0.000 C 
ATOM     19  C   UNL     1       7.252   4.967  11.969  0.00  0.00    +0.000 C 
ATOM     20  C   UNL     1       6.133   3.940  12.119  0.00  0.00    +0.000 C 
ATOM     21  C   UNL     1       6.132   3.542  13.609  0.00  0.00    +0.000 C 
ENDBRANCH  15  17
ENDBRANCH  12  15
ENDBRANCH   9  12
BRANCH   1  22
ATOM     22  C   UNL     1       1.806   8.118  19.405  0.00  0.00    +0.000 C 
BRANCH  22  24
ATOM     23  N   UNL     1       0.829   9.961  17.609  0.00  0.00    +0.000 N 
ATOM     24  C   UNL     1       1.785   8.993  18.004  0.00  0.00    +0.000 C 
ATOM     25  O   UNL     1       2.704   8.831  17.179  0.00  0.00    +0.000 OA
ATOM     26  H   UNL     1       1.061  10.331  16.697  0.00  0.00    +0.000 HD
BRANCH  23  29
ATOM     27  C   UNL     1      -2.808  10.752  17.978  0.00  0.00    +0.000 A 
ATOM     28  C   UNL     1      -1.604  10.206  17.524  0.00  0.00    +0.000 A 
ATOM     29  C   UNL     1      -0.401  10.470  18.141  0.00  0.00    +0.000 A 
ATOM     30  C   UNL     1      -0.457  11.265  19.322  0.00  0.00    +0.000 A 
ATOM     31  C   UNL     1      -1.690  11.791  19.837  0.00  0.00    +0.000 A 
ATOM     32  C   UNL     1      -2.862  11.525  19.130  0.00  0.00    +0.000 A 
BRANCH  27  34
ATOM     33  C   UNL     1      -4.879  11.676  17.358  0.00  0.00    +0.000 C 
ATOM     34  O   UNL     1      -4.008  10.552  17.350  0.00  0.00    +0.000 OA
ENDBRANCH  27  34
BRANCH  31  35
ATOM     35  O   UNL     1      -1.654  12.529  20.989  0.00  0.00    +0.000 OA
ATOM     36  C   UNL     1      -2.899  13.101  21.468  0.00  0.00    +0.000 C 
ENDBRANCH  31  35
ENDBRANCH  23  29
ENDBRANCH  22  24
ENDBRANCH   1  22
TORSDOF 8
ENDMDL
MODEL 8
REMARK VINA RESULT:      -8.5      1.152      1.316
REMARK  Name = 
REMARK  10 active torsions:
REMARK  status: ('A' for Active; 'I' for Inactive)
REMARK    1  A    between atoms: C_1  and  O_2
REMARK    2  A    between atoms: O_2  and  C_3
REMARK    3  A    between atoms: C_5  and  N_6
REMARK    4  A    between atoms: C_7  and  C_9
REMARK    5  A    between atoms: C_9  and  N_10
REMARK    6  A    between atoms: C_18  and  S_19
REMARK    7  A    between atoms: S_19  and  N_22
REMARK    8  A    between atoms: N_22  and  C_23
REMARK    9  A    between atoms: C_31  and  O_32
REMARK   10  A    between atoms: O_32  and  C_33
REMARK                            x       y       z     vdW  Elec       q    Type
REMARK                         _______ _______ _______ _____ _____    ______ ____
ROOT
ATOM      1  N   UNL     1       2.040   7.980  18.772  0.00  0.00    +0.000 N 
ATOM      2  C   UNL     1       1.738   7.996  20.142  0.00  0.00    +0.000 C 
ATOM      3  O   UNL     1       1.459   9.022  20.761  0.00  0.00    +0.000 OA
ATOM      4  C   UNL     1       1.704   6.620  20.788  0.00  0.00    +0.000 C 
ATOM      5  O   UNL     1       1.739   5.520  19.894  0.00  0.00    +0.000 OA
ATOM      6  C   UNL     1       2.808   5.686  19.045  0.00  0.00    +0.000 A 
ATOM      7  C   UNL     1       3.678   4.576  18.981  0.00  0.00    +0.000 A 
ATOM      8  C   UNL     1       4.877   4.652  18.308  0.00  0.00    +0.000 A 
ATOM      9  C   UNL     1       5.195   5.837  17.648  0.00  0.00    +0.000 A 
ATOM     10  C   UNL     1       4.247   6.973  17.638  0.00  0.00    +0.000 A 
ATOM     11  C   UNL     1       2.982   6.911  18.365  0.00  0.00    +0.000 A 
ENDROOT
BRANCH   9  12
ATOM     12  S   UNL     1       6.770   5.726  16.706  0.00  0.00    +0.000 S 
ATOM     13  O   UNL     1       7.484   6.949  17.005  0.00  0.00    +0.000 OA
ATOM     14  O   UNL     1       7.334   4.430  16.977  0.00  0.00    +0.000 OA
BRANCH  12  15
ATOM     15  N   UNL     1       6.452   5.827  14.983  0.00  0.00    +0.000 NA
ATOM     16  H   UNL     1       6.902   6.692  14.639  0.00  0.00    +0.000 HD
BRANCH  15  17
ATOM     17  C   UNL     1       6.790   4.648  14.105  0.00  0.00    +0.000 C 
ATOM     18  C   UNL     1       5.510   4.016  13.590  0.00  0.00    +0.000 C 
ATOM     19  C   UNL     1       5.965   3.116  12.449  0.00  0.00    +0.000 C 
ATOM     20  C   UNL     1       7.162   3.825  11.820  0.00  0.00    +0.000 C 
ATOM     21  C   UNL     1       7.496   4.995  12.768  0.00  0.00    +0.000 C 
ENDBRANCH  15  17
ENDBRANCH  12  15
ENDBRANCH   9  12
BRANCH   1  22
ATOM     22  C   UNL     1       1.151   8.942  18.017  0.00  0.00    +0.000 C 
BRANCH  22  24
ATOM     23  N   UNL     1       0.595  11.606  18.424  0.00  0.00    +0.000 N 
ATOM     24  C   UNL     1       1.490  10.556  18.103  0.00  0.00    +0.000 C 
ATOM     25  O   UNL     1       2.656  10.939  17.889  0.00  0.00    +0.000 OA
ATOM     26  H   UNL     1       1.074  12.496  18.394  0.00  0.00    +0.000 HD
BRANCH  23  29
ATOM     27  C   UNL     1      -3.116  11.498  17.968  0.00  0.00    +0.000 A 
ATOM     28  C   UNL     1      -1.744  11.331  17.760  0.00  0.00    +0.000 A 
ATOM     29  C   UNL     1      -0.809  11.716  18.695  0.00  0.00    +0.000 A 
ATOM     30  C   UNL     1      -1.316  12.220  19.927  0.00  0.00    +0.000 A 
ATOM     31  C   UNL     1      -2.724  12.349  20.184  0.00  0.00    +0.000 A 
ATOM     32  C   UNL     1      -3.610  11.987  19.170  0.00  0.00    +0.000 A 
BRANCH  27  34
ATOM     33  C   UNL     1      -5.227  11.992  17.058  0.00  0.00    +0.000 C 
ATOM     34  O   UNL     1      -4.062  11.177  17.033  0.00  0.00    +0.000 OA
ENDBRANCH  27  34
BRANCH  31  35
ATOM     35  O   UNL     1      -3.124  12.823  21.403  0.00  0.00    +0.000 OA
ATOM     36  C   UNL     1      -4.542  12.796  21.709  0.00  0.00    +0.000 C 
ENDBRANCH  31  35
ENDBRANCH  23  29
ENDBRANCH  22  24
ENDBRANCH   1  22
TORSDOF 8
ENDMDL
MODEL 9
REMARK VINA RESULT:      -8.1      3.649      6.040
REMARK  Name = 
REMARK  10 active torsions:
REMARK  status: ('A' for Active; 'I' for Inactive)
REMARK    1  A    between atoms: C_1  and  O_2
REMARK    2  A    between atoms: O_2  and  C_3
REMARK    3  A    between atoms: C_5  and  N_6
REMARK    4  A    between atoms: C_7  and  C_9
REMARK    5  A    between atoms: C_9  and  N_10
REMARK    6  A    between atoms: C_18  and  S_19
REMARK    7  A    between atoms: S_19  and  N_22
REMARK    8  A    between atoms: N_22  and  C_23
REMARK    9  A    between atoms: C_31  and  O_32
REMARK   10  A    between atoms: O_32  and  C_33
REMARK                            x       y       z     vdW  Elec       q    Type
REMARK                         _______ _______ _______ _____ _____    ______ ____
ROOT
ATOM      1  N   UNL     1      -0.661  11.390  19.177  0.00  0.00    +0.000 N 
ATOM      2  C   UNL     1      -0.462  12.408  20.123  0.00  0.00    +0.000 C 
ATOM      3  O   UNL     1      -0.435  13.604  19.835  0.00  0.00    +0.000 OA
ATOM      4  C   UNL     1      -0.365  11.913  21.558  0.00  0.00    +0.000 C 
ATOM      5  O   UNL     1      -0.723  10.557  21.766  0.00  0.00    +0.000 OA
ATOM      6  C   UNL     1      -0.009   9.781  20.884  0.00  0.00    +0.000 A 
ATOM      7  C   UNL     1       0.703   8.720  21.485  0.00  0.00    +0.000 A 
ATOM      8  C   UNL     1       1.593   7.961  20.758  0.00  0.00    +0.000 A 
ATOM      9  C   UNL     1       1.742   8.230  19.400  0.00  0.00    +0.000 A 
ATOM     10  C   UNL     1       0.933   9.283  18.746  0.00  0.00    +0.000 A 
ATOM     11  C   UNL     1       0.001  10.108  19.511  0.00  0.00    +0.000 A 
ENDROOT
BRANCH   9  12
ATOM     12  S   UNL     1       2.876   7.051  18.561  0.00  0.00    +0.000 S 
ATOM     13  O   UNL     1       3.241   7.688  17.314  0.00  0.00    +0.000 OA
ATOM     14  O   UNL     1       3.863   6.654  19.529  0.00  0.00    +0.000 OA
BRANCH  12  15
ATOM     15  N   UNL     1       1.996   5.615  18.067  0.00  0.00    +0.000 NA
ATOM     16  H   UNL     1       2.212   5.453  17.068  0.00  0.00    +0.000 HD
BRANCH  15  17
ATOM     17  C   UNL     1       2.147   4.349  18.872  0.00  0.00    +0.000 C 
ATOM     18  C   UNL     1       1.114   4.327  19.982  0.00  0.00    +0.000 C 
ATOM     19  C   UNL     1       1.107   2.883  20.465  0.00  0.00    +0.000 C 
ATOM     20  C   UNL     1       1.398   2.037  19.229  0.00  0.00    +0.000 C 
ATOM     21  C   UNL     1       1.791   3.038  18.123  0.00  0.00    +0.000 C 
ENDBRANCH  15  17
ENDBRANCH  12  15
ENDBRANCH   9  12
BRANCH   1  22
ATOM     22  C   UNL     1      -1.688  11.808  18.150  0.00  0.00    +0.000 C 
BRANCH  22  24
ATOM     23  N   UNL     1      -3.877  10.510  17.102  0.00  0.00    +0.000 N 
ATOM     24  C   UNL     1      -2.480  10.629  17.308  0.00  0.00    +0.000 C 
ATOM     25  O   UNL     1      -1.814   9.732  16.756  0.00  0.00    +0.000 OA
ATOM     26  H   UNL     1      -4.081   9.686  16.554  0.00  0.00    +0.000 HD
BRANCH  23  29
ATOM     27  C   UNL     1      -6.554  13.111  17.351  0.00  0.00    +0.000 A 
ATOM     28  C   UNL     1      -5.463  12.362  16.899  0.00  0.00    +0.000 A 
ATOM     29  C   UNL     1      -5.046  11.216  17.539  0.00  0.00    +0.000 A 
ATOM     30  C   UNL     1      -5.836  10.784  18.643  0.00  0.00    +0.000 A 
ATOM     31  C   UNL     1      -6.993  11.508  19.091  0.00  0.00    +0.000 A 
ATOM     32  C   UNL     1      -7.325  12.688  18.426  0.00  0.00    +0.000 A 
BRANCH  27  34
ATOM     33  C   UNL     1      -7.595  15.198  17.647  0.00  0.00    +0.000 C 
ATOM     34  O   UNL     1      -6.954  14.283  16.768  0.00  0.00    +0.000 OA
ENDBRANCH  27  34
BRANCH  31  35
ATOM     35  O   UNL     1      -7.706  11.010  20.147  0.00  0.00    +0.000 OA
ATOM     36  C   UNL     1      -7.602  11.699  21.421  0.00  0.00    +0.000 C 
ENDBRANCH  31  35
ENDBRANCH  23  29
ENDBRANCH  22  24
ENDBRANCH   1  22
TORSDOF 8
ENDMDL
