MODEL 1
REMARK VINA RESULT:      -6.6      0.000      0.000
REMARK  Name = 
REMARK  22 active torsions:
REMARK  status: ('A' for Active; 'I' for Inactive)
REMARK    1  A    between atoms: C_1  and  N_2
REMARK    2  A    between atoms: N_2  and  C_3
REMARK    3  A    between atoms: N_2  and  C_4
REMARK    4  A    between atoms: C_4  and  C_5
REMARK    5  A    between atoms: C_7  and  C_8
REMARK    6  A    between atoms: C_8  and  C_9
REMARK    7  A    between atoms: C_8  and  C_10
REMARK    8  A    between atoms: C_8  and  C_11
REMARK    9  A    between atoms: C_13  and  C_14
REMARK   10  A    between atoms: C_14  and  N_15
REMARK   11  A    between atoms: N_15  and  C_16
REMARK   12  A    between atoms: N_15  and  C_17
REMARK   13  A    between atoms: C_18  and  O_19
REMARK   14  A    between atoms: C_20  and  C_21
REMARK   15  A    between atoms: C_21  and  N_22
REMARK   16  A    between atoms: N_22  and  C_23
REMARK   17  A    between atoms: N_22  and  C_24
REMARK   18  A    between atoms: C_27  and  C_28
REMARK   19  A    between atoms: C_28  and  N_29
REMARK   20  A    between atoms: N_29  and  C_30
REMARK   21  A    between atoms: N_29  and  C_31
REMARK   22  A    between atoms: C_32  and  O_33
REMARK                            x       y       z     vdW  Elec       q    Type
REMARK                         _______ _______ _______ _____ _____    ______ ____
ROOT
ATOM      1  C   UNL     1       0.787   8.709  21.037  0.00  0.00    +0.000 C 
ATOM      2  C   UNL     1      -0.447   8.064  21.721  0.00  0.00    +0.000 C 
ATOM      3  C   UNL     1       1.639   9.310  22.195  0.00  0.00    +0.000 C 
ENDROOT
BRANCH   1   6
ATOM      4  C   UNL     1       2.280   5.273  19.917  0.00  0.00    +0.000 A 
ATOM      5  C   UNL     1       1.543   6.254  20.611  0.00  0.00    +0.000 A 
ATOM      6  C   UNL     1       1.624   7.629  20.286  0.00  0.00    +0.000 A 
ATOM      7  C   UNL     1       2.438   7.970  19.188  0.00  0.00    +0.000 A 
ATOM      8  C   UNL     1       3.158   7.014  18.443  0.00  0.00    +0.000 A 
ATOM      9  C   UNL     1       3.109   5.676  18.868  0.00  0.00    +0.000 A 
BRANCH   9  10
ATOM     10  O   UNL     1       3.844   4.717  18.215  0.00  0.00    +0.000 OA
ATOM     11  H   UNL     1       4.526   5.190  17.687  0.00  0.00    +0.000 HD
ENDBRANCH   9  10
BRANCH   4  12
ATOM     12  C   UNL     1       2.149   3.811  20.303  0.00  0.00    +0.000 C 
BRANCH  12  14
ATOM     13  C   UNL     1       2.797   1.711  19.254  0.00  0.00    +0.000 C 
ATOM     14  N   UNL     1       1.925   2.888  19.165  0.00  0.00    +0.000 NA
ATOM     15  C   UNL     1       0.524   2.454  19.168  0.00  0.00    +0.000 C 
ENDBRANCH  12  14
ENDBRANCH   4  12
BRANCH   8  16
ATOM     16  C   UNL     1       3.962   7.482  17.243  0.00  0.00    +0.000 C 
BRANCH  16  17
ATOM     17  N   UNL     1       5.123   6.620  16.918  0.00  0.00    +0.000 NA
ATOM     18  C   UNL     1       5.213   6.347  15.474  0.00  0.00    +0.000 C 
ATOM     19  C   UNL     1       6.362   7.288  17.340  0.00  0.00    +0.000 C 
ENDBRANCH  16  17
ENDBRANCH   8  16
ENDBRANCH   1   6
BRANCH   1  20
ATOM     20  C   UNL     1       0.312   9.868  20.118  0.00  0.00    +0.000 A 
ATOM     21  C   UNL     1      -0.605   9.667  19.070  0.00  0.00    +0.000 A 
ATOM     22  C   UNL     1      -0.992  10.706  18.201  0.00  0.00    +0.000 A 
ATOM     23  C   UNL     1      -0.517  12.003  18.451  0.00  0.00    +0.000 A 
ATOM     24  C   UNL     1       0.417  12.253  19.463  0.00  0.00    +0.000 A 
ATOM     25  C   UNL     1       0.813  11.177  20.283  0.00  0.00    +0.000 A 
BRANCH  23  26
ATOM     26  O   UNL     1      -0.929  13.054  17.674  0.00  0.00    +0.000 OA
ATOM     27  H   UNL     1      -0.171  13.677  17.616  0.00  0.00    +0.000 HD
ENDBRANCH  23  26
BRANCH  22  28
ATOM     28  C   UNL     1      -1.916  10.363  17.043  0.00  0.00    +0.000 C 
BRANCH  28  29
ATOM     29  N   UNL     1      -3.085  11.264  16.921  0.00  0.00    +0.000 NA
ATOM     30  C   UNL     1      -3.839  11.021  15.681  0.00  0.00    +0.000 C 
ATOM     31  C   UNL     1      -3.988  11.057  18.062  0.00  0.00    +0.000 C 
ENDBRANCH  28  29
ENDBRANCH  22  28
BRANCH  24  32
ATOM     32  C   UNL     1       0.994  13.641  19.681  0.00  0.00    +0.000 C 
BRANCH  32  33
ATOM     33  N   UNL     1       1.700  14.187  18.499  0.00  0.00    +0.000 NA
ATOM     34  C   UNL     1       1.812  15.649  18.570  0.00  0.00    +0.000 C 
ATOM     35  C   UNL     1       3.048  13.613  18.412  0.00  0.00    +0.000 C 
ENDBRANCH  32  33
ENDBRANCH  24  32
ENDBRANCH   1  20
TORSDOF 12
ENDMDL
MODEL 2
REMARK VINA RESULT:      -6.5      0.585      8.048
REMARK  Name = 
REMARK  22 active torsions:
REMARK  status: ('A' for Active; 'I' for Inactive)
REMARK    1  A    between atoms: C_1  and  N_2
REMARK    2  A    between atoms: N_2  and  C_3
REMARK    3  A    between atoms: N_2  and  C_4
REMARK    4  A    between atoms: C_4  and  C_5
REMARK    5  A    between atoms: C_7  and  C_8
REMARK    6  A    between atoms: C_8  and  C_9
REMARK    7  A    between atoms: C_8  and  C_10
REMARK    8  A    between atoms: C_8  and  C_11
REMARK    9  A    between atoms: C_13  and  C_14
REMARK   10  A    between atoms: C_14  and  N_15
REMARK   11  A    between atoms: N_15  and  C_16
REMARK   12  A    between atoms: N_15  and  C_17
REMARK   13  A    between atoms: C_18  and  O_19
REMARK   14  A    between atoms: C_20  and  C_21
REMARK   15  A    between atoms: C_21  and  N_22
REMARK   16  A    between atoms: N_22  and  C_23
REMARK   17  A    between atoms: N_22  and  C_24
REMARK   18  A    between atoms: C_27  and  C_28
REMARK   19  A    between atoms: C_28  and  N_29
REMARK   20  A    between atoms: N_29  and  C_30
REMARK   21  A    between atoms: N_29  and  C_31
REMARK   22  A    between atoms: C_32  and  O_33
REMARK                            x       y       z     vdW  Elec       q    Type
REMARK                         _______ _______ _______ _____ _____    ______ ____
ROOT
ATOM      1  C   UNL     1       0.792   8.835  21.091  0.00  0.00    +0.000 C 
ATOM      2  C   UNL     1       1.677   9.419  22.225  0.00  0.00    +0.000 C 
ATOM      3  C   UNL     1      -0.429   8.186  21.808  0.00  0.00    +0.000 C 
ENDROOT
BRANCH   1   6
ATOM      4  C   UNL     1       0.330  12.325  19.389  0.00  0.00    +0.000 A 
ATOM      5  C   UNL     1       0.760  11.302  20.258  0.00  0.00    +0.000 A 
ATOM      6  C   UNL     1       0.294   9.970  20.145  0.00  0.00    +0.000 A 
ATOM      7  C   UNL     1      -0.582   9.698  19.077  0.00  0.00    +0.000 A 
ATOM      8  C   UNL     1      -1.002  10.684  18.161  0.00  0.00    +0.000 A 
ATOM      9  C   UNL     1      -0.579  12.005  18.377  0.00  0.00    +0.000 A 
BRANCH   9  10
ATOM     10  O   UNL     1      -1.013  13.013  17.552  0.00  0.00    +0.000 OA
ATOM     11  H   UNL     1      -1.964  12.843  17.369  0.00  0.00    +0.000 HD
ENDBRANCH   9  10
BRANCH   4  12
ATOM     12  C   UNL     1       0.867  13.734  19.551  0.00  0.00    +0.000 C 
BRANCH  12  14
ATOM     13  C   UNL     1       2.003  15.648  18.560  0.00  0.00    +0.000 C 
ATOM     14  N   UNL     1       1.668  14.227  18.405  0.00  0.00    +0.000 NA
ATOM     15  C   UNL     1       2.906  13.446  18.315  0.00  0.00    +0.000 C 
ENDBRANCH  12  14
ENDBRANCH   4  12
BRANCH   8  16
ATOM     16  C   UNL     1      -1.905  10.271  17.012  0.00  0.00    +0.000 C 
BRANCH  16  17
ATOM     17  N   UNL     1      -3.039  11.196  16.770  0.00  0.00    +0.000 NA
ATOM     18  C   UNL     1      -3.618  11.010  15.429  0.00  0.00    +0.000 C 
ATOM     19  C   UNL     1      -4.091  10.950  17.766  0.00  0.00    +0.000 C 
ENDBRANCH  16  17
ENDBRANCH   8  16
ENDBRANCH   1   6
BRANCH   1  20
ATOM     20  C   UNL     1       1.584   7.721  20.351  0.00  0.00    +0.000 A 
ATOM     21  C   UNL     1       1.653   6.402  20.834  0.00  0.00    +0.000 A 
ATOM     22  C   UNL     1       2.417   5.407  20.194  0.00  0.00    +0.000 A 
ATOM     23  C   UNL     1       3.052   5.723  18.983  0.00  0.00    +0.000 A 
ATOM     24  C   UNL     1       3.038   7.026  18.472  0.00  0.00    +0.000 A 
ATOM     25  C   UNL     1       2.298   8.004  19.167  0.00  0.00    +0.000 A 
BRANCH  23  26
ATOM     26  O   UNL     1       3.743   4.762  18.291  0.00  0.00    +0.000 OA
ATOM     27  H   UNL     1       4.552   5.194  17.938  0.00  0.00    +0.000 HD
ENDBRANCH  23  26
BRANCH  22  28
ATOM     28  C   UNL     1       2.499   4.036  20.849  0.00  0.00    +0.000 C 
BRANCH  28  29
ATOM     29  N   UNL     1       1.208   3.313  20.891  0.00  0.00    +0.000 NA
ATOM     30  C   UNL     1       0.901   2.662  19.608  0.00  0.00    +0.000 C 
ATOM     31  C   UNL     1       1.254   2.281  21.936  0.00  0.00    +0.000 C 
ENDBRANCH  28  29
ENDBRANCH  22  28
BRANCH  24  32
ATOM     32  C   UNL     1       3.795   7.387  17.206  0.00  0.00    +0.000 C 
BRANCH  32  33
ATOM     33  N   UNL     1       5.011   6.571  16.982  0.00  0.00    +0.000 NA
ATOM     34  C   UNL     1       5.191   6.259  15.560  0.00  0.00    +0.000 C 
ATOM     35  C   UNL     1       6.194   7.295  17.462  0.00  0.00    +0.000 C 
ENDBRANCH  32  33
ENDBRANCH  24  32
ENDBRANCH   1  20
TORSDOF 12
ENDMDL
MODEL 3
REMARK VINA RESULT:      -6.5      0.711      4.631
REMARK  Name = 
REMARK  22 active torsions:
REMARK  status: ('A' for Active; 'I' for Inactive)
REMARK    1  A    between atoms: C_1  and  N_2
REMARK    2  A    between atoms: N_2  and  C_3
REMARK    3  A    between atoms: N_2  and  C_4
REMARK    4  A    between atoms: C_4  and  C_5
REMARK    5  A    between atoms: C_7  and  C_8
REMARK    6  A    between atoms: C_8  and  C_9
REMARK    7  A    between atoms: C_8  and  C_10
REMARK    8  A    between atoms: C_8  and  C_11
REMARK    9  A    between atoms: C_13  and  C_14
REMARK   10  A    between atoms: C_14  and  N_15
REMARK   11  A    between atoms: N_15  and  C_16
REMARK   12  A    between atoms: N_15  and  C_17
REMARK   13  A    between atoms: C_18  and  O_19
REMARK   14  A    between atoms: C_20  and  C_21
REMARK   15  A    between atoms: C_21  and  N_22
REMARK   16  A    between atoms: N_22  and  C_23
REMARK   17  A    between atoms: N_22  and  C_24
REMARK   18  A    between atoms: C_27  and  C_28
REMARK   19  A    between atoms: C_28  and  N_29
REMARK   20  A    between atoms: N_29  and  C_30
REMARK   21  A    between atoms: N_29  and  C_31
REMARK   22  A    between atoms: C_32  and  O_33
REMARK                            x       y       z     vdW  Elec       q    Type
REMARK                         _______ _______ _______ _____ _____    ______ ____
ROOT
ATOM      1  C   UNL     1       0.798   8.821  20.970  0.00  0.00    +0.000 C 
ATOM      2  C   UNL     1      -0.450   8.243  21.687  0.00  0.00    +0.000 C 
ATOM      3  C   UNL     1       1.706   9.385  22.104  0.00  0.00    +0.000 C 
ENDROOT
BRANCH   1   6
ATOM      4  C   UNL     1       3.030   6.949  18.362  0.00  0.00    +0.000 A 
ATOM      5  C   UNL     1       2.319   7.960  19.041  0.00  0.00    +0.000 A 
ATOM      6  C   UNL     1       1.562   7.696  20.207  0.00  0.00    +0.000 A 
ATOM      7  C   UNL     1       1.599   6.377  20.698  0.00  0.00    +0.000 A 
ATOM      8  C   UNL     1       2.332   5.348  20.072  0.00  0.00    +0.000 A 
ATOM      9  C   UNL     1       2.991   5.648  18.868  0.00  0.00    +0.000 A 
BRANCH   9  10
ATOM     10  O   UNL     1       3.664   4.665  18.186  0.00  0.00    +0.000 OA
ATOM     11  H   UNL     1       3.627   3.854  18.742  0.00  0.00    +0.000 HD
ENDBRANCH   9  10
BRANCH   4  12
ATOM     12  C   UNL     1       3.832   7.289  17.120  0.00  0.00    +0.000 C 
BRANCH  12  14
ATOM     13  C   UNL     1       5.268   6.121  15.537  0.00  0.00    +0.000 C 
ATOM     14  N   UNL     1       5.069   6.491  16.943  0.00  0.00    +0.000 NA
ATOM     15  C   UNL     1       6.217   7.278  17.403  0.00  0.00    +0.000 C 
ENDBRANCH  12  14
ENDBRANCH   4  12
BRANCH   8  16
ATOM     16  C   UNL     1       2.350   3.973  20.715  0.00  0.00    +0.000 C 
BRANCH  16  17
ATOM     17  N   UNL     1       2.899   2.904  19.847  0.00  0.00    +0.000 NA
ATOM     18  C   UNL     1       3.988   2.168  20.511  0.00  0.00    +0.000 C 
ATOM     19  C   UNL     1       1.833   1.950  19.511  0.00  0.00    +0.000 C 
ENDBRANCH  16  17
ENDBRANCH   8  16
ENDBRANCH   1   6
BRANCH   1  20
ATOM     20  C   UNL     1       0.359   9.998  20.054  0.00  0.00    +0.000 A 
ATOM     21  C   UNL     1       1.240  11.029  19.684  0.00  0.00    +0.000 A 
ATOM     22  C   UNL     1       0.827  12.125  18.900  0.00  0.00    +0.000 A 
ATOM     23  C   UNL     1      -0.483  12.134  18.397  0.00  0.00    +0.000 A 
ATOM     24  C   UNL     1      -1.408  11.146  18.757  0.00  0.00    +0.000 A 
ATOM     25  C   UNL     1      -0.967  10.091  19.579  0.00  0.00    +0.000 A 
BRANCH  23  26
ATOM     26  O   UNL     1      -0.901  13.144  17.570  0.00  0.00    +0.000 OA
ATOM     27  H   UNL     1      -0.620  13.988  17.988  0.00  0.00    +0.000 HD
ENDBRANCH  23  26
BRANCH  22  28
ATOM     28  C   UNL     1       1.834  13.234  18.634  0.00  0.00    +0.000 C 
BRANCH  28  29
ATOM     29  N   UNL     1       1.339  14.587  18.976  0.00  0.00    +0.000 NA
ATOM     30  C   UNL     1       1.204  14.770  20.430  0.00  0.00    +0.000 C 
ATOM     31  C   UNL     1       2.276  15.598  18.466  0.00  0.00    +0.000 C 
ENDBRANCH  28  29
ENDBRANCH  22  28
BRANCH  24  32
ATOM     32  C   UNL     1      -2.849  11.201  18.280  0.00  0.00    +0.000 C 
BRANCH  32  33
ATOM     33  N   UNL     1      -2.991  11.202  16.805  0.00  0.00    +0.000 NA
ATOM     34  C   UNL     1      -2.542   9.932  16.223  0.00  0.00    +0.000 C 
ATOM     35  C   UNL     1      -4.396  11.419  16.439  0.00  0.00    +0.000 C 
ENDBRANCH  32  33
ENDBRANCH  24  32
ENDBRANCH   1  20
TORSDOF 12
ENDMDL
MODEL 4
REMARK VINA RESULT:      -6.5      0.563      3.395
REMARK  Name = 
REMARK  22 active torsions:
REMARK  status: ('A' for Active; 'I' for Inactive)
REMARK    1  A    between atoms: C_1  and  N_2
REMARK    2  A    between atoms: N_2  and  C_3
REMARK    3  A    between atoms: N_2  and  C_4
REMARK    4  A    between atoms: C_4  and  C_5
REMARK    5  A    between atoms: C_7  and  C_8
REMARK    6  A    between atoms: C_8  and  C_9
REMARK    7  A    between atoms: C_8  and  C_10
REMARK    8  A    between atoms: C_8  and  C_11
REMARK    9  A    between atoms: C_13  and  C_14
REMARK   10  A    between atoms: C_14  and  N_15
REMARK   11  A    between atoms: N_15  and  C_16
REMARK   12  A    between atoms: N_15  and  C_17
REMARK   13  A    between atoms: C_18  and  O_19
REMARK   14  A    between atoms: C_20  and  C_21
REMARK   15  A    between atoms: C_21  and  N_22
REMARK   16  A    between atoms: N_22  and  C_23
REMARK   17  A    between atoms: N_22  and  C_24
REMARK   18  A    between atoms: C_27  and  C_28
REMARK   19  A    between atoms: C_28  and  N_29
REMARK   20  A    between atoms: N_29  and  C_30
REMARK   21  A    between atoms: N_29  and  C_31
REMARK   22  A    between atoms: C_32  and  O_33
REMARK                            x       y       z     vdW  Elec       q    Type
REMARK                         _______ _______ _______ _____ _____    ______ ____
ROOT
ATOM      1  C   UNL     1       0.798   8.769  20.998  0.00  0.00    +0.000 C 
ATOM      2  C   UNL     1      -0.462   8.167  21.674  0.00  0.00    +0.000 C 
ATOM      3  C   UNL     1       1.666   9.333  22.162  0.00  0.00    +0.000 C 
ENDROOT
BRANCH   1   6
ATOM      4  C   UNL     1       2.185   5.286  19.885  0.00  0.00    +0.000 A 
ATOM      5  C   UNL     1       1.482   6.292  20.580  0.00  0.00    +0.000 A 
ATOM      6  C   UNL     1       1.597   7.662  20.245  0.00  0.00    +0.000 A 
ATOM      7  C   UNL     1       2.409   7.974  19.137  0.00  0.00    +0.000 A 
ATOM      8  C   UNL     1       3.094   6.994  18.390  0.00  0.00    +0.000 A 
ATOM      9  C   UNL     1       3.014   5.661  18.824  0.00  0.00    +0.000 A 
BRANCH   9  10
ATOM     10  O   UNL     1       3.715   4.678  18.171  0.00  0.00    +0.000 OA
ATOM     11  H   UNL     1       3.517   3.831  18.631  0.00  0.00    +0.000 HD
ENDBRANCH   9  10
BRANCH   4  12
ATOM     12  C   UNL     1       2.018   3.832  20.281  0.00  0.00    +0.000 C 
BRANCH  12  14
ATOM     13  C   UNL     1       2.762   1.700  19.366  0.00  0.00    +0.000 C 
ATOM     14  N   UNL     1       1.927   2.886  19.143  0.00  0.00    +0.000 NA
ATOM     15  C   UNL     1       0.530   2.469  18.978  0.00  0.00    +0.000 C 
ENDBRANCH  12  14
ENDBRANCH   4  12
BRANCH   8  16
ATOM     16  C   UNL     1       3.898   7.433  17.179  0.00  0.00    +0.000 C 
BRANCH  16  17
ATOM     17  N   UNL     1       5.091   6.595  16.907  0.00  0.00    +0.000 NA
ATOM     18  C   UNL     1       5.226   6.288  15.474  0.00  0.00    +0.000 C 
ATOM     19  C   UNL     1       6.299   7.309  17.344  0.00  0.00    +0.000 C 
ENDBRANCH  16  17
ENDBRANCH   8  16
ENDBRANCH   1   6
BRANCH   1  20
ATOM     20  C   UNL     1       0.369   9.948  20.081  0.00  0.00    +0.000 A 
ATOM     21  C   UNL     1       1.258  10.972  19.710  0.00  0.00    +0.000 A 
ATOM     22  C   UNL     1       0.854  12.071  18.926  0.00  0.00    +0.000 A 
ATOM     23  C   UNL     1      -0.457  12.092  18.424  0.00  0.00    +0.000 A 
ATOM     24  C   UNL     1      -1.389  11.112  18.785  0.00  0.00    +0.000 A 
ATOM     25  C   UNL     1      -0.957  10.053  19.608  0.00  0.00    +0.000 A 
BRANCH  23  26
ATOM     26  O   UNL     1      -0.866  13.105  17.597  0.00  0.00    +0.000 OA
ATOM     27  H   UNL     1      -1.637  13.531  18.032  0.00  0.00    +0.000 HD
ENDBRANCH  23  26
BRANCH  22  28
ATOM     28  C   UNL     1       1.870  13.171  18.659  0.00  0.00    +0.000 C 
BRANCH  28  29
ATOM     29  N   UNL     1       1.380  14.530  18.982  0.00  0.00    +0.000 NA
ATOM     30  C   UNL     1       1.273  14.744  20.433  0.00  0.00    +0.000 C 
ATOM     31  C   UNL     1       2.305  15.531  18.432  0.00  0.00    +0.000 C 
ENDBRANCH  28  29
ENDBRANCH  22  28
BRANCH  24  32
ATOM     32  C   UNL     1      -2.830  11.179  18.309  0.00  0.00    +0.000 C 
BRANCH  32  33
ATOM     33  N   UNL     1      -2.974  11.188  16.834  0.00  0.00    +0.000 NA
ATOM     34  C   UNL     1      -2.519   9.924  16.244  0.00  0.00    +0.000 C 
ATOM     35  C   UNL     1      -4.380  11.401  16.471  0.00  0.00    +0.000 C 
ENDBRANCH  32  33
ENDBRANCH  24  32
ENDBRANCH   1  20
TORSDOF 12
ENDMDL
MODEL 5
REMARK VINA RESULT:      -6.5      0.720      7.824
REMARK  Name = 
REMARK  22 active torsions:
REMARK  status: ('A' for Active; 'I' for Inactive)
REMARK    1  A    between atoms: C_1  and  N_2
REMARK    2  A    between atoms: N_2  and  C_3
REMARK    3  A    between atoms: N_2  and  C_4
REMARK    4  A    between atoms: C_4  and  C_5
REMARK    5  A    between atoms: C_7  and  C_8
REMARK    6  A    between atoms: C_8  and  C_9
REMARK    7  A    between atoms: C_8  and  C_10
REMARK    8  A    between atoms: C_8  and  C_11
REMARK    9  A    between atoms: C_13  and  C_14
REMARK   10  A    between atoms: C_14  and  N_15
REMARK   11  A    between atoms: N_15  and  C_16
REMARK   12  A    between atoms: N_15  and  C_17
REMARK   13  A    between atoms: C_18  and  O_19
REMARK   14  A    between atoms: C_20  and  C_21
REMARK   15  A    between atoms: C_21  and  N_22
REMARK   16  A    between atoms: N_22  and  C_23
REMARK   17  A    between atoms: N_22  and  C_24
REMARK   18  A    between atoms: C_27  and  C_28
REMARK   19  A    between atoms: C_28  and  N_29
REMARK   20  A    between atoms: N_29  and  C_30
REMARK   21  A    between atoms: N_29  and  C_31
REMARK   22  A    between atoms: C_32  and  O_33
REMARK                            x       y       z     vdW  Elec       q    Type
REMARK                         _______ _______ _______ _____ _____    ______ ____
ROOT
ATOM      1  C   UNL     1       0.767   8.845  21.029  0.00  0.00    +0.000 C 
ATOM      2  C   UNL     1       1.651   9.384  22.184  0.00  0.00    +0.000 C 
ATOM      3  C   UNL     1      -0.488   8.229  21.717  0.00  0.00    +0.000 C 
ENDROOT
BRANCH   1   6
ATOM      4  C   UNL     1      -1.412  11.179  18.772  0.00  0.00    +0.000 A 
ATOM      5  C   UNL     1      -1.001  10.116  19.602  0.00  0.00    +0.000 A 
ATOM      6  C   UNL     1       0.323  10.008  20.089  0.00  0.00    +0.000 A 
ATOM      7  C   UNL     1       1.206  11.052  19.753  0.00  0.00    +0.000 A 
ATOM      8  C   UNL     1       0.823  12.153  18.961  0.00  0.00    +0.000 A 
ATOM      9  C   UNL     1      -0.478  12.161  18.431  0.00  0.00    +0.000 A 
BRANCH   9  10
ATOM     10  O   UNL     1      -0.879  13.178  17.601  0.00  0.00    +0.000 OA
ATOM     11  H   UNL     1      -0.512  12.981  16.710  0.00  0.00    +0.000 HD
ENDBRANCH   9  10
BRANCH   4  12
ATOM     12  C   UNL     1      -2.846  11.251  18.284  0.00  0.00    +0.000 C 
BRANCH  12  14
ATOM     13  C   UNL     1      -2.540   9.959  16.241  0.00  0.00    +0.000 C 
ATOM     14  N   UNL     1      -3.001  11.231  16.809  0.00  0.00    +0.000 NA
ATOM     15  C   UNL     1      -4.415  11.427  16.474  0.00  0.00    +0.000 C 
ENDBRANCH  12  14
ENDBRANCH   4  12
BRANCH   8  16
ATOM     16  C   UNL     1       1.838  13.252  18.704  0.00  0.00    +0.000 C 
BRANCH  16  17
ATOM     17  N   UNL     1       1.341  14.617  18.999  0.00  0.00    +0.000 NA
ATOM     18  C   UNL     1       1.243  14.861  20.448  0.00  0.00    +0.000 C 
ATOM     19  C   UNL     1       2.263  15.608  18.425  0.00  0.00    +0.000 C 
ENDBRANCH  16  17
ENDBRANCH   8  16
ENDBRANCH   1   6
BRANCH   1  20
ATOM     20  C   UNL     1       1.532   7.713  20.288  0.00  0.00    +0.000 A 
ATOM     21  C   UNL     1       1.553   6.388  20.758  0.00  0.00    +0.000 A 
ATOM     22  C   UNL     1       2.293   5.375  20.117  0.00  0.00    +0.000 A 
ATOM     23  C   UNL     1       2.955   5.683  18.918  0.00  0.00    +0.000 A 
ATOM     24  C   UNL     1       2.989   6.991  18.421  0.00  0.00    +0.000 A 
ATOM     25  C   UNL     1       2.272   7.986  19.116  0.00  0.00    +0.000 A 
BRANCH  23  26
ATOM     26  O   UNL     1       3.624   4.708  18.225  0.00  0.00    +0.000 OA
ATOM     27  H   UNL     1       4.547   4.702  18.565  0.00  0.00    +0.000 HD
ENDBRANCH  23  26
BRANCH  22  28
ATOM     28  C   UNL     1       2.324   3.997  20.759  0.00  0.00    +0.000 C 
BRANCH  28  29
ATOM     29  N   UNL     1       2.858   2.935  19.875  0.00  0.00    +0.000 NA
ATOM     30  C   UNL     1       3.939   2.175  20.522  0.00  0.00    +0.000 C 
ATOM     31  C   UNL     1       1.781   2.001  19.520  0.00  0.00    +0.000 C 
ENDBRANCH  28  29
ENDBRANCH  22  28
BRANCH  24  32
ATOM     32  C   UNL     1       3.774   7.341  17.169  0.00  0.00    +0.000 C 
BRANCH  32  33
ATOM     33  N   UNL     1       4.992   6.520  16.977  0.00  0.00    +0.000 NA
ATOM     34  C   UNL     1       5.202   6.196  15.562  0.00  0.00    +0.000 C 
ATOM     35  C   UNL     1       6.167   7.245  17.476  0.00  0.00    +0.000 C 
ENDBRANCH  32  33
ENDBRANCH  24  32
ENDBRANCH   1  20
TORSDOF 12
ENDMDL
MODEL 6
REMARK VINA RESULT:      -6.5      0.250      8.190
REMARK  Name = 
REMARK  22 active torsions:
REMARK  status: ('A' for Active; 'I' for Inactive)
REMARK    1  A    between atoms: C_1  and  N_2
REMARK    2  A    between atoms: N_2  and  C_3
REMARK    3  A    between atoms: N_2  and  C_4
REMARK    4  A    between atoms: C_4  and  C_5
REMARK    5  A    between atoms: C_7  and  C_8
REMARK    6  A    between atoms: C_8  and  C_9
REMARK    7  A    between atoms: C_8  and  C_10
REMARK    8  A    between atoms: C_8  and  C_11
REMARK    9  A    between atoms: C_13  and  C_14
REMARK   10  A    between atoms: C_14  and  N_15
REMARK   11  A    between atoms: N_15  and  C_16
REMARK   12  A    between atoms: N_15  and  C_17
REMARK   13  A    between atoms: C_18  and  O_19
REMARK   14  A    between atoms: C_20  and  C_21
REMARK   15  A    between atoms: C_21  and  N_22
REMARK   16  A    between atoms: N_22  and  C_23
REMARK   17  A    between atoms: N_22  and  C_24
REMARK   18  A    between atoms: C_27  and  C_28
REMARK   19  A    between atoms: C_28  and  N_29
REMARK   20  A    between atoms: N_29  and  C_30
REMARK   21  A    between atoms: N_29  and  C_31
REMARK   22  A    between atoms: C_32  and  O_33
REMARK                            x       y       z     vdW  Elec       q    Type
REMARK                         _______ _______ _______ _____ _____    ______ ____
ROOT
ATOM      1  C   UNL     1       0.843   8.710  20.977  0.00  0.00    +0.000 C 
ATOM      2  C   UNL     1       1.696   9.277  22.141  0.00  0.00    +0.000 C 
ATOM      3  C   UNL     1      -0.386   8.031  21.652  0.00  0.00    +0.000 C 
ENDROOT
BRANCH   1   6
ATOM      4  C   UNL     1      -1.056  10.683  18.185  0.00  0.00    +0.000 A 
ATOM      5  C   UNL     1      -0.591   9.641  19.013  0.00  0.00    +0.000 A 
ATOM      6  C   UNL     1       0.351   9.860  20.045  0.00  0.00    +0.000 A 
ATOM      7  C   UNL     1       0.764  11.191  20.250  0.00  0.00    +0.000 A 
ATOM      8  C   UNL     1       0.291  12.267  19.472  0.00  0.00    +0.000 A 
ATOM      9  C   UNL     1      -0.574  11.976  18.403  0.00  0.00    +0.000 A 
BRANCH   9  10
ATOM     10  O   UNL     1      -1.011  12.980  17.576  0.00  0.00    +0.000 OA
ATOM     11  H   UNL     1      -0.278  13.633  17.506  0.00  0.00    +0.000 HD
ENDBRANCH   9  10
BRANCH   4  12
ATOM     12  C   UNL     1      -2.073  10.393  17.098  0.00  0.00    +0.000 C 
BRANCH  12  14
ATOM     13  C   UNL     1      -3.945  11.233  15.786  0.00  0.00    +0.000 C 
ATOM     14  N   UNL     1      -3.223  11.327  17.060  0.00  0.00    +0.000 NA
ATOM     15  C   UNL     1      -4.139  11.003  18.159  0.00  0.00    +0.000 C 
ENDBRANCH  12  14
ENDBRANCH   4  12
BRANCH   8  16
ATOM     16  C   UNL     1       0.758  13.671  19.812  0.00  0.00    +0.000 C 
BRANCH  16  17
ATOM     17  N   UNL     1       1.259  14.442  18.648  0.00  0.00    +0.000 NA
ATOM     18  C   UNL     1       1.011  15.885  18.802  0.00  0.00    +0.000 C 
ATOM     19  C   UNL     1       2.707  14.233  18.511  0.00  0.00    +0.000 C 
ENDBRANCH  16  17
ENDBRANCH   8  16
ENDBRANCH   1   6
BRANCH   1  20
ATOM     20  C   UNL     1       1.663   7.621  20.229  0.00  0.00    +0.000 A 
ATOM     21  C   UNL     1       2.508   7.929  19.148  0.00  0.00    +0.000 A 
ATOM     22  C   UNL     1       3.207   6.936  18.434  0.00  0.00    +0.000 A 
ATOM     23  C   UNL     1       3.126   5.607  18.879  0.00  0.00    +0.000 A 
ATOM     24  C   UNL     1       2.279   5.243  19.932  0.00  0.00    +0.000 A 
ATOM     25  C   UNL     1       1.562   6.261  20.592  0.00  0.00    +0.000 A 
BRANCH  23  26
ATOM     26  O   UNL     1       3.850   4.622  18.258  0.00  0.00    +0.000 OA
ATOM     27  H   UNL     1       3.356   3.783  18.388  0.00  0.00    +0.000 HD
ENDBRANCH  23  26
BRANCH  22  28
ATOM     28  C   UNL     1       4.021   7.364  17.223  0.00  0.00    +0.000 C 
BRANCH  28  29
ATOM     29  N   UNL     1       5.200   6.508  16.960  0.00  0.00    +0.000 NA
ATOM     30  C   UNL     1       5.310   6.146  15.538  0.00  0.00    +0.000 C 
ATOM     31  C   UNL     1       6.424   7.219  17.354  0.00  0.00    +0.000 C 
ENDBRANCH  28  29
ENDBRANCH  22  28
BRANCH  24  32
ATOM     32  C   UNL     1       2.128   3.793  20.360  0.00  0.00    +0.000 C 
BRANCH  32  33
ATOM     33  N   UNL     1       1.941   2.852  19.231  0.00  0.00    +0.000 NA
ATOM     34  C   UNL     1       2.754   1.643  19.402  0.00  0.00    +0.000 C 
ATOM     35  C   UNL     1       0.529   2.463  19.133  0.00  0.00    +0.000 C 
ENDBRANCH  32  33
ENDBRANCH  24  32
ENDBRANCH   1  20
TORSDOF 12
ENDMDL
MODEL 7
REMARK VINA RESULT:      -6.5      0.676      8.495
REMARK  Name = 
REMARK  22 active torsions:
REMARK  status: ('A' for Active; 'I' for Inactive)
REMARK    1  A    between atoms: C_1  and  N_2
REMARK    2  A    between atoms: N_2  and  C_3
REMARK    3  A    between atoms: N_2  and  C_4
REMARK    4  A    between atoms: C_4  and  C_5
REMARK    5  A    between atoms: C_7  and  C_8
REMARK    6  A    between atoms: C_8  and  C_9
REMARK    7  A    between atoms: C_8  and  C_10
REMARK    8  A    between atoms: C_8  and  C_11
REMARK    9  A    between atoms: C_13  and  C_14
REMARK   10  A    between atoms: C_14  and  N_15
REMARK   11  A    between atoms: N_15  and  C_16
REMARK   12  A    between atoms: N_15  and  C_17
REMARK   13  A    between atoms: C_18  and  O_19
REMARK   14  A    between atoms: C_20  and  C_21
REMARK   15  A    between atoms: C_21  and  N_22
REMARK   16  A    between atoms: N_22  and  C_23
REMARK   17  A    between atoms: N_22  and  C_24
REMARK   18  A    between atoms: C_27  and  C_28
REMARK   19  A    between atoms: C_28  and  N_29
REMARK   20  A    between atoms: N_29  and  C_30
REMARK   21  A    between atoms: N_29  and  C_31
REMARK   22  A    between atoms: C_32  and  O_33
REMARK                            x       y       z     vdW  Elec       q    Type
REMARK                         _______ _______ _______ _____ _____    ______ ____
ROOT
ATOM      1  C   UNL     1       0.844   8.752  21.010  0.00  0.00    +0.000 C 
ATOM      2  C   UNL     1       1.806   9.274  22.109  0.00  0.00    +0.000 C 
ATOM      3  C   UNL     1      -0.361   8.126  21.773  0.00  0.00    +0.000 C 
ENDROOT
BRANCH   1   6
ATOM      4  C   UNL     1       0.384  12.310  19.455  0.00  0.00    +0.000 A 
ATOM      5  C   UNL     1       0.822  11.249  20.274  0.00  0.00    +0.000 A 
ATOM      6  C   UNL     1       0.338   9.928  20.120  0.00  0.00    +0.000 A 
ATOM      7  C   UNL     1      -0.565   9.707  19.062  0.00  0.00    +0.000 A 
ATOM      8  C   UNL     1      -0.995  10.732  18.195  0.00  0.00    +0.000 A 
ATOM      9  C   UNL     1      -0.551  12.040  18.452  0.00  0.00    +0.000 A 
BRANCH   9  10
ATOM     10  O   UNL     1      -0.991  13.083  17.677  0.00  0.00    +0.000 OA
ATOM     11  H   UNL     1      -0.301  13.243  16.994  0.00  0.00    +0.000 HD
ENDBRANCH   9  10
BRANCH   4  12
ATOM     12  C   UNL     1       0.942  13.706  19.658  0.00  0.00    +0.000 C 
BRANCH  12  14
ATOM     13  C   UNL     1       1.919  15.696  18.652  0.00  0.00    +0.000 C 
ATOM     14  N   UNL     1       1.667  14.260  18.490  0.00  0.00    +0.000 NA
ATOM     15  C   UNL     1       2.947  13.558  18.345  0.00  0.00    +0.000 C 
ENDBRANCH  12  14
ENDBRANCH   4  12
BRANCH   8  16
ATOM     16  C   UNL     1      -1.928  10.375  17.052  0.00  0.00    +0.000 C 
BRANCH  16  17
ATOM     17  N   UNL     1      -3.099  11.274  16.922  0.00  0.00    +0.000 NA
ATOM     18  C   UNL     1      -3.819  11.052  15.656  0.00  0.00    +0.000 C 
ATOM     19  C   UNL     1      -4.029  11.029  18.032  0.00  0.00    +0.000 C 
ENDBRANCH  16  17
ENDBRANCH   8  16
ENDBRANCH   1   6
BRANCH   1  20
ATOM     20  C   UNL     1       1.555   7.631  20.201  0.00  0.00    +0.000 A 
ATOM     21  C   UNL     1       2.448   7.914  19.153  0.00  0.00    +0.000 A 
ATOM     22  C   UNL     1       3.049   6.898  18.383  0.00  0.00    +0.000 A 
ATOM     23  C   UNL     1       2.819   5.560  18.739  0.00  0.00    +0.000 A 
ATOM     24  C   UNL     1       1.918   5.223  19.757  0.00  0.00    +0.000 A 
ATOM     25  C   UNL     1       1.303   6.269  20.474  0.00  0.00    +0.000 A 
BRANCH  23  26
ATOM     26  O   UNL     1       3.443   4.545  18.063  0.00  0.00    +0.000 OA
ATOM     27  H   UNL     1       2.761   4.120  17.497  0.00  0.00    +0.000 HD
ENDBRANCH  23  26
BRANCH  22  28
ATOM     28  C   UNL     1       3.927   7.313  17.212  0.00  0.00    +0.000 C 
BRANCH  28  29
ATOM     29  N   UNL     1       5.128   6.466  17.034  0.00  0.00    +0.000 NA
ATOM     30  C   UNL     1       5.302   6.046  15.635  0.00  0.00    +0.000 C 
ATOM     31  C   UNL     1       6.324   7.214  17.446  0.00  0.00    +0.000 C 
ENDBRANCH  28  29
ENDBRANCH  22  28
BRANCH  24  32
ATOM     32  C   UNL     1       1.605   3.775  20.087  0.00  0.00    +0.000 C 
BRANCH  32  33
ATOM     33  N   UNL     1       2.353   3.251  21.255  0.00  0.00    +0.000 NA
ATOM     34  C   UNL     1       1.507   2.394  22.092  0.00  0.00    +0.000 C 
ATOM     35  C   UNL     1       3.511   2.473  20.798  0.00  0.00    +0.000 C 
ENDBRANCH  32  33
ENDBRANCH  24  32
ENDBRANCH   1  20
TORSDOF 12
ENDMDL
MODEL 8
REMARK VINA RESULT:      -6.4      0.930      8.282
REMARK  Name = 
REMARK  22 active torsions:
REMARK  status: ('A' for Active; 'I' for Inactive)
REMARK    1  A    between atoms: C_1  and  N_2
REMARK    2  A    between atoms: N_2  and  C_3
REMARK    3  A    between atoms: N_2  and  C_4
REMARK    4  A    between atoms: C_4  and  C_5
REMARK    5  A    between atoms: C_7  and  C_8
REMARK    6  A    between atoms: C_8  and  C_9
REMARK    7  A    between atoms: C_8  and  C_10
REMARK    8  A    between atoms: C_8  and  C_11
REMARK    9  A    between atoms: C_13  and  C_14
REMARK   10  A    between atoms: C_14  and  N_15
REMARK   11  A    between atoms: N_15  and  C_16
REMARK   12  A    between atoms: N_15  and  C_17
REMARK   13  A    between atoms: C_18  and  O_19
REMARK   14  A    between atoms: C_20  and  C_21
REMARK   15  A    between atoms: C_21  and  N_22
REMARK   16  A    between atoms: N_22  and  C_23
REMARK   17  A    between atoms: N_22  and  C_24
REMARK   18  A    between atoms: C_27  and  C_28
REMARK   19  A    between atoms: C_28  and  N_29
REMARK   20  A    between atoms: N_29  and  C_30
REMARK   21  A    between atoms: N_29  and  C_31
REMARK   22  A    between atoms: C_32  and  O_33
REMARK                            x       y       z     vdW  Elec       q    Type
REMARK                         _______ _______ _______ _____ _____    ______ ____
ROOT
ATOM      1  C   UNL     1       0.775   8.825  20.959  0.00  0.00    +0.000 C 
ATOM      2  C   UNL     1       1.582   9.491  22.104  0.00  0.00    +0.000 C 
ATOM      3  C   UNL     1      -0.445   8.145  21.649  0.00  0.00    +0.000 C 
ENDROOT
BRANCH   1   6
ATOM      4  C   UNL     1      -1.164  10.572  18.047  0.00  0.00    +0.000 A 
ATOM      5  C   UNL     1      -0.684   9.597  18.945  0.00  0.00    +0.000 A 
ATOM      6  C   UNL     1       0.265   9.900  19.950  0.00  0.00    +0.000 A 
ATOM      7  C   UNL     1       0.668  11.245  20.052  0.00  0.00    +0.000 A 
ATOM      8  C   UNL     1       0.179  12.257  19.201  0.00  0.00    +0.000 A 
ATOM      9  C   UNL     1      -0.692  11.881  18.165  0.00  0.00    +0.000 A 
BRANCH   9  10
ATOM     10  O   UNL     1      -1.145  12.818  17.269  0.00  0.00    +0.000 OA
ATOM     11  H   UNL     1      -1.215  13.669  17.757  0.00  0.00    +0.000 HD
ENDBRANCH   9  10
BRANCH   4  12
ATOM     12  C   UNL     1      -2.188  10.194  16.993  0.00  0.00    +0.000 C 
BRANCH  12  14
ATOM     13  C   UNL     1      -3.982  11.050  15.586  0.00  0.00    +0.000 C 
ATOM     14  N   UNL     1      -3.359  11.099  16.914  0.00  0.00    +0.000 NA
ATOM     15  C   UNL     1      -4.343  10.697  17.924  0.00  0.00    +0.000 C 
ENDBRANCH  12  14
ENDBRANCH   4  12
BRANCH   8  16
ATOM     16  C   UNL     1       0.637  13.686  19.432  0.00  0.00    +0.000 C 
BRANCH  16  17
ATOM     17  N   UNL     1      -0.443  14.695  19.309  0.00  0.00    +0.000 NA
ATOM     18  C   UNL     1      -1.182  14.859  20.572  0.00  0.00    +0.000 C 
ATOM     19  C   UNL     1       0.141  15.993  18.944  0.00  0.00    +0.000 C 
ENDBRANCH  16  17
ENDBRANCH   8  16
ENDBRANCH   1   6
BRANCH   1  20
ATOM     20  C   UNL     1       1.648   7.724  20.295  0.00  0.00    +0.000 A 
ATOM     21  C   UNL     1       2.376   7.953  19.114  0.00  0.00    +0.000 A 
ATOM     22  C   UNL     1       3.121   6.939  18.482  0.00  0.00    +0.000 A 
ATOM     23  C   UNL     1       3.213   5.685  19.106  0.00  0.00    +0.000 A 
ATOM     24  C   UNL     1       2.488   5.396  20.268  0.00  0.00    +0.000 A 
ATOM     25  C   UNL     1       1.718   6.426  20.845  0.00  0.00    +0.000 A 
BRANCH  23  26
ATOM     26  O   UNL     1       3.989   4.695  18.562  0.00  0.00    +0.000 OA
ATOM     27  H   UNL     1       3.969   4.822  17.587  0.00  0.00    +0.000 HD
ENDBRANCH  23  26
BRANCH  22  28
ATOM     28  C   UNL     1       3.796   7.266  17.159  0.00  0.00    +0.000 C 
BRANCH  28  29
ATOM     29  N   UNL     1       5.039   6.499  16.914  0.00  0.00    +0.000 NA
ATOM     30  C   UNL     1       5.202   6.158  15.492  0.00  0.00    +0.000 C 
ATOM     31  C   UNL     1       6.200   7.294  17.336  0.00  0.00    +0.000 C 
ENDBRANCH  28  29
ENDBRANCH  22  28
BRANCH  24  32
ATOM     32  C   UNL     1       2.521   4.014  20.897  0.00  0.00    +0.000 C 
BRANCH  32  33
ATOM     33  N   UNL     1       1.202   3.341  20.934  0.00  0.00    +0.000 NA
ATOM     34  C   UNL     1       0.860   2.761  19.630  0.00  0.00    +0.000 C 
ATOM     35  C   UNL     1       1.215   2.271  21.939  0.00  0.00    +0.000 C 
ENDBRANCH  32  33
ENDBRANCH  24  32
ENDBRANCH   1  20
TORSDOF 12
ENDMDL
MODEL 9
REMARK VINA RESULT:      -6.4      0.544      8.626
REMARK  Name = 
REMARK  22 active torsions:
REMARK  status: ('A' for Active; 'I' for Inactive)
REMARK    1  A    between atoms: C_1  and  N_2
REMARK    2  A    between atoms: N_2  and  C_3
REMARK    3  A    between atoms: N_2  and  C_4
REMARK    4  A    between atoms: C_4  and  C_5
REMARK    5  A    between atoms: C_7  and  C_8
REMARK    6  A    between atoms: C_8  and  C_9
REMARK    7  A    between atoms: C_8  and  C_10
REMARK    8  A    between atoms: C_8  and  C_11
REMARK    9  A    between atoms: C_13  and  C_14
REMARK   10  A    between atoms: C_14  and  N_15
REMARK   11  A    between atoms: N_15  and  C_16
REMARK   12  A    between atoms: N_15  and  C_17
REMARK   13  A    between atoms: C_18  and  O_19
REMARK   14  A    between atoms: C_20  and  C_21
REMARK   15  A    between atoms: C_21  and  N_22
REMARK   16  A    between atoms: N_22  and  C_23
REMARK   17  A    between atoms: N_22  and  C_24
REMARK   18  A    between atoms: C_27  and  C_28
REMARK   19  A    between atoms: C_28  and  N_29
REMARK   20  A    between atoms: N_29  and  C_30
REMARK   21  A    between atoms: N_29  and  C_31
REMARK   22  A    between atoms: C_32  and  O_33
REMARK                            x       y       z     vdW  Elec       q    Type
REMARK                         _______ _______ _______ _____ _____    ______ ____
ROOT
ATOM      1  C   UNL     1       0.833   8.751  20.992  0.00  0.00    +0.000 C 
ATOM      2  C   UNL     1       1.698   9.312  22.151  0.00  0.00    +0.000 C 
ATOM      3  C   UNL     1      -0.392   8.074  21.676  0.00  0.00    +0.000 C 
ENDROOT
BRANCH   1   6
ATOM      4  C   UNL     1       0.523  12.219  19.212  0.00  0.00    +0.000 A 
ATOM      5  C   UNL     1       0.953  11.180  20.063  0.00  0.00    +0.000 A 
ATOM      6  C   UNL     1       0.337   9.906  20.069  0.00  0.00    +0.000 A 
ATOM      7  C   UNL     1      -0.696   9.702  19.135  0.00  0.00    +0.000 A 
ATOM      8  C   UNL     1      -1.127  10.701  18.238  0.00  0.00    +0.000 A 
ATOM      9  C   UNL     1      -0.540  11.973  18.340  0.00  0.00    +0.000 A 
BRANCH   9  10
ATOM     10  O   UNL     1      -0.969  12.998  17.534  0.00  0.00    +0.000 OA
ATOM     11  H   UNL     1      -1.874  13.239  17.836  0.00  0.00    +0.000 HD
ENDBRANCH   9  10
BRANCH   4  12
ATOM     12  C   UNL     1       1.225  13.564  19.242  0.00  0.00    +0.000 C 
BRANCH  12  14
ATOM     13  C   UNL     1       0.482  14.942  21.108  0.00  0.00    +0.000 C 
ATOM     14  N   UNL     1       0.371  14.699  19.665  0.00  0.00    +0.000 NA
ATOM     15  C   UNL     1       0.783  15.905  18.939  0.00  0.00    +0.000 C 
ENDBRANCH  12  14
ENDBRANCH   4  12
BRANCH   8  16
ATOM     16  C   UNL     1      -2.213  10.358  17.234  0.00  0.00    +0.000 C 
BRANCH  16  17
ATOM     17  N   UNL     1      -3.268  11.391  17.106  0.00  0.00    +0.000 NA
ATOM     18  C   UNL     1      -4.101  11.176  15.911  0.00  0.00    +0.000 C 
ATOM     19  C   UNL     1      -4.138  11.350  18.289  0.00  0.00    +0.000 C 
ENDBRANCH  16  17
ENDBRANCH   8  16
ENDBRANCH   1   6
BRANCH   1  20
ATOM     20  C   UNL     1       1.642   7.662  20.234  0.00  0.00    +0.000 A 
ATOM     21  C   UNL     1       2.472   7.969  19.141  0.00  0.00    +0.000 A 
ATOM     22  C   UNL     1       3.161   6.975  18.418  0.00  0.00    +0.000 A 
ATOM     23  C   UNL     1       3.088   5.647  18.866  0.00  0.00    +0.000 A 
ATOM     24  C   UNL     1       2.256   5.284  19.932  0.00  0.00    +0.000 A 
ATOM     25  C   UNL     1       1.548   6.303  20.601  0.00  0.00    +0.000 A 
BRANCH  23  26
ATOM     26  O   UNL     1       3.803   4.662  18.236  0.00  0.00    +0.000 OA
ATOM     27  H   UNL     1       4.504   4.376  18.863  0.00  0.00    +0.000 HD
ENDBRANCH  23  26
BRANCH  22  28
ATOM     28  C   UNL     1       3.958   7.403  17.195  0.00  0.00    +0.000 C 
BRANCH  28  29
ATOM     29  N   UNL     1       5.156   6.571  16.940  0.00  0.00    +0.000 NA
ATOM     30  C   UNL     1       5.279   6.207  15.520  0.00  0.00    +0.000 C 
ATOM     31  C   UNL     1       6.363   7.310  17.335  0.00  0.00    +0.000 C 
ENDBRANCH  28  29
ENDBRANCH  22  28
BRANCH  24  32
ATOM     32  C   UNL     1       2.113   3.835  20.364  0.00  0.00    +0.000 C 
BRANCH  32  33
ATOM     33  N   UNL     1       1.935   2.889  19.237  0.00  0.00    +0.000 NA
ATOM     34  C   UNL     1       2.735   1.674  19.427  0.00  0.00    +0.000 C 
ATOM     35  C   UNL     1       0.521   2.512  19.121  0.00  0.00    +0.000 C 
ENDBRANCH  32  33
ENDBRANCH  24  32
ENDBRANCH   1  20
TORSDOF 12
ENDMDL
