MODEL 1
REMARK VINA RESULT:      -8.0      0.000      0.000
REMARK  Name = 
REMARK  10 active torsions:
REMARK  status: ('A' for Active; 'I' for Inactive)
REMARK    1  A    between atoms: O_1  and  C_2
REMARK    2  A    between atoms: C_2  and  C_3
REMARK    3  A    between atoms: C_2  and  C_14
REMARK    4  A    between atoms: C_3  and  N_4
REMARK    5  A    between atoms: N_4  and  C_5
REMARK    6  A    between atoms: C_5  and  C_6
REMARK    7  A    between atoms: C_6  and  C_7
REMARK    8  A    between atoms: C_7  and  C_8
REMARK    9  A    between atoms: C_14  and  O_15
REMARK   10  A    between atoms: O_15  and  C_16
REMARK                            x       y       z     vdW  Elec       q    Type
REMARK                         _______ _______ _______ _____ _____    ______ ____
ROOT
ATOM      1  C   UNL     1       1.282   4.877  20.570  0.00  0.00    +0.000 C 
ENDROOT
BRANCH   1   2
ATOM      2  C   UNL     1       1.920   3.583  21.093  0.00  0.00    +0.000 C 
BRANCH   2   3
ATOM      3  O   UNL     1       0.877   2.642  21.399  0.00  0.00    +0.000 OA
ATOM      4  H   UNL     1       0.957   2.419  22.346  0.00  0.00    +0.000 HD
ENDBRANCH   2   3
BRANCH   2   5
ATOM      5  C   UNL     1       2.837   2.939  20.021  0.00  0.00    +0.000 C 
BRANCH   5   6
ATOM      6  N   UNL     1       2.107   2.472  18.842  0.00  0.00    +0.000 NA
ATOM      7  H   UNL     1       1.105   2.575  18.988  0.00  0.00    +0.000 HD
BRANCH   6   8
ATOM      8  C   UNL     1       2.508   3.190  17.631  0.00  0.00    +0.000 C 
BRANCH   8   9
ATOM      9  C   UNL     1       4.031   3.133  17.493  0.00  0.00    +0.000 C 
BRANCH   9  10
ATOM     10  C   UNL     1       4.551   4.249  16.582  0.00  0.00    +0.000 C 
BRANCH  10  11
ATOM     11  C   UNL     1       5.657   5.038  17.242  0.00  0.00    +0.000 A 
ATOM     12  C   UNL     1       6.017   4.791  18.574  0.00  0.00    +0.000 A 
ATOM     13  C   UNL     1       7.018   5.546  19.189  0.00  0.00    +0.000 A 
ATOM     14  C   UNL     1       7.666   6.557  18.481  0.00  0.00    +0.000 A 
ATOM     15  C   UNL     1       7.319   6.808  17.155  0.00  0.00    +0.000 A 
ATOM     16  C   UNL     1       6.319   6.053  16.539  0.00  0.00    +0.000 A 
ENDBRANCH  10  11
ENDBRANCH   9  10
ENDBRANCH   8   9
ENDBRANCH   6   8
ENDBRANCH   5   6
ENDBRANCH   2   5
ENDBRANCH   1   2
BRANCH   1  17
ATOM     17  O   UNL     1       2.048   6.017  20.960  0.00  0.00    +0.000 OA
BRANCH  17  18
ATOM     18  C   UNL     1       2.078   7.068  20.039  0.00  0.00    +0.000 A 
ATOM     19  C   UNL     1       2.703   6.682  18.835  0.00  0.00    +0.000 A 
ATOM     20  C   UNL     1       2.840   7.560  17.768  0.00  0.00    +0.000 A 
ATOM     21  C   UNL     1       2.306   8.841  17.845  0.00  0.00    +0.000 A 
ATOM     22  C   UNL     1       1.613   9.190  19.009  0.00  0.00    +0.000 A 
ATOM     23  N   UNL     1       0.870  10.316  19.234  0.00  0.00    +0.000 N 
ATOM     24  C   UNL     1       0.250  10.257  20.451  0.00  0.00    +0.000 A 
ATOM     25  C   UNL     1      -0.757  11.072  20.974  0.00  0.00    +0.000 A 
ATOM     26  C   UNL     1      -1.066  10.922  22.322  0.00  0.00    +0.000 A 
ATOM     27  C   UNL     1      -0.329  10.055  23.119  0.00  0.00    +0.000 A 
ATOM     28  C   UNL     1       0.641   9.216  22.551  0.00  0.00    +0.000 A 
ATOM     29  C   UNL     1       0.865   9.221  21.152  0.00  0.00    +0.000 A 
ATOM     30  C   UNL     1       1.533   8.386  20.162  0.00  0.00    +0.000 A 
ATOM     31  H   UNL     1       0.741  11.059  18.562  0.00  0.00    +0.000 HD
ENDBRANCH  17  18
ENDBRANCH   1  17
TORSDOF 10
ENDMDL
MODEL 2
REMARK VINA RESULT:      -7.8      0.605      1.034
REMARK  Name = 
REMARK  10 active torsions:
REMARK  status: ('A' for Active; 'I' for Inactive)
REMARK    1  A    between atoms: O_1  and  C_2
REMARK    2  A    between atoms: C_2  and  C_3
REMARK    3  A    between atoms: C_2  and  C_14
REMARK    4  A    between atoms: C_3  and  N_4
REMARK    5  A    between atoms: N_4  and  C_5
REMARK    6  A    between atoms: C_5  and  C_6
REMARK    7  A    between atoms: C_6  and  C_7
REMARK    8  A    between atoms: C_7  and  C_8
REMARK    9  A    between atoms: C_14  and  O_15
REMARK   10  A    between atoms: O_15  and  C_16
REMARK                            x       y       z     vdW  Elec       q    Type
REMARK                         _______ _______ _______ _____ _____    ______ ____
ROOT
ATOM      1  C   UNL     1       1.317   4.688  20.369  0.00  0.00    +0.000 C 
ENDROOT
BRANCH   1   2
ATOM      2  C   UNL     1       2.177   3.429  20.196  0.00  0.00    +0.000 C 
BRANCH   2   3
ATOM      3  O   UNL     1       2.371   2.820  21.484  0.00  0.00    +0.000 OA
ATOM      4  H   UNL     1       2.472   1.860  21.337  0.00  0.00    +0.000 HD
ENDBRANCH   2   3
BRANCH   2   5
ATOM      5  C   UNL     1       1.471   2.391  19.285  0.00  0.00    +0.000 C 
BRANCH   5   6
ATOM      6  N   UNL     1       2.254   2.034  18.102  0.00  0.00    +0.000 NA
ATOM      7  H   UNL     1       1.701   1.449  17.480  0.00  0.00    +0.000 HD
BRANCH   6   8
ATOM      8  C   UNL     1       2.723   3.219  17.380  0.00  0.00    +0.000 C 
BRANCH   8   9
ATOM      9  C   UNL     1       4.253   3.243  17.394  0.00  0.00    +0.000 C 
BRANCH   9  10
ATOM     10  C   UNL     1       4.804   4.284  16.415  0.00  0.00    +0.000 C 
BRANCH  10  11
ATOM     11  C   UNL     1       5.830   5.178  17.069  0.00  0.00    +0.000 A 
ATOM     12  C   UNL     1       5.954   6.522  16.692  0.00  0.00    +0.000 A 
ATOM     13  C   UNL     1       6.926   7.336  17.278  0.00  0.00    +0.000 A 
ATOM     14  C   UNL     1       7.786   6.813  18.244  0.00  0.00    +0.000 A 
ATOM     15  C   UNL     1       7.669   5.480  18.629  0.00  0.00    +0.000 A 
ATOM     16  C   UNL     1       6.696   4.666  18.045  0.00  0.00    +0.000 A 
ENDBRANCH  10  11
ENDBRANCH   9  10
ENDBRANCH   8   9
ENDBRANCH   6   8
ENDBRANCH   5   6
ENDBRANCH   2   5
ENDBRANCH   1   2
BRANCH   1  17
ATOM     17  O   UNL     1       2.113   5.794  20.795  0.00  0.00    +0.000 OA
BRANCH  17  18
ATOM     18  C   UNL     1       2.123   6.897  19.935  0.00  0.00    +0.000 A 
ATOM     19  C   UNL     1       2.706   6.576  18.691  0.00  0.00    +0.000 A 
ATOM     20  C   UNL     1       2.817   7.513  17.672  0.00  0.00    +0.000 A 
ATOM     21  C   UNL     1       2.299   8.791  17.840  0.00  0.00    +0.000 A 
ATOM     22  C   UNL     1       1.647   9.078  19.044  0.00  0.00    +0.000 A 
ATOM     23  N   UNL     1       0.922  10.195  19.358  0.00  0.00    +0.000 N 
ATOM     24  C   UNL     1       0.342  10.071  20.589  0.00  0.00    +0.000 A 
ATOM     25  C   UNL     1      -0.640  10.862  21.191  0.00  0.00    +0.000 A 
ATOM     26  C   UNL     1      -0.907  10.638  22.537  0.00  0.00    +0.000 A 
ATOM     27  C   UNL     1      -0.154   9.720  23.258  0.00  0.00    +0.000 A 
ATOM     28  C   UNL     1       0.790   8.907  22.612  0.00  0.00    +0.000 A 
ATOM     29  C   UNL     1       0.969   8.991  21.209  0.00  0.00    +0.000 A 
ATOM     30  C   UNL     1       1.596   8.210  20.151  0.00  0.00    +0.000 A 
ATOM     31  H   UNL     1       0.780  10.977  18.734  0.00  0.00    +0.000 HD
ENDBRANCH  17  18
ENDBRANCH   1  17
TORSDOF 10
ENDMDL
MODEL 3
REMARK VINA RESULT:      -7.8      0.845      1.214
REMARK  Name = 
REMARK  10 active torsions:
REMARK  status: ('A' for Active; 'I' for Inactive)
REMARK    1  A    between atoms: O_1  and  C_2
REMARK    2  A    between atoms: C_2  and  C_3
REMARK    3  A    between atoms: C_2  and  C_14
REMARK    4  A    between atoms: C_3  and  N_4
REMARK    5  A    between atoms: N_4  and  C_5
REMARK    6  A    between atoms: C_5  and  C_6
REMARK    7  A    between atoms: C_6  and  C_7
REMARK    8  A    between atoms: C_7  and  C_8
REMARK    9  A    between atoms: C_14  and  O_15
REMARK   10  A    between atoms: O_15  and  C_16
REMARK                            x       y       z     vdW  Elec       q    Type
REMARK                         _______ _______ _______ _____ _____    ______ ____
ROOT
ATOM      1  C   UNL     1       1.218   5.008  20.429  0.00  0.00    +0.000 C 
ENDROOT
BRANCH   1   2
ATOM      2  C   UNL     1       1.975   3.693  20.658  0.00  0.00    +0.000 C 
BRANCH   2   3
ATOM      3  O   UNL     1       2.208   3.533  22.067  0.00  0.00    +0.000 OA
ATOM      4  H   UNL     1       2.695   4.324  22.372  0.00  0.00    +0.000 HD
ENDBRANCH   2   3
BRANCH   2   5
ATOM      5  C   UNL     1       1.143   2.477  20.176  0.00  0.00    +0.000 C 
BRANCH   5   6
ATOM      6  N   UNL     1       1.704   1.825  18.993  0.00  0.00    +0.000 NA
ATOM      7  H   UNL     1       1.336   2.257  18.148  0.00  0.00    +0.000 HD
BRANCH   6   8
ATOM      8  C   UNL     1       3.167   1.879  18.981  0.00  0.00    +0.000 C 
BRANCH   8   9
ATOM      9  C   UNL     1       3.647   2.228  17.570  0.00  0.00    +0.000 C 
BRANCH   9  10
ATOM     10  C   UNL     1       3.680   3.743  17.351  0.00  0.00    +0.000 C 
BRANCH  10  11
ATOM     11  C   UNL     1       5.036   4.324  17.678  0.00  0.00    +0.000 A 
ATOM     12  C   UNL     1       6.070   4.306  16.733  0.00  0.00    +0.000 A 
ATOM     13  C   UNL     1       7.331   4.815  17.051  0.00  0.00    +0.000 A 
ATOM     14  C   UNL     1       7.571   5.344  18.319  0.00  0.00    +0.000 A 
ATOM     15  C   UNL     1       6.549   5.372  19.265  0.00  0.00    +0.000 A 
ATOM     16  C   UNL     1       5.287   4.864  18.947  0.00  0.00    +0.000 A 
ENDBRANCH  10  11
ENDBRANCH   9  10
ENDBRANCH   8   9
ENDBRANCH   6   8
ENDBRANCH   5   6
ENDBRANCH   2   5
ENDBRANCH   1   2
BRANCH   1  17
ATOM     17  O   UNL     1       2.001   6.127  20.845  0.00  0.00    +0.000 OA
BRANCH  17  18
ATOM     18  C   UNL     1       1.983   7.230  19.986  0.00  0.00    +0.000 A 
ATOM     19  C   UNL     1       2.571   6.923  18.741  0.00  0.00    +0.000 A 
ATOM     20  C   UNL     1       2.658   7.863  17.722  0.00  0.00    +0.000 A 
ATOM     21  C   UNL     1       2.110   9.129  17.892  0.00  0.00    +0.000 A 
ATOM     22  C   UNL     1       1.454   9.400  19.098  0.00  0.00    +0.000 A 
ATOM     23  N   UNL     1       0.704  10.499  19.414  0.00  0.00    +0.000 N 
ATOM     24  C   UNL     1       0.129  10.361  20.646  0.00  0.00    +0.000 A 
ATOM     25  C   UNL     1      -0.869  11.128  21.250  0.00  0.00    +0.000 A 
ATOM     26  C   UNL     1      -1.129  10.896  22.598  0.00  0.00    +0.000 A 
ATOM     27  C   UNL     1      -0.352   9.997  23.316  0.00  0.00    +0.000 A 
ATOM     28  C   UNL     1       0.609   9.207  22.667  0.00  0.00    +0.000 A 
ATOM     29  C   UNL     1       0.783   9.295  21.264  0.00  0.00    +0.000 A 
ATOM     30  C   UNL     1       1.426   8.530  20.204  0.00  0.00    +0.000 A 
ATOM     31  H   UNL     1       0.541  11.277  18.791  0.00  0.00    +0.000 HD
ENDBRANCH  17  18
ENDBRANCH   1  17
TORSDOF 10
ENDMDL
MODEL 4
REMARK VINA RESULT:      -7.7      2.761      7.533
REMARK  Name = 
REMARK  10 active torsions:
REMARK  status: ('A' for Active; 'I' for Inactive)
REMARK    1  A    between atoms: O_1  and  C_2
REMARK    2  A    between atoms: C_2  and  C_3
REMARK    3  A    between atoms: C_2  and  C_14
REMARK    4  A    between atoms: C_3  and  N_4
REMARK    5  A    between atoms: N_4  and  C_5
REMARK    6  A    between atoms: C_5  and  C_6
REMARK    7  A    between atoms: C_6  and  C_7
REMARK    8  A    between atoms: C_7  and  C_8
REMARK    9  A    between atoms: C_14  and  O_15
REMARK   10  A    between atoms: O_15  and  C_16
REMARK                            x       y       z     vdW  Elec       q    Type
REMARK                         _______ _______ _______ _____ _____    ______ ____
ROOT
ATOM      1  C   UNL     1       3.856   2.860  18.057  0.00  0.00    +0.000 C 
ENDROOT
BRANCH   1   2
ATOM      2  C   UNL     1       2.657   1.903  18.050  0.00  0.00    +0.000 C 
BRANCH   2   3
ATOM      3  O   UNL     1       2.797   0.977  19.141  0.00  0.00    +0.000 OA
ATOM      4  H   UNL     1       3.536   1.294  19.696  0.00  0.00    +0.000 HD
ENDBRANCH   2   3
BRANCH   2   5
ATOM      5  C   UNL     1       1.326   2.673  18.253  0.00  0.00    +0.000 C 
BRANCH   5   6
ATOM      6  N   UNL     1       1.511   4.004  18.831  0.00  0.00    +0.000 NA
ATOM      7  H   UNL     1       1.022   4.700  18.272  0.00  0.00    +0.000 HD
BRANCH   6   8
ATOM      8  C   UNL     1       1.046   4.067  20.219  0.00  0.00    +0.000 C 
BRANCH   8   9
ATOM      9  C   UNL     1       1.843   5.136  20.969  0.00  0.00    +0.000 C 
BRANCH   9  10
ATOM     10  C   UNL     1       2.823   5.857  20.039  0.00  0.00    +0.000 C 
BRANCH  10  11
ATOM     11  C   UNL     1       2.261   7.169  19.544  0.00  0.00    +0.000 A 
ATOM     12  C   UNL     1       2.482   7.592  18.227  0.00  0.00    +0.000 A 
ATOM     13  C   UNL     1       1.987   8.821  17.785  0.00  0.00    +0.000 A 
ATOM     14  C   UNL     1       1.271   9.640  18.657  0.00  0.00    +0.000 A 
ATOM     15  C   UNL     1       1.042   9.228  19.967  0.00  0.00    +0.000 A 
ATOM     16  C   UNL     1       1.536   7.998  20.410  0.00  0.00    +0.000 A 
ENDBRANCH  10  11
ENDBRANCH   9  10
ENDBRANCH   8   9
ENDBRANCH   6   8
ENDBRANCH   5   6
ENDBRANCH   2   5
ENDBRANCH   1   2
BRANCH   1  17
ATOM     17  O   UNL     1       3.791   3.768  16.957  0.00  0.00    +0.000 OA
BRANCH  17  18
ATOM     18  C   UNL     1       4.913   4.581  16.777  0.00  0.00    +0.000 A 
ATOM     19  C   UNL     1       5.279   5.229  17.976  0.00  0.00    +0.000 A 
ATOM     20  C   UNL     1       6.373   6.082  18.042  0.00  0.00    +0.000 A 
ATOM     21  C   UNL     1       7.175   6.275  16.924  0.00  0.00    +0.000 A 
ATOM     22  C   UNL     1       6.858   5.565  15.761  0.00  0.00    +0.000 A 
ATOM     23  N   UNL     1       7.594   5.468  14.612  0.00  0.00    +0.000 N 
ATOM     24  C   UNL     1       7.015   4.596  13.734  0.00  0.00    +0.000 A 
ATOM     25  C   UNL     1       7.534   4.043  12.560  0.00  0.00    +0.000 A 
ATOM     26  C   UNL     1       6.657   3.341  11.740  0.00  0.00    +0.000 A 
ATOM     27  C   UNL     1       5.304   3.282  12.049  0.00  0.00    +0.000 A 
ATOM     28  C   UNL     1       4.825   3.804  13.259  0.00  0.00    +0.000 A 
ATOM     29  C   UNL     1       5.718   4.377  14.198  0.00  0.00    +0.000 A 
ATOM     30  C   UNL     1       5.706   4.772  15.600  0.00  0.00    +0.000 A 
ATOM     31  H   UNL     1       8.481   5.926  14.463  0.00  0.00    +0.000 HD
ENDBRANCH  17  18
ENDBRANCH   1  17
TORSDOF 10
ENDMDL
MODEL 5
REMARK VINA RESULT:      -7.6      2.598      7.298
REMARK  Name = 
REMARK  10 active torsions:
REMARK  status: ('A' for Active; 'I' for Inactive)
REMARK    1  A    between atoms: O_1  and  C_2
REMARK    2  A    between atoms: C_2  and  C_3
REMARK    3  A    between atoms: C_2  and  C_14
REMARK    4  A    between atoms: C_3  and  N_4
REMARK    5  A    between atoms: N_4  and  C_5
REMARK    6  A    between atoms: C_5  and  C_6
REMARK    7  A    between atoms: C_6  and  C_7
REMARK    8  A    between atoms: C_7  and  C_8
REMARK    9  A    between atoms: C_14  and  O_15
REMARK   10  A    between atoms: O_15  and  C_16
REMARK                            x       y       z     vdW  Elec       q    Type
REMARK                         _______ _______ _______ _____ _____    ______ ____
ROOT
ATOM      1  C   UNL     1       2.955   3.038  16.824  0.00  0.00    +0.000 C 
ENDROOT
BRANCH   1   2
ATOM      2  C   UNL     1       2.018   3.695  17.846  0.00  0.00    +0.000 C 
BRANCH   2   3
ATOM      3  O   UNL     1       0.846   4.171  17.161  0.00  0.00    +0.000 OA
ATOM      4  H   UNL     1       0.082   3.682  17.522  0.00  0.00    +0.000 HD
ENDBRANCH   2   3
BRANCH   2   5
ATOM      5  C   UNL     1       1.554   2.674  18.918  0.00  0.00    +0.000 C 
BRANCH   5   6
ATOM      6  N   UNL     1       0.694   3.263  19.944  0.00  0.00    +0.000 NA
ATOM      7  H   UNL     1      -0.014   2.593  20.234  0.00  0.00    +0.000 HD
BRANCH   6   8
ATOM      8  C   UNL     1       1.461   3.710  21.109  0.00  0.00    +0.000 C 
BRANCH   8   9
ATOM      9  C   UNL     1       2.376   4.866  20.696  0.00  0.00    +0.000 C 
BRANCH   9  10
ATOM     10  C   UNL     1       1.750   6.221  21.036  0.00  0.00    +0.000 C 
BRANCH  10  11
ATOM     11  C   UNL     1       1.910   7.209  19.905  0.00  0.00    +0.000 A 
ATOM     12  C   UNL     1       2.763   6.933  18.827  0.00  0.00    +0.000 A 
ATOM     13  C   UNL     1       2.933   7.864  17.800  0.00  0.00    +0.000 A 
ATOM     14  C   UNL     1       2.255   9.082  17.843  0.00  0.00    +0.000 A 
ATOM     15  C   UNL     1       1.402   9.366  18.907  0.00  0.00    +0.000 A 
ATOM     16  C   UNL     1       1.231   8.435  19.933  0.00  0.00    +0.000 A 
ENDBRANCH  10  11
ENDBRANCH   9  10
ENDBRANCH   8   9
ENDBRANCH   6   8
ENDBRANCH   5   6
ENDBRANCH   2   5
ENDBRANCH   1   2
BRANCH   1  17
ATOM     17  O   UNL     1       4.239   2.789  17.398  0.00  0.00    +0.000 OA
BRANCH  17  18
ATOM     18  C   UNL     1       5.122   3.873  17.396  0.00  0.00    +0.000 A 
ATOM     19  C   UNL     1       5.352   4.353  18.703  0.00  0.00    +0.000 A 
ATOM     20  C   UNL     1       6.204   5.421  18.951  0.00  0.00    +0.000 A 
ATOM     21  C   UNL     1       6.901   6.014  17.906  0.00  0.00    +0.000 A 
ATOM     22  C   UNL     1       6.734   5.480  16.623  0.00  0.00    +0.000 A 
ATOM     23  N   UNL     1       7.438   5.786  15.491  0.00  0.00    +0.000 N 
ATOM     24  C   UNL     1       7.066   4.980  14.452  0.00  0.00    +0.000 A 
ATOM     25  C   UNL     1       7.670   4.805  13.205  0.00  0.00    +0.000 A 
ATOM     26  C   UNL     1       6.969   4.076  12.249  0.00  0.00    +0.000 A 
ATOM     27  C   UNL     1       5.682   3.628  12.516  0.00  0.00    +0.000 A 
ATOM     28  C   UNL     1       5.125   3.777  13.794  0.00  0.00    +0.000 A 
ATOM     29  C   UNL     1       5.877   4.365  14.841  0.00  0.00    +0.000 A 
ATOM     30  C   UNL     1       5.808   4.473  16.293  0.00  0.00    +0.000 A 
ATOM     31  H   UNL     1       8.180   6.469  15.448  0.00  0.00    +0.000 HD
ENDBRANCH  17  18
ENDBRANCH   1  17
TORSDOF 10
ENDMDL
MODEL 6
REMARK VINA RESULT:      -7.6      2.615      7.419
REMARK  Name = 
REMARK  10 active torsions:
REMARK  status: ('A' for Active; 'I' for Inactive)
REMARK    1  A    between atoms: O_1  and  C_2
REMARK    2  A    between atoms: C_2  and  C_3
REMARK    3  A    between atoms: C_2  and  C_14
REMARK    4  A    between atoms: C_3  and  N_4
REMARK    5  A    between atoms: N_4  and  C_5
REMARK    6  A    between atoms: C_5  and  C_6
REMARK    7  A    between atoms: C_6  and  C_7
REMARK    8  A    between atoms: C_7  and  C_8
REMARK    9  A    between atoms: C_14  and  O_15
REMARK   10  A    between atoms: O_15  and  C_16
REMARK                            x       y       z     vdW  Elec       q    Type
REMARK                         _______ _______ _______ _____ _____    ______ ____
ROOT
ATOM      1  C   UNL     1       3.559   2.068  18.285  0.00  0.00    +0.000 C 
ENDROOT
BRANCH   1   2
ATOM      2  C   UNL     1       2.172   2.441  18.823  0.00  0.00    +0.000 C 
BRANCH   2   3
ATOM      3  O   UNL     1       1.190   1.598  18.196  0.00  0.00    +0.000 OA
ATOM      4  H   UNL     1       1.446   0.673  18.376  0.00  0.00    +0.000 HD
ENDBRANCH   2   3
BRANCH   2   5
ATOM      5  C   UNL     1       2.084   2.207  20.354  0.00  0.00    +0.000 C 
BRANCH   5   6
ATOM      6  N   UNL     1       1.387   3.279  21.064  0.00  0.00    +0.000 NA
ATOM      7  H   UNL     1       1.075   2.950  21.975  0.00  0.00    +0.000 HD
BRANCH   6   8
ATOM      8  C   UNL     1       2.230   4.465  21.227  0.00  0.00    +0.000 C 
BRANCH   8   9
ATOM      9  C   UNL     1       1.557   5.659  20.544  0.00  0.00    +0.000 C 
BRANCH   9  10
ATOM     10  C   UNL     1       2.571   6.495  19.757  0.00  0.00    +0.000 C 
BRANCH  10  11
ATOM     11  C   UNL     1       2.025   7.863  19.422  0.00  0.00    +0.000 A 
ATOM     12  C   UNL     1       1.284   8.589  20.364  0.00  0.00    +0.000 A 
ATOM     13  C   UNL     1       0.754   9.840  20.038  0.00  0.00    +0.000 A 
ATOM     14  C   UNL     1       0.957  10.374  18.766  0.00  0.00    +0.000 A 
ATOM     15  C   UNL     1       1.696   9.663  17.823  0.00  0.00    +0.000 A 
ATOM     16  C   UNL     1       2.227   8.413  18.149  0.00  0.00    +0.000 A 
ENDBRANCH  10  11
ENDBRANCH   9  10
ENDBRANCH   8   9
ENDBRANCH   6   8
ENDBRANCH   5   6
ENDBRANCH   2   5
ENDBRANCH   1   2
BRANCH   1  17
ATOM     17  O   UNL     1       3.837   2.763  17.069  0.00  0.00    +0.000 OA
BRANCH  17  18
ATOM     18  C   UNL     1       4.778   3.793  17.163  0.00  0.00    +0.000 A 
ATOM     19  C   UNL     1       4.942   4.222  18.498  0.00  0.00    +0.000 A 
ATOM     20  C   UNL     1       5.833   5.231  18.837  0.00  0.00    +0.000 A 
ATOM     21  C   UNL     1       6.635   5.810  17.862  0.00  0.00    +0.000 A 
ATOM     22  C   UNL     1       6.530   5.322  16.555  0.00  0.00    +0.000 A 
ATOM     23  N   UNL     1       7.328   5.618  15.485  0.00  0.00    +0.000 N 
ATOM     24  C   UNL     1       6.986   4.864  14.397  0.00  0.00    +0.000 A 
ATOM     25  C   UNL     1       7.667   4.688  13.190  0.00  0.00    +0.000 A 
ATOM     26  C   UNL     1       6.995   4.029  12.166  0.00  0.00    +0.000 A 
ATOM     27  C   UNL     1       5.669   3.649  12.328  0.00  0.00    +0.000 A 
ATOM     28  C   UNL     1       5.031   3.796  13.569  0.00  0.00    +0.000 A 
ATOM     29  C   UNL     1       5.739   4.309  14.683  0.00  0.00    +0.000 A 
ATOM     30  C   UNL     1       5.574   4.381  16.130  0.00  0.00    +0.000 A 
ATOM     31  H   UNL     1       8.110   6.257  15.515  0.00  0.00    +0.000 HD
ENDBRANCH  17  18
ENDBRANCH   1  17
TORSDOF 10
ENDMDL
MODEL 7
REMARK VINA RESULT:      -7.5      0.926      1.476
REMARK  Name = 
REMARK  10 active torsions:
REMARK  status: ('A' for Active; 'I' for Inactive)
REMARK    1  A    between atoms: O_1  and  C_2
REMARK    2  A    between atoms: C_2  and  C_3
REMARK    3  A    between atoms: C_2  and  C_14
REMARK    4  A    between atoms: C_3  and  N_4
REMARK    5  A    between atoms: N_4  and  C_5
REMARK    6  A    between atoms: C_5  and  C_6
REMARK    7  A    between atoms: C_6  and  C_7
REMARK    8  A    between atoms: C_7  and  C_8
REMARK    9  A    between atoms: C_14  and  O_15
REMARK   10  A    between atoms: O_15  and  C_16
REMARK                            x       y       z     vdW  Elec       q    Type
REMARK                         _______ _______ _______ _____ _____    ______ ____
ROOT
ATOM      1  C   UNL     1       1.588   4.909  20.151  0.00  0.00    +0.000 C 
ENDROOT
BRANCH   1   2
ATOM      2  C   UNL     1       1.617   3.749  21.155  0.00  0.00    +0.000 C 
BRANCH   2   3
ATOM      3  O   UNL     1       0.562   2.828  20.828  0.00  0.00    +0.000 OA
ATOM      4  H   UNL     1       0.408   2.895  19.865  0.00  0.00    +0.000 HD
ENDBRANCH   2   3
BRANCH   2   5
ATOM      5  C   UNL     1       2.959   2.975  21.077  0.00  0.00    +0.000 C 
BRANCH   5   6
ATOM      6  N   UNL     1       3.645   3.137  19.795  0.00  0.00    +0.000 NA
ATOM      7  H   UNL     1       4.624   3.366  19.949  0.00  0.00    +0.000 HD
BRANCH   6   8
ATOM      8  C   UNL     1       3.543   1.934  18.965  0.00  0.00    +0.000 C 
BRANCH   8   9
ATOM      9  C   UNL     1       3.519   2.341  17.490  0.00  0.00    +0.000 C 
BRANCH   9  10
ATOM     10  C   UNL     1       3.516   3.864  17.332  0.00  0.00    +0.000 C 
BRANCH  10  11
ATOM     11  C   UNL     1       4.786   4.360  16.684  0.00  0.00    +0.000 A 
ATOM     12  C   UNL     1       5.249   3.796  15.487  0.00  0.00    +0.000 A 
ATOM     13  C   UNL     1       6.442   4.237  14.910  0.00  0.00    +0.000 A 
ATOM     14  C   UNL     1       7.185   5.243  15.525  0.00  0.00    +0.000 A 
ATOM     15  C   UNL     1       6.734   5.814  16.712  0.00  0.00    +0.000 A 
ATOM     16  C   UNL     1       5.540   5.375  17.290  0.00  0.00    +0.000 A 
ENDBRANCH  10  11
ENDBRANCH   9  10
ENDBRANCH   8   9
ENDBRANCH   6   8
ENDBRANCH   5   6
ENDBRANCH   2   5
ENDBRANCH   1   2
BRANCH   1  17
ATOM     17  O   UNL     1       1.849   6.153  20.802  0.00  0.00    +0.000 OA
BRANCH  17  18
ATOM     18  C   UNL     1       1.895   7.274  19.968  0.00  0.00    +0.000 A 
ATOM     19  C   UNL     1       2.505   6.973  18.732  0.00  0.00    +0.000 A 
ATOM     20  C   UNL     1       2.654   7.930  17.738  0.00  0.00    +0.000 A 
ATOM     21  C   UNL     1       2.148   9.211  17.921  0.00  0.00    +0.000 A 
ATOM     22  C   UNL     1       1.468   9.480  19.114  0.00  0.00    +0.000 A 
ATOM     23  N   UNL     1       0.750  10.599  19.434  0.00  0.00    +0.000 N 
ATOM     24  C   UNL     1       0.137  10.455  20.647  0.00  0.00    +0.000 A 
ATOM     25  C   UNL     1      -0.850  11.246  21.241  0.00  0.00    +0.000 A 
ATOM     26  C   UNL     1      -1.155  10.995  22.576  0.00  0.00    +0.000 A 
ATOM     27  C   UNL     1      -0.431  10.053  23.294  0.00  0.00    +0.000 A 
ATOM     28  C   UNL     1       0.518   9.242  22.654  0.00  0.00    +0.000 A 
ATOM     29  C   UNL     1       0.734   9.354  21.259  0.00  0.00    +0.000 A 
ATOM     30  C   UNL     1       1.379   8.588  20.200  0.00  0.00    +0.000 A 
ATOM     31  H   UNL     1       0.633  11.395  18.825  0.00  0.00    +0.000 HD
ENDBRANCH  17  18
ENDBRANCH   1  17
TORSDOF 10
ENDMDL
MODEL 8
REMARK VINA RESULT:      -7.5      2.600      7.283
REMARK  Name = 
REMARK  10 active torsions:
REMARK  status: ('A' for Active; 'I' for Inactive)
REMARK    1  A    between atoms: O_1  and  C_2
REMARK    2  A    between atoms: C_2  and  C_3
REMARK    3  A    between atoms: C_2  and  C_14
REMARK    4  A    between atoms: C_3  and  N_4
REMARK    5  A    between atoms: N_4  and  C_5
REMARK    6  A    between atoms: C_5  and  C_6
REMARK    7  A    between atoms: C_6  and  C_7
REMARK    8  A    between atoms: C_7  and  C_8
REMARK    9  A    between atoms: C_14  and  O_15
REMARK   10  A    between atoms: O_15  and  C_16
REMARK                            x       y       z     vdW  Elec       q    Type
REMARK                         _______ _______ _______ _____ _____    ______ ____
ROOT
ATOM      1  C   UNL     1       3.287   3.002  16.971  0.00  0.00    +0.000 C 
ENDROOT
BRANCH   1   2
ATOM      2  C   UNL     1       2.229   2.174  17.711  0.00  0.00    +0.000 C 
BRANCH   2   3
ATOM      3  O   UNL     1       2.858   1.500  18.816  0.00  0.00    +0.000 OA
ATOM      4  H   UNL     1       3.747   1.227  18.519  0.00  0.00    +0.000 HD
ENDBRANCH   2   3
BRANCH   2   5
ATOM      5  C   UNL     1       1.111   3.081  18.287  0.00  0.00    +0.000 C 
BRANCH   5   6
ATOM      6  N   UNL     1       0.778   2.775  19.678  0.00  0.00    +0.000 NA
ATOM      7  H   UNL     1       1.449   2.113  20.061  0.00  0.00    +0.000 HD
BRANCH   6   8
ATOM      8  C   UNL     1       0.741   3.980  20.510  0.00  0.00    +0.000 C 
BRANCH   8   9
ATOM      9  C   UNL     1       2.160   4.534  20.655  0.00  0.00    +0.000 C 
BRANCH   9  10
ATOM     10  C   UNL     1       2.143   6.009  21.067  0.00  0.00    +0.000 C 
BRANCH  10  11
ATOM     11  C   UNL     1       2.282   6.924  19.873  0.00  0.00    +0.000 A 
ATOM     12  C   UNL     1       1.555   8.120  19.798  0.00  0.00    +0.000 A 
ATOM     13  C   UNL     1       1.663   8.946  18.677  0.00  0.00    +0.000 A 
ATOM     14  C   UNL     1       2.496   8.583  17.619  0.00  0.00    +0.000 A 
ATOM     15  C   UNL     1       3.226   7.399  17.685  0.00  0.00    +0.000 A 
ATOM     16  C   UNL     1       3.120   6.572  18.806  0.00  0.00    +0.000 A 
ENDBRANCH  10  11
ENDBRANCH   9  10
ENDBRANCH   8   9
ENDBRANCH   6   8
ENDBRANCH   5   6
ENDBRANCH   2   5
ENDBRANCH   1   2
BRANCH   1  17
ATOM     17  O   UNL     1       4.578   2.815  17.551  0.00  0.00    +0.000 OA
BRANCH  17  18
ATOM     18  C   UNL     1       5.457   3.895  17.431  0.00  0.00    +0.000 A 
ATOM     19  C   UNL     1       5.815   4.413  18.694  0.00  0.00    +0.000 A 
ATOM     20  C   UNL     1       6.688   5.485  18.824  0.00  0.00    +0.000 A 
ATOM     21  C   UNL     1       7.279   6.044  17.698  0.00  0.00    +0.000 A 
ATOM     22  C   UNL     1       6.987   5.472  16.455  0.00  0.00    +0.000 A 
ATOM     23  N   UNL     1       7.576   5.742  15.250  0.00  0.00    +0.000 N 
ATOM     24  C   UNL     1       7.103   4.907  14.277  0.00  0.00    +0.000 A 
ATOM     25  C   UNL     1       7.582   4.692  12.983  0.00  0.00    +0.000 A 
ATOM     26  C   UNL     1       6.790   3.938  12.123  0.00  0.00    +0.000 A 
ATOM     27  C   UNL     1       5.535   3.502  12.528  0.00  0.00    +0.000 A 
ATOM     28  C   UNL     1       5.106   3.692  13.850  0.00  0.00    +0.000 A 
ATOM     29  C   UNL     1       5.958   4.307  14.800  0.00  0.00    +0.000 A 
ATOM     30  C   UNL     1       6.033   4.459  16.247  0.00  0.00    +0.000 A 
ATOM     31  H   UNL     1       8.311   6.421  15.114  0.00  0.00    +0.000 HD
ENDBRANCH  17  18
ENDBRANCH   1  17
TORSDOF 10
ENDMDL
MODEL 9
REMARK VINA RESULT:      -7.5      3.316      5.632
REMARK  Name = 
REMARK  10 active torsions:
REMARK  status: ('A' for Active; 'I' for Inactive)
REMARK    1  A    between atoms: O_1  and  C_2
REMARK    2  A    between atoms: C_2  and  C_3
REMARK    3  A    between atoms: C_2  and  C_14
REMARK    4  A    between atoms: C_3  and  N_4
REMARK    5  A    between atoms: N_4  and  C_5
REMARK    6  A    between atoms: C_5  and  C_6
REMARK    7  A    between atoms: C_6  and  C_7
REMARK    8  A    between atoms: C_7  and  C_8
REMARK    9  A    between atoms: C_14  and  O_15
REMARK   10  A    between atoms: O_15  and  C_16
REMARK                            x       y       z     vdW  Elec       q    Type
REMARK                         _______ _______ _______ _____ _____    ______ ____
ROOT
ATOM      1  C   UNL     1       4.569   4.653  16.386  0.00  0.00    +0.000 C 
ENDROOT
BRANCH   1   2
ATOM      2  C   UNL     1       5.515   5.421  15.453  0.00  0.00    +0.000 C 
BRANCH   2   3
ATOM      3  O   UNL     1       5.086   6.792  15.386  0.00  0.00    +0.000 OA
ATOM      4  H   UNL     1       4.882   6.986  14.450  0.00  0.00    +0.000 HD
ENDBRANCH   2   3
BRANCH   2   5
ATOM      5  C   UNL     1       6.967   5.408  15.997  0.00  0.00    +0.000 C 
BRANCH   5   6
ATOM      6  N   UNL     1       7.321   6.623  16.730  0.00  0.00    +0.000 NA
ATOM      7  H   UNL     1       6.504   7.221  16.831  0.00  0.00    +0.000 HD
BRANCH   6   8
ATOM      8  C   UNL     1       7.882   6.322  18.049  0.00  0.00    +0.000 C 
BRANCH   8   9
ATOM      9  C   UNL     1       8.319   7.626  18.720  0.00  0.00    +0.000 C 
BRANCH   9  10
ATOM     10  C   UNL     1       8.008   8.839  17.837  0.00  0.00    +0.000 C 
BRANCH  10  11
ATOM     11  C   UNL     1       8.675  10.091  18.354  0.00  0.00    +0.000 A 
ATOM     12  C   UNL     1       9.290  10.108  19.613  0.00  0.00    +0.000 A 
ATOM     13  C   UNL     1       9.877  11.278  20.101  0.00  0.00    +0.000 A 
ATOM     14  C   UNL     1       9.852  12.443  19.335  0.00  0.00    +0.000 A 
ATOM     15  C   UNL     1       9.247  12.437  18.081  0.00  0.00    +0.000 A 
ATOM     16  C   UNL     1       8.661  11.267  17.592  0.00  0.00    +0.000 A 
ENDBRANCH  10  11
ENDBRANCH   9  10
ENDBRANCH   8   9
ENDBRANCH   6   8
ENDBRANCH   5   6
ENDBRANCH   2   5
ENDBRANCH   1   2
BRANCH   1  17
ATOM     17  O   UNL     1       5.135   4.520  17.689  0.00  0.00    +0.000 OA
BRANCH  17  18
ATOM     18  C   UNL     1       4.222   4.305  18.726  0.00  0.00    +0.000 A 
ATOM     19  C   UNL     1       4.430   3.055  19.347  0.00  0.00    +0.000 A 
ATOM     20  C   UNL     1       3.646   2.628  20.411  0.00  0.00    +0.000 A 
ATOM     21  C   UNL     1       2.663   3.460  20.931  0.00  0.00    +0.000 A 
ATOM     22  C   UNL     1       2.517   4.732  20.367  0.00  0.00    +0.000 A 
ATOM     23  N   UNL     1       1.744   5.765  20.820  0.00  0.00    +0.000 N 
ATOM     24  C   UNL     1       1.944   6.890  20.070  0.00  0.00    +0.000 A 
ATOM     25  C   UNL     1       1.536   8.204  20.314  0.00  0.00    +0.000 A 
ATOM     26  C   UNL     1       1.692   9.126  19.284  0.00  0.00    +0.000 A 
ATOM     27  C   UNL     1       2.153   8.715  18.040  0.00  0.00    +0.000 A 
ATOM     28  C   UNL     1       2.601   7.400  17.843  0.00  0.00    +0.000 A 
ATOM     29  C   UNL     1       2.615   6.478  18.919  0.00  0.00    +0.000 A 
ATOM     30  C   UNL     1       3.204   5.180  19.223  0.00  0.00    +0.000 A 
ATOM     31  H   UNL     1       1.158   5.722  21.640  0.00  0.00    +0.000 HD
ENDBRANCH  17  18
ENDBRANCH   1  17
TORSDOF 10
ENDMDL
