MODEL 1
REMARK VINA RESULT:      -8.3      0.000      0.000
REMARK  Name = 
REMARK  8 active torsions:
REMARK  status: ('A' for Active; 'I' for Inactive)
REMARK    1  A    between atoms: C_1  and  C_2
REMARK    2  A    between atoms: C_2  and  N_3
REMARK    3  A    between atoms: C_4  and  C_6
REMARK    4  A    between atoms: C_6  and  S_7
REMARK    5  A    between atoms: S_7  and  C_8
REMARK    6  A    between atoms: C_12  and  N_13
REMARK    7  A    between atoms: N_19  and  C_20
REMARK    8  A    between atoms: C_24  and  C_25
REMARK                            x       y       z     vdW  Elec       q    Type
REMARK                         _______ _______ _______ _____ _____    ______ ____
ROOT
ATOM      1  C   UNL     1       3.416   6.691  17.689  0.00  0.00    +0.000 A 
ATOM      2  N   UNL     1       4.283   7.237  16.865  0.00  0.00    +0.000 NA
ATOM      3  C   UNL     1       4.903   6.191  16.244  0.00  0.00    +0.000 A 
ATOM      4  C   UNL     1       5.908   6.236  15.262  0.00  0.00    +0.000 A 
ATOM      5  C   UNL     1       6.379   5.025  14.734  0.00  0.00    +0.000 A 
ATOM      6  C   UNL     1       5.861   3.799  15.161  0.00  0.00    +0.000 A 
ATOM      7  C   UNL     1       4.854   3.753  16.130  0.00  0.00    +0.000 A 
ATOM      8  C   UNL     1       4.404   4.967  16.687  0.00  0.00    +0.000 A 
ATOM      9  N   UNL     1       3.418   5.298  17.630  0.00  0.00    +0.000 N 
ENDROOT
BRANCH   9  10
ATOM     10  C   UNL     1       2.568   4.363  18.307  0.00  0.00    +0.000 A 
ATOM     11  C   UNL     1       1.483   3.776  17.639  0.00  0.00    +0.000 A 
ATOM     12  C   UNL     1       0.595   2.938  18.318  0.00  0.00    +0.000 A 
ATOM     13  C   UNL     1       0.797   2.650  19.665  0.00  0.00    +0.000 A 
ATOM     14  C   UNL     1       1.891   3.200  20.348  0.00  0.00    +0.000 A 
ATOM     15  C   UNL     1       2.768   4.060  19.660  0.00  0.00    +0.000 A 
BRANCH  14  16
ATOM     16  C   UNL     1       2.133   2.897  21.807  0.00  0.00    +0.000 C 
ATOM     17  F   UNL     1       1.064   2.327  22.429  0.00  0.00    +0.000 F 
ATOM     18  F   UNL     1       3.175   2.043  21.995  0.00  0.00    +0.000 F 
ATOM     19  F   UNL     1       2.427   4.017  22.523  0.00  0.00    +0.000 F 
ENDBRANCH  14  16
ENDBRANCH   9  10
BRANCH   5  20
ATOM     20  N   UNL     1       7.417   5.043  13.695  0.00  0.00    +0.000 N 
ATOM     21  O   UNL     1       8.410   5.758  13.887  0.00  0.00    +0.000 OA
ATOM     22  O   UNL     1       7.237   4.343  12.689  0.00  0.00    +0.000 OA
ENDBRANCH   5  20
BRANCH   1  23
ATOM     23  S   UNL     1       2.543   7.645  18.857  0.00  0.00    +0.000 S 
BRANCH  23  24
ATOM     24  C   UNL     1       2.060   9.065  17.829  0.00  0.00    +0.000 C 
BRANCH  24  26
ATOM     25  N   UNL     1      -0.254   9.806  17.575  0.00  0.00    +0.000 N 
ATOM     26  C   UNL     1       0.826   9.721  18.430  0.00  0.00    +0.000 C 
ATOM     27  O   UNL     1       0.808  10.148  19.583  0.00  0.00    +0.000 OA
ATOM     28  H   UNL     1      -0.175   9.441  16.634  0.00  0.00    +0.000 HD
BRANCH  25  30
ATOM     29  C   UNL     1      -2.607  10.180  16.959  0.00  0.00    +0.000 C 
ATOM     30  C   UNL     1      -1.503  10.430  17.970  0.00  0.00    +0.000 C 
ENDBRANCH  25  30
ENDBRANCH  24  26
ENDBRANCH  23  24
ENDBRANCH   1  23
TORSDOF 7
ENDMDL
MODEL 2
REMARK VINA RESULT:      -8.1      1.094      1.629
REMARK  Name = 
REMARK  8 active torsions:
REMARK  status: ('A' for Active; 'I' for Inactive)
REMARK    1  A    between atoms: C_1  and  C_2
REMARK    2  A    between atoms: C_2  and  N_3
REMARK    3  A    between atoms: C_4  and  C_6
REMARK    4  A    between atoms: C_6  and  S_7
REMARK    5  A    between atoms: S_7  and  C_8
REMARK    6  A    between atoms: C_12  and  N_13
REMARK    7  A    between atoms: N_19  and  C_20
REMARK    8  A    between atoms: C_24  and  C_25
REMARK                            x       y       z     vdW  Elec       q    Type
REMARK                         _______ _______ _______ _____ _____    ______ ____
ROOT
ATOM      1  C   UNL     1       3.474   6.603  17.676  0.00  0.00    +0.000 A 
ATOM      2  N   UNL     1       4.327   7.161  16.847  0.00  0.00    +0.000 NA
ATOM      3  C   UNL     1       4.954   6.126  16.217  0.00  0.00    +0.000 A 
ATOM      4  C   UNL     1       5.950   6.185  15.227  0.00  0.00    +0.000 A 
ATOM      5  C   UNL     1       6.430   4.982  14.689  0.00  0.00    +0.000 A 
ATOM      6  C   UNL     1       5.928   3.748  15.115  0.00  0.00    +0.000 A 
ATOM      7  C   UNL     1       4.930   3.687  16.092  0.00  0.00    +0.000 A 
ATOM      8  C   UNL     1       4.471   4.894  16.659  0.00  0.00    +0.000 A 
ATOM      9  N   UNL     1       3.490   5.209  17.611  0.00  0.00    +0.000 N 
ENDROOT
BRANCH   9  10
ATOM     10  C   UNL     1       2.656   4.263  18.291  0.00  0.00    +0.000 A 
ATOM     11  C   UNL     1       1.603   3.630  17.614  0.00  0.00    +0.000 A 
ATOM     12  C   UNL     1       0.728   2.779  18.294  0.00  0.00    +0.000 A 
ATOM     13  C   UNL     1       0.912   2.524  19.650  0.00  0.00    +0.000 A 
ATOM     14  C   UNL     1       1.975   3.120  20.341  0.00  0.00    +0.000 A 
ATOM     15  C   UNL     1       2.838   3.993  19.653  0.00  0.00    +0.000 A 
BRANCH  14  16
ATOM     16  C   UNL     1       2.198   2.854  21.811  0.00  0.00    +0.000 C 
ATOM     17  F   UNL     1       3.244   2.018  22.060  0.00  0.00    +0.000 F 
ATOM     18  F   UNL     1       2.452   3.992  22.512  0.00  0.00    +0.000 F 
ATOM     19  F   UNL     1       1.113   2.280  22.401  0.00  0.00    +0.000 F 
ENDBRANCH  14  16
ENDBRANCH   9  10
BRANCH   5  20
ATOM     20  N   UNL     1       7.458   5.016  13.641  0.00  0.00    +0.000 N 
ATOM     21  O   UNL     1       8.451   5.733  13.833  0.00  0.00    +0.000 OA
ATOM     22  O   UNL     1       7.273   4.326  12.629  0.00  0.00    +0.000 OA
ENDBRANCH   5  20
BRANCH   1  23
ATOM     23  S   UNL     1       2.600   7.542  18.855  0.00  0.00    +0.000 S 
BRANCH  23  24
ATOM     24  C   UNL     1       1.723   8.705  17.768  0.00  0.00    +0.000 C 
BRANCH  24  26
ATOM     25  N   UNL     1       1.903  11.122  18.074  0.00  0.00    +0.000 N 
ATOM     26  C   UNL     1       1.357   9.952  18.559  0.00  0.00    +0.000 C 
ATOM     27  O   UNL     1       0.641   9.905  19.557  0.00  0.00    +0.000 OA
ATOM     28  H   UNL     1       2.491  11.095  17.250  0.00  0.00    +0.000 HD
BRANCH  25  30
ATOM     29  C   UNL     1       2.687  13.447  18.266  0.00  0.00    +0.000 C 
ATOM     30  C   UNL     1       1.686  12.402  18.723  0.00  0.00    +0.000 C 
ENDBRANCH  25  30
ENDBRANCH  24  26
ENDBRANCH  23  24
ENDBRANCH   1  23
TORSDOF 7
ENDMDL
MODEL 3
REMARK VINA RESULT:      -8.0      1.129      1.571
REMARK  Name = 
REMARK  8 active torsions:
REMARK  status: ('A' for Active; 'I' for Inactive)
REMARK    1  A    between atoms: C_1  and  C_2
REMARK    2  A    between atoms: C_2  and  N_3
REMARK    3  A    between atoms: C_4  and  C_6
REMARK    4  A    between atoms: C_6  and  S_7
REMARK    5  A    between atoms: S_7  and  C_8
REMARK    6  A    between atoms: C_12  and  N_13
REMARK    7  A    between atoms: N_19  and  C_20
REMARK    8  A    between atoms: C_24  and  C_25
REMARK                            x       y       z     vdW  Elec       q    Type
REMARK                         _______ _______ _______ _____ _____    ______ ____
ROOT
ATOM      1  C   UNL     1       3.534   6.534  17.760  0.00  0.00    +0.000 A 
ATOM      2  N   UNL     1       4.381   7.110  16.936  0.00  0.00    +0.000 NA
ATOM      3  C   UNL     1       4.986   6.088  16.263  0.00  0.00    +0.000 A 
ATOM      4  C   UNL     1       5.967   6.169  15.260  0.00  0.00    +0.000 A 
ATOM      5  C   UNL     1       6.425   4.979  14.676  0.00  0.00    +0.000 A 
ATOM      6  C   UNL     1       5.916   3.738  15.069  0.00  0.00    +0.000 A 
ATOM      7  C   UNL     1       4.932   3.656  16.059  0.00  0.00    +0.000 A 
ATOM      8  C   UNL     1       4.496   4.848  16.672  0.00  0.00    +0.000 A 
ATOM      9  N   UNL     1       3.533   5.143  17.649  0.00  0.00    +0.000 N 
ENDROOT
BRANCH   9  10
ATOM     10  C   UNL     1       2.699   4.184  18.311  0.00  0.00    +0.000 A 
ATOM     11  C   UNL     1       1.686   3.518  17.607  0.00  0.00    +0.000 A 
ATOM     12  C   UNL     1       0.808   2.653  18.265  0.00  0.00    +0.000 A 
ATOM     13  C   UNL     1       0.952   2.418  19.631  0.00  0.00    +0.000 A 
ATOM     14  C   UNL     1       1.975   3.047  20.351  0.00  0.00    +0.000 A 
ATOM     15  C   UNL     1       2.841   3.933  19.682  0.00  0.00    +0.000 A 
BRANCH  14  16
ATOM     16  C   UNL     1       2.153   2.803  21.831  0.00  0.00    +0.000 C 
ATOM     17  F   UNL     1       1.054   2.267  22.430  0.00  0.00    +0.000 F 
ATOM     18  F   UNL     1       3.178   1.950  22.097  0.00  0.00    +0.000 F 
ATOM     19  F   UNL     1       2.427   3.949  22.512  0.00  0.00    +0.000 F 
ENDBRANCH  14  16
ENDBRANCH   9  10
BRANCH   5  20
ATOM     20  N   UNL     1       7.438   5.036  13.614  0.00  0.00    +0.000 N 
ATOM     21  O   UNL     1       7.231   4.373  12.587  0.00  0.00    +0.000 OA
ATOM     22  O   UNL     1       8.437   5.742  13.807  0.00  0.00    +0.000 OA
ENDBRANCH   5  20
BRANCH   1  23
ATOM     23  S   UNL     1       2.689   7.443  18.982  0.00  0.00    +0.000 S 
BRANCH  23  24
ATOM     24  C   UNL     1       1.896   8.718  17.957  0.00  0.00    +0.000 C 
BRANCH  24  26
ATOM     25  N   UNL     1       0.834   9.184  20.107  0.00  0.00    +0.000 N 
ATOM     26  C   UNL     1       1.134   9.680  18.855  0.00  0.00    +0.000 C 
ATOM     27  O   UNL     1       0.806  10.805  18.479  0.00  0.00    +0.000 OA
ATOM     28  H   UNL     1       1.126   8.248  20.356  0.00  0.00    +0.000 HD
BRANCH  25  30
ATOM     29  C   UNL     1       0.154   9.336  22.467  0.00  0.00    +0.000 C 
ATOM     30  C   UNL     1       0.084   9.953  21.083  0.00  0.00    +0.000 C 
ENDBRANCH  25  30
ENDBRANCH  24  26
ENDBRANCH  23  24
ENDBRANCH   1  23
TORSDOF 7
ENDMDL
MODEL 4
REMARK VINA RESULT:      -8.0      0.997      1.389
REMARK  Name = 
REMARK  8 active torsions:
REMARK  status: ('A' for Active; 'I' for Inactive)
REMARK    1  A    between atoms: C_1  and  C_2
REMARK    2  A    between atoms: C_2  and  N_3
REMARK    3  A    between atoms: C_4  and  C_6
REMARK    4  A    between atoms: C_6  and  S_7
REMARK    5  A    between atoms: S_7  and  C_8
REMARK    6  A    between atoms: C_12  and  N_13
REMARK    7  A    between atoms: N_19  and  C_20
REMARK    8  A    between atoms: C_24  and  C_25
REMARK                            x       y       z     vdW  Elec       q    Type
REMARK                         _______ _______ _______ _____ _____    ______ ____
ROOT
ATOM      1  C   UNL     1       3.469   6.627  17.719  0.00  0.00    +0.000 A 
ATOM      2  N   UNL     1       4.322   7.190  16.893  0.00  0.00    +0.000 NA
ATOM      3  C   UNL     1       4.944   6.159  16.251  0.00  0.00    +0.000 A 
ATOM      4  C   UNL     1       5.938   6.226  15.260  0.00  0.00    +0.000 A 
ATOM      5  C   UNL     1       6.413   5.026  14.709  0.00  0.00    +0.000 A 
ATOM      6  C   UNL     1       5.908   3.790  15.123  0.00  0.00    +0.000 A 
ATOM      7  C   UNL     1       4.912   3.722  16.102  0.00  0.00    +0.000 A 
ATOM      8  C   UNL     1       4.458   4.924  16.682  0.00  0.00    +0.000 A 
ATOM      9  N   UNL     1       3.480   5.234  17.639  0.00  0.00    +0.000 N 
ENDROOT
BRANCH   9  10
ATOM     10  C   UNL     1       2.645   4.283  18.311  0.00  0.00    +0.000 A 
ATOM     11  C   UNL     1       1.607   3.638  17.623  0.00  0.00    +0.000 A 
ATOM     12  C   UNL     1       0.729   2.782  18.294  0.00  0.00    +0.000 A 
ATOM     13  C   UNL     1       0.897   2.535  19.654  0.00  0.00    +0.000 A 
ATOM     14  C   UNL     1       1.944   3.143  20.357  0.00  0.00    +0.000 A 
ATOM     15  C   UNL     1       2.810   4.020  19.677  0.00  0.00    +0.000 A 
BRANCH  14  16
ATOM     16  C   UNL     1       2.149   2.885  21.831  0.00  0.00    +0.000 C 
ATOM     17  F   UNL     1       2.419   4.011  22.548  0.00  0.00    +0.000 F 
ATOM     18  F   UNL     1       1.057   2.322  22.416  0.00  0.00    +0.000 F 
ATOM     19  F   UNL     1       3.185   2.035  22.067  0.00  0.00    +0.000 F 
ENDBRANCH  14  16
ENDBRANCH   9  10
BRANCH   5  20
ATOM     20  N   UNL     1       7.439   5.068  13.659  0.00  0.00    +0.000 N 
ATOM     21  O   UNL     1       7.246   4.390  12.640  0.00  0.00    +0.000 OA
ATOM     22  O   UNL     1       8.436   5.777  13.855  0.00  0.00    +0.000 OA
ENDBRANCH   5  20
BRANCH   1  23
ATOM     23  S   UNL     1       2.601   7.556  18.909  0.00  0.00    +0.000 S 
BRANCH  23  24
ATOM     24  C   UNL     1       1.743   8.748  17.837  0.00  0.00    +0.000 C 
BRANCH  24  26
ATOM     25  N   UNL     1       1.479  11.146  18.220  0.00  0.00    +0.000 N 
ATOM     26  C   UNL     1       1.191   9.881  18.689  0.00  0.00    +0.000 C 
ATOM     27  O   UNL     1       0.551   9.673  19.718  0.00  0.00    +0.000 OA
ATOM     28  H   UNL     1       2.016  11.253  17.369  0.00  0.00    +0.000 HD
BRANCH  25  30
ATOM     29  C   UNL     1      -0.253  12.886  18.389  0.00  0.00    +0.000 C 
ATOM     30  C   UNL     1       1.059  12.344  18.924  0.00  0.00    +0.000 C 
ENDBRANCH  25  30
ENDBRANCH  24  26
ENDBRANCH  23  24
ENDBRANCH   1  23
TORSDOF 7
ENDMDL
MODEL 5
REMARK VINA RESULT:      -7.9      3.060      5.442
REMARK  Name = 
REMARK  8 active torsions:
REMARK  status: ('A' for Active; 'I' for Inactive)
REMARK    1  A    between atoms: C_1  and  C_2
REMARK    2  A    between atoms: C_2  and  N_3
REMARK    3  A    between atoms: C_4  and  C_6
REMARK    4  A    between atoms: C_6  and  S_7
REMARK    5  A    between atoms: S_7  and  C_8
REMARK    6  A    between atoms: C_12  and  N_13
REMARK    7  A    between atoms: N_19  and  C_20
REMARK    8  A    between atoms: C_24  and  C_25
REMARK                            x       y       z     vdW  Elec       q    Type
REMARK                         _______ _______ _______ _____ _____    ______ ____
ROOT
ATOM      1  C   UNL     1       3.247   5.367  19.651  0.00  0.00    +0.000 A 
ATOM      2  N   UNL     1       4.154   4.546  19.172  0.00  0.00    +0.000 NA
ATOM      3  C   UNL     1       4.565   5.103  17.996  0.00  0.00    +0.000 A 
ATOM      4  C   UNL     1       5.532   4.620  17.097  0.00  0.00    +0.000 A 
ATOM      5  C   UNL     1       5.822   5.383  15.957  0.00  0.00    +0.000 A 
ATOM      6  C   UNL     1       5.177   6.599  15.716  0.00  0.00    +0.000 A 
ATOM      7  C   UNL     1       4.222   7.086  16.613  0.00  0.00    +0.000 A 
ATOM      8  C   UNL     1       3.903   6.304  17.742  0.00  0.00    +0.000 A 
ATOM      9  N   UNL     1       3.045   6.483  18.838  0.00  0.00    +0.000 N 
ENDROOT
BRANCH   9  10
ATOM     10  C   UNL     1       2.209   7.626  19.062  0.00  0.00    +0.000 A 
ATOM     11  C   UNL     1       1.914   8.506  18.011  0.00  0.00    +0.000 A 
ATOM     12  C   UNL     1       1.180   9.672  18.242  0.00  0.00    +0.000 A 
ATOM     13  C   UNL     1       0.705   9.958  19.519  0.00  0.00    +0.000 A 
ATOM     14  C   UNL     1       0.960   9.080  20.580  0.00  0.00    +0.000 A 
ATOM     15  C   UNL     1       1.719   7.918  20.341  0.00  0.00    +0.000 A 
BRANCH  14  16
ATOM     16  C   UNL     1       0.450   9.366  21.972  0.00  0.00    +0.000 C 
ATOM     17  F   UNL     1      -0.589   8.570  22.345  0.00  0.00    +0.000 F 
ATOM     18  F   UNL     1       1.410   9.198  22.921  0.00  0.00    +0.000 F 
ATOM     19  F   UNL     1       0.007  10.646  22.104  0.00  0.00    +0.000 F 
ENDBRANCH  14  16
ENDBRANCH   9  10
BRANCH   5  20
ATOM     20  N   UNL     1       6.841   4.911  15.010  0.00  0.00    +0.000 N 
ATOM     21  O   UNL     1       6.650   3.819  14.456  0.00  0.00    +0.000 OA
ATOM     22  O   UNL     1       7.831   5.632  14.821  0.00  0.00    +0.000 OA
ENDBRANCH   5  20
BRANCH   1  23
ATOM     23  S   UNL     1       2.282   4.952  21.041  0.00  0.00    +0.000 S 
BRANCH  23  24
ATOM     24  C   UNL     1       0.812   4.256  20.227  0.00  0.00    +0.000 C 
BRANCH  24  26
ATOM     25  N   UNL     1       2.023   2.393  19.211  0.00  0.00    +0.000 N 
ATOM     26  C   UNL     1       1.241   3.505  18.976  0.00  0.00    +0.000 C 
ATOM     27  O   UNL     1       0.920   3.878  17.848  0.00  0.00    +0.000 OA
ATOM     28  H   UNL     1       2.258   2.141  20.162  0.00  0.00    +0.000 HD
BRANCH  25  30
ATOM     29  C   UNL     1       3.962   1.105  18.414  0.00  0.00    +0.000 C 
ATOM     30  C   UNL     1       2.547   1.577  18.132  0.00  0.00    +0.000 C 
ENDBRANCH  25  30
ENDBRANCH  24  26
ENDBRANCH  23  24
ENDBRANCH   1  23
TORSDOF 7
ENDMDL
MODEL 6
REMARK VINA RESULT:      -7.7      4.111      7.263
REMARK  Name = 
REMARK  8 active torsions:
REMARK  status: ('A' for Active; 'I' for Inactive)
REMARK    1  A    between atoms: C_1  and  C_2
REMARK    2  A    between atoms: C_2  and  N_3
REMARK    3  A    between atoms: C_4  and  C_6
REMARK    4  A    between atoms: C_6  and  S_7
REMARK    5  A    between atoms: S_7  and  C_8
REMARK    6  A    between atoms: C_12  and  N_13
REMARK    7  A    between atoms: N_19  and  C_20
REMARK    8  A    between atoms: C_24  and  C_25
REMARK                            x       y       z     vdW  Elec       q    Type
REMARK                         _______ _______ _______ _____ _____    ______ ____
ROOT
ATOM      1  C   UNL     1       2.085   6.054  20.347  0.00  0.00    +0.000 A 
ATOM      2  N   UNL     1       1.262   6.957  20.833  0.00  0.00    +0.000 NA
ATOM      3  C   UNL     1       1.388   8.042  20.016  0.00  0.00    +0.000 A 
ATOM      4  C   UNL     1       0.716   9.274  20.096  0.00  0.00    +0.000 A 
ATOM      5  C   UNL     1       0.978  10.244  19.118  0.00  0.00    +0.000 A 
ATOM      6  C   UNL     1       1.879   9.996  18.077  0.00  0.00    +0.000 A 
ATOM      7  C   UNL     1       2.541   8.768  17.989  0.00  0.00    +0.000 A 
ATOM      8  C   UNL     1       2.305   7.805  18.991  0.00  0.00    +0.000 A 
ATOM      9  N   UNL     1       2.754   6.493  19.205  0.00  0.00    +0.000 N 
ENDROOT
BRANCH   9  10
ATOM     10  C   UNL     1       3.657   5.775  18.354  0.00  0.00    +0.000 A 
ATOM     11  C   UNL     1       3.166   4.909  17.367  0.00  0.00    +0.000 A 
ATOM     12  C   UNL     1       4.038   4.134  16.598  0.00  0.00    +0.000 A 
ATOM     13  C   UNL     1       5.414   4.238  16.784  0.00  0.00    +0.000 A 
ATOM     14  C   UNL     1       5.932   5.119  17.742  0.00  0.00    +0.000 A 
ATOM     15  C   UNL     1       5.044   5.879  18.527  0.00  0.00    +0.000 A 
BRANCH  14  16
ATOM     16  C   UNL     1       7.420   5.253  17.958  0.00  0.00    +0.000 C 
ATOM     17  F   UNL     1       8.143   4.239  17.406  0.00  0.00    +0.000 F 
ATOM     18  F   UNL     1       7.921   6.401  17.427  0.00  0.00    +0.000 F 
ATOM     19  F   UNL     1       7.750   5.271  19.278  0.00  0.00    +0.000 F 
ENDBRANCH  14  16
ENDBRANCH   9  10
BRANCH   5  20
ATOM     20  N   UNL     1       0.277  11.533  19.168  0.00  0.00    +0.000 N 
ATOM     21  O   UNL     1      -0.745  11.604  19.866  0.00  0.00    +0.000 OA
ATOM     22  O   UNL     1       0.748  12.472  18.512  0.00  0.00    +0.000 OA
ENDBRANCH   5  20
BRANCH   1  23
ATOM     23  S   UNL     1       2.422   4.574  21.201  0.00  0.00    +0.000 S 
BRANCH  23  24
ATOM     24  C   UNL     1       0.915   3.627  20.829  0.00  0.00    +0.000 C 
BRANCH  24  26
ATOM     25  N   UNL     1       2.461   2.220  19.564  0.00  0.00    +0.000 N 
ATOM     26  C   UNL     1       1.176   2.718  19.638  0.00  0.00    +0.000 C 
ATOM     27  O   UNL     1       0.306   2.464  18.806  0.00  0.00    +0.000 OA
ATOM     28  H   UNL     1       3.134   2.471  20.277  0.00  0.00    +0.000 HD
BRANCH  25  30
ATOM     29  C   UNL     1       4.383   1.074  18.542  0.00  0.00    +0.000 C 
ATOM     30  C   UNL     1       2.895   1.362  18.477  0.00  0.00    +0.000 C 
ENDBRANCH  25  30
ENDBRANCH  24  26
ENDBRANCH  23  24
ENDBRANCH   1  23
TORSDOF 7
ENDMDL
MODEL 7
REMARK VINA RESULT:      -7.6      3.260      5.626
REMARK  Name = 
REMARK  8 active torsions:
REMARK  status: ('A' for Active; 'I' for Inactive)
REMARK    1  A    between atoms: C_1  and  C_2
REMARK    2  A    between atoms: C_2  and  N_3
REMARK    3  A    between atoms: C_4  and  C_6
REMARK    4  A    between atoms: C_6  and  S_7
REMARK    5  A    between atoms: S_7  and  C_8
REMARK    6  A    between atoms: C_12  and  N_13
REMARK    7  A    between atoms: N_19  and  C_20
REMARK    8  A    between atoms: C_24  and  C_25
REMARK                            x       y       z     vdW  Elec       q    Type
REMARK                         _______ _______ _______ _____ _____    ______ ____
ROOT
ATOM      1  C   UNL     1       3.022   5.463  20.056  0.00  0.00    +0.000 A 
ATOM      2  N   UNL     1       4.012   4.649  19.767  0.00  0.00    +0.000 NA
ATOM      3  C   UNL     1       4.615   5.184  18.666  0.00  0.00    +0.000 A 
ATOM      4  C   UNL     1       5.733   4.699  17.965  0.00  0.00    +0.000 A 
ATOM      5  C   UNL     1       6.207   5.439  16.872  0.00  0.00    +0.000 A 
ATOM      6  C   UNL     1       5.595   6.636  16.487  0.00  0.00    +0.000 A 
ATOM      7  C   UNL     1       4.490   7.125  17.189  0.00  0.00    +0.000 A 
ATOM      8  C   UNL     1       3.990   6.365  18.267  0.00  0.00    +0.000 A 
ATOM      9  N   UNL     1       2.949   6.553  19.189  0.00  0.00    +0.000 N 
ENDROOT
BRANCH   9  10
ATOM     10  C   UNL     1       2.069   7.684  19.230  0.00  0.00    +0.000 A 
ATOM     11  C   UNL     1       1.891   8.487  18.094  0.00  0.00    +0.000 A 
ATOM     12  C   UNL     1       1.111   9.645  18.154  0.00  0.00    +0.000 A 
ATOM     13  C   UNL     1       0.472   9.998  19.340  0.00  0.00    +0.000 A 
ATOM     14  C   UNL     1       0.610   9.196  20.480  0.00  0.00    +0.000 A 
ATOM     15  C   UNL     1       1.416   8.043  20.416  0.00  0.00    +0.000 A 
BRANCH  14  16
ATOM     16  C   UNL     1      -0.077   9.556  21.776  0.00  0.00    +0.000 C 
ATOM     17  F   UNL     1      -0.827   8.544  22.294  0.00  0.00    +0.000 F 
ATOM     18  F   UNL     1       0.804   9.906  22.752  0.00  0.00    +0.000 F 
ATOM     19  F   UNL     1      -0.924  10.612  21.634  0.00  0.00    +0.000 F 
ENDBRANCH  14  16
ENDBRANCH   9  10
BRANCH   5  20
ATOM     20  N   UNL     1       7.384   4.964  16.132  0.00  0.00    +0.000 N 
ATOM     21  O   UNL     1       7.527   5.358  14.966  0.00  0.00    +0.000 OA
ATOM     22  O   UNL     1       8.164   4.201  16.718  0.00  0.00    +0.000 OA
ENDBRANCH   5  20
BRANCH   1  23
ATOM     23  S   UNL     1       1.835   5.062  21.266  0.00  0.00    +0.000 S 
BRANCH  23  24
ATOM     24  C   UNL     1       1.969   3.249  21.274  0.00  0.00    +0.000 C 
BRANCH  24  26
ATOM     25  N   UNL     1       2.705   2.178  19.205  0.00  0.00    +0.000 N 
ATOM     26  C   UNL     1       1.634   2.716  19.889  0.00  0.00    +0.000 C 
ATOM     27  O   UNL     1       0.498   2.777  19.423  0.00  0.00    +0.000 OA
ATOM     28  H   UNL     1       3.618   2.162  19.641  0.00  0.00    +0.000 HD
BRANCH  25  30
ATOM     29  C   UNL     1       2.749   2.734  16.808  0.00  0.00    +0.000 C 
ATOM     30  C   UNL     1       2.574   1.653  17.859  0.00  0.00    +0.000 C 
ENDBRANCH  25  30
ENDBRANCH  24  26
ENDBRANCH  23  24
ENDBRANCH   1  23
TORSDOF 7
ENDMDL
MODEL 8
REMARK VINA RESULT:      -7.5      4.051      7.350
REMARK  Name = 
REMARK  8 active torsions:
REMARK  status: ('A' for Active; 'I' for Inactive)
REMARK    1  A    between atoms: C_1  and  C_2
REMARK    2  A    between atoms: C_2  and  N_3
REMARK    3  A    between atoms: C_4  and  C_6
REMARK    4  A    between atoms: C_6  and  S_7
REMARK    5  A    between atoms: S_7  and  C_8
REMARK    6  A    between atoms: C_12  and  N_13
REMARK    7  A    between atoms: N_19  and  C_20
REMARK    8  A    between atoms: C_24  and  C_25
REMARK                            x       y       z     vdW  Elec       q    Type
REMARK                         _______ _______ _______ _____ _____    ______ ____
ROOT
ATOM      1  C   UNL     1       1.975   6.279  20.407  0.00  0.00    +0.000 A 
ATOM      2  N   UNL     1       1.189   7.241  20.835  0.00  0.00    +0.000 NA
ATOM      3  C   UNL     1       1.350   8.265  19.947  0.00  0.00    +0.000 A 
ATOM      4  C   UNL     1       0.724   9.524  19.949  0.00  0.00    +0.000 A 
ATOM      5  C   UNL     1       1.016  10.416  18.907  0.00  0.00    +0.000 A 
ATOM      6  C   UNL     1       1.899  10.066  17.881  0.00  0.00    +0.000 A 
ATOM      7  C   UNL     1       2.515   8.811  17.872  0.00  0.00    +0.000 A 
ATOM      8  C   UNL     1       2.250   7.926  18.937  0.00  0.00    +0.000 A 
ATOM      9  N   UNL     1       2.652   6.615  19.234  0.00  0.00    +0.000 N 
ENDROOT
BRANCH   9  10
ATOM     10  C   UNL     1       3.521   5.809  18.429  0.00  0.00    +0.000 A 
ATOM     11  C   UNL     1       2.993   4.838  17.567  0.00  0.00    +0.000 A 
ATOM     12  C   UNL     1       3.836   3.985  16.850  0.00  0.00    +0.000 A 
ATOM     13  C   UNL     1       5.218   4.111  16.962  0.00  0.00    +0.000 A 
ATOM     14  C   UNL     1       5.771   5.093  17.794  0.00  0.00    +0.000 A 
ATOM     15  C   UNL     1       4.913   5.934  18.528  0.00  0.00    +0.000 A 
BRANCH  14  16
ATOM     16  C   UNL     1       7.267   5.253  17.927  0.00  0.00    +0.000 C 
ATOM     17  F   UNL     1       7.757   6.346  17.280  0.00  0.00    +0.000 F 
ATOM     18  F   UNL     1       7.663   5.376  19.223  0.00  0.00    +0.000 F 
ATOM     19  F   UNL     1       7.945   4.185  17.424  0.00  0.00    +0.000 F 
ENDBRANCH  14  16
ENDBRANCH   9  10
BRANCH   5  20
ATOM     20  N   UNL     1       0.363  11.731  18.875  0.00  0.00    +0.000 N 
ATOM     21  O   UNL     1       1.067  12.716  18.611  0.00  0.00    +0.000 OA
ATOM     22  O   UNL     1      -0.852  11.778  19.113  0.00  0.00    +0.000 OA
ENDBRANCH   5  20
BRANCH   1  23
ATOM     23  S   UNL     1       2.262   4.846  21.355  0.00  0.00    +0.000 S 
BRANCH  23  24
ATOM     24  C   UNL     1       1.188   3.658  20.494  0.00  0.00    +0.000 C 
BRANCH  24  26
ATOM     25  N   UNL     1       3.366   2.570  20.286  0.00  0.00    +0.000 N 
ATOM     26  C   UNL     1       2.045   2.558  19.886  0.00  0.00    +0.000 C 
ATOM     27  O   UNL     1       1.588   1.737  19.093  0.00  0.00    +0.000 OA
ATOM     28  H   UNL     1       3.683   3.276  20.937  0.00  0.00    +0.000 HD
BRANCH  25  30
ATOM     29  C   UNL     1       5.303   1.165  20.858  0.00  0.00    +0.000 C 
ATOM     30  C   UNL     1       4.333   1.613  19.781  0.00  0.00    +0.000 C 
ENDBRANCH  25  30
ENDBRANCH  24  26
ENDBRANCH  23  24
ENDBRANCH   1  23
TORSDOF 7
ENDMDL
MODEL 9
REMARK VINA RESULT:      -7.4      5.116      7.826
REMARK  Name = 
REMARK  8 active torsions:
REMARK  status: ('A' for Active; 'I' for Inactive)
REMARK    1  A    between atoms: C_1  and  C_2
REMARK    2  A    between atoms: C_2  and  N_3
REMARK    3  A    between atoms: C_4  and  C_6
REMARK    4  A    between atoms: C_6  and  S_7
REMARK    5  A    between atoms: S_7  and  C_8
REMARK    6  A    between atoms: C_12  and  N_13
REMARK    7  A    between atoms: N_19  and  C_20
REMARK    8  A    between atoms: C_24  and  C_25
REMARK                            x       y       z     vdW  Elec       q    Type
REMARK                         _______ _______ _______ _____ _____    ______ ____
ROOT
ATOM      1  C   UNL     1       6.420   4.305  17.892  0.00  0.00    +0.000 A 
ATOM      2  N   UNL     1       5.715   4.118  18.985  0.00  0.00    +0.000 NA
ATOM      3  C   UNL     1       4.436   3.900  18.561  0.00  0.00    +0.000 A 
ATOM      4  C   UNL     1       3.295   3.638  19.340  0.00  0.00    +0.000 A 
ATOM      5  C   UNL     1       2.078   3.408  18.683  0.00  0.00    +0.000 A 
ATOM      6  C   UNL     1       1.994   3.427  17.287  0.00  0.00    +0.000 A 
ATOM      7  C   UNL     1       3.129   3.677  16.511  0.00  0.00    +0.000 A 
ATOM      8  C   UNL     1       4.346   3.943  17.170  0.00  0.00    +0.000 A 
ATOM      9  N   UNL     1       5.655   4.199  16.731  0.00  0.00    +0.000 N 
ENDROOT
BRANCH   9  10
ATOM     10  C   UNL     1       6.075   4.256  15.362  0.00  0.00    +0.000 A 
ATOM     11  C   UNL     1       7.247   4.939  15.007  0.00  0.00    +0.000 A 
ATOM     12  C   UNL     1       7.613   5.080  13.666  0.00  0.00    +0.000 A 
ATOM     13  C   UNL     1       6.830   4.513  12.664  0.00  0.00    +0.000 A 
ATOM     14  C   UNL     1       5.671   3.799  12.994  0.00  0.00    +0.000 A 
ATOM     15  C   UNL     1       5.299   3.681  14.347  0.00  0.00    +0.000 A 
BRANCH  14  16
ATOM     16  C   UNL     1       4.809   3.171  11.925  0.00  0.00    +0.000 C 
ATOM     17  F   UNL     1       3.519   2.975  12.312  0.00  0.00    +0.000 F 
ATOM     18  F   UNL     1       4.751   3.926  10.795  0.00  0.00    +0.000 F 
ATOM     19  F   UNL     1       5.273   1.950  11.541  0.00  0.00    +0.000 F 
ENDBRANCH  14  16
ENDBRANCH   9  10
BRANCH   5  20
ATOM     20  N   UNL     1       0.873   3.114  19.471  0.00  0.00    +0.000 N 
ATOM     21  O   UNL     1       0.758   3.671  20.572  0.00  0.00    +0.000 OA
ATOM     22  O   UNL     1       0.046   2.329  18.988  0.00  0.00    +0.000 OA
ENDBRANCH   5  20
BRANCH   1  23
ATOM     23  S   UNL     1       8.078   4.836  17.956  0.00  0.00    +0.000 S 
BRANCH  23  24
ATOM     24  C   UNL     1       7.917   6.294  19.030  0.00  0.00    +0.000 C 
BRANCH  24  26
ATOM     25  N   UNL     1       8.574   8.640  18.851  0.00  0.00    +0.000 N 
ATOM     26  C   UNL     1       8.043   7.553  18.187  0.00  0.00    +0.000 C 
ATOM     27  O   UNL     1       7.684   7.591  17.011  0.00  0.00    +0.000 OA
ATOM     28  H   UNL     1       8.845   8.547  19.821  0.00  0.00    +0.000 HD
BRANCH  25  30
ATOM     29  C   UNL     1       9.844  10.748  18.850  0.00  0.00    +0.000 C 
ATOM     30  C   UNL     1       8.736   9.932  18.210  0.00  0.00    +0.000 C 
ENDBRANCH  25  30
ENDBRANCH  24  26
ENDBRANCH  23  24
ENDBRANCH   1  23
TORSDOF 7
ENDMDL
