MODEL 1
REMARK VINA RESULT:      -6.4      0.000      0.000
REMARK  Name = 
REMARK  5 active torsions:
REMARK  status: ('A' for Active; 'I' for Inactive)
REMARK    1  A    between atoms: C_1  and  C_2
REMARK    2  A    between atoms: C_2  and  C_3
REMARK    3  A    between atoms: C_2  and  C_4
REMARK    4  A    between atoms: C_2  and  O_5
REMARK    5  A    between atoms: O_5  and  C_6
REMARK                            x       y       z     vdW  Elec       q    Type
REMARK                         _______ _______ _______ _____ _____    ______ ____
ROOT
ATOM      1  C   UNL     1       4.631  16.906  19.637  0.00  0.00    +0.000 C 
ATOM      2  O   UNL     1       3.979  17.931  19.902  0.00  0.00    +0.000 OA
ATOM      3  N   UNL     1       6.102  17.085  19.243  0.00  0.00    +0.000 N 
ATOM      4  C   UNL     1       6.557  15.775  19.010  0.00  0.00    +0.000 C 
ATOM      5  C   UNL     1       7.902  16.167  18.814  0.00  0.00    +0.000 C 
ATOM      6  C   UNL     1       9.199  15.791  18.811  0.00  0.00    +0.000 C 
ATOM      7  C   UNL     1       9.276  16.980  18.217  0.00  0.00    +0.000 C 
ATOM      8  C   UNL     1       7.613  18.116  18.884  0.00  0.00    +0.000 C 
ATOM      9  N   UNL     1      10.054  15.570  17.180  0.00  0.00    +0.000 N 
ATOM     10  C   UNL     1      10.655  14.070  17.746  0.00  0.00    +0.000 A 
ATOM     11  C   UNL     1      11.569  12.977  17.192  0.00  0.00    +0.000 A 
ATOM     12  C   UNL     1      11.736  11.618  17.872  0.00  0.00    +0.000 A 
ATOM     13  C   UNL     1      10.999  11.303  19.011  0.00  0.00    +0.000 A 
ATOM     14  C   UNL     1      10.149  12.297  19.494  0.00  0.00    +0.000 A 
ATOM     15  C   UNL     1       9.297  12.038  20.656  0.00  0.00    +0.000 A 
ATOM     16  O   UNL     1       9.317  10.965  21.246  0.00  0.00    +0.000 OA
ATOM     17  N   UNL     1       8.463  13.048  21.048  0.00  0.00    +0.000 N 
ATOM     18  N   UNL     1       8.392  14.262  20.536  0.00  0.00    +0.000 NA
ATOM     19  C   UNL     1       9.093  14.499  19.481  0.00  0.00    +0.000 A 
ATOM     20  C   UNL     1       9.992  13.580  18.885  0.00  0.00    +0.000 A 
ATOM     21  H   UNL     1      10.748  15.832  16.501  0.00  0.00    +0.000 HD
ATOM     22  H   UNL     1       7.842  12.860  21.821  0.00  0.00    +0.000 HD
ENDROOT
BRANCH   1  23
ATOM     23  O   UNL     1       3.916  15.681  19.751  0.00  0.00    +0.000 OA
BRANCH  23  25
ATOM     24  C   UNL     1       1.504  15.665  18.830  0.00  0.00    +0.000 C 
ATOM     25  C   UNL     1       2.970  15.209  18.582  0.00  0.00    +0.000 C 
ATOM     26  C   UNL     1       2.905  13.675  18.412  0.00  0.00    +0.000 C 
ATOM     27  C   UNL     1       3.378  15.827  17.232  0.00  0.00    +0.000 C 
ENDBRANCH  23  25
ENDBRANCH   1  23
TORSDOF 2
ENDMDL
MODEL 2
REMARK VINA RESULT:      -6.4      8.707     11.618
REMARK  Name = 
REMARK  5 active torsions:
REMARK  status: ('A' for Active; 'I' for Inactive)
REMARK    1  A    between atoms: C_1  and  C_2
REMARK    2  A    between atoms: C_2  and  C_3
REMARK    3  A    between atoms: C_2  and  C_4
REMARK    4  A    between atoms: C_2  and  O_5
REMARK    5  A    between atoms: O_5  and  C_6
REMARK                            x       y       z     vdW  Elec       q    Type
REMARK                         _______ _______ _______ _____ _____    ______ ____
ROOT
ATOM      1  C   UNL     1      -6.806  12.460  20.770  0.00  0.00    +0.000 C 
ATOM      2  O   UNL     1      -7.902  13.039  20.683  0.00  0.00    +0.000 OA
ATOM      3  N   UNL     1      -6.012  12.247  19.476  0.00  0.00    +0.000 N 
ATOM      4  C   UNL     1      -4.845  11.582  19.894  0.00  0.00    +0.000 C 
ATOM      5  C   UNL     1      -4.240  11.623  18.616  0.00  0.00    +0.000 C 
ATOM      6  C   UNL     1      -3.092  11.562  17.907  0.00  0.00    +0.000 C 
ATOM      7  C   UNL     1      -3.998  11.446  16.939  0.00  0.00    +0.000 C 
ATOM      8  C   UNL     1      -5.773  12.378  17.632  0.00  0.00    +0.000 C 
ATOM      9  N   UNL     1      -2.722  10.016  16.951  0.00  0.00    +0.000 N 
ATOM     10  C   UNL     1      -1.144  10.034  17.613  0.00  0.00    +0.000 A 
ATOM     11  C   UNL     1       0.114   9.177  17.469  0.00  0.00    +0.000 A 
ATOM     12  C   UNL     1       1.323   9.326  18.392  0.00  0.00    +0.000 A 
ATOM     13  C   UNL     1       1.295  10.226  19.454  0.00  0.00    +0.000 A 
ATOM     14  C   UNL     1       0.134  10.986  19.592  0.00  0.00    +0.000 A 
ATOM     15  C   UNL     1      -0.007  11.920  20.710  0.00  0.00    +0.000 A 
ATOM     16  O   UNL     1       0.883  12.081  21.535  0.00  0.00    +0.000 OA
ATOM     17  N   UNL     1      -1.190  12.601  20.800  0.00  0.00    +0.000 N 
ATOM     18  N   UNL     1      -2.196  12.562  19.947  0.00  0.00    +0.000 NA
ATOM     19  C   UNL     1      -2.118  11.710  18.984  0.00  0.00    +0.000 A 
ATOM     20  C   UNL     1      -1.000  10.876  18.730  0.00  0.00    +0.000 A 
ATOM     21  H   UNL     1      -2.583   9.522  16.086  0.00  0.00    +0.000 HD
ATOM     22  H   UNL     1      -1.310  13.215  21.592  0.00  0.00    +0.000 HD
ENDROOT
BRANCH   1  23
ATOM     23  O   UNL     1      -6.420  12.078  22.086  0.00  0.00    +0.000 OA
BRANCH  23  25
ATOM     24  C   UNL     1      -5.249  14.361  22.377  0.00  0.00    +0.000 C 
ATOM     25  C   UNL     1      -5.926  13.169  23.111  0.00  0.00    +0.000 C 
ATOM     26  C   UNL     1      -4.877  12.649  24.118  0.00  0.00    +0.000 C 
ATOM     27  C   UNL     1      -7.097  13.778  23.906  0.00  0.00    +0.000 C 
ENDBRANCH  23  25
ENDBRANCH   1  23
TORSDOF 2
ENDMDL
MODEL 3
REMARK VINA RESULT:      -6.3     10.079     13.520
REMARK  Name = 
REMARK  5 active torsions:
REMARK  status: ('A' for Active; 'I' for Inactive)
REMARK    1  A    between atoms: C_1  and  C_2
REMARK    2  A    between atoms: C_2  and  C_3
REMARK    3  A    between atoms: C_2  and  C_4
REMARK    4  A    between atoms: C_2  and  O_5
REMARK    5  A    between atoms: O_5  and  C_6
REMARK                            x       y       z     vdW  Elec       q    Type
REMARK                         _______ _______ _______ _____ _____    ______ ____
ROOT
ATOM      1  C   UNL     1      -1.236  11.591  18.713  0.00  0.00    +0.000 C 
ATOM      2  O   UNL     1      -0.141  11.057  18.467  0.00  0.00    +0.000 OA
ATOM      3  N   UNL     1      -1.617  11.782  20.186  0.00  0.00    +0.000 N 
ATOM      4  C   UNL     1      -2.880  12.396  20.138  0.00  0.00    +0.000 C 
ATOM      5  C   UNL     1      -2.953  12.593  21.536  0.00  0.00    +0.000 C 
ATOM      6  C   UNL     1      -3.512  13.285  22.553  0.00  0.00    +0.000 C 
ATOM      7  C   UNL     1      -2.926  12.289  23.213  0.00  0.00    +0.000 C 
ATOM      8  C   UNL     1      -1.309  11.617  22.017  0.00  0.00    +0.000 C 
ATOM      9  N   UNL     1      -4.798  12.445  23.594  0.00  0.00    +0.000 N 
ATOM     10  C   UNL     1      -5.782  13.836  23.425  0.00  0.00    +0.000 A 
ATOM     11  C   UNL     1      -7.151  14.278  23.943  0.00  0.00    +0.000 A 
ATOM     12  C   UNL     1      -7.871  15.519  23.416  0.00  0.00    +0.000 A 
ATOM     13  C   UNL     1      -7.318  16.270  22.381  0.00  0.00    +0.000 A 
ATOM     14  C   UNL     1      -6.081  15.845  21.898  0.00  0.00    +0.000 A 
ATOM     15  C   UNL     1      -5.448  16.542  20.778  0.00  0.00    +0.000 A 
ATOM     16  O   UNL     1      -5.963  17.519  20.249  0.00  0.00    +0.000 OA
ATOM     17  N   UNL     1      -4.254  16.043  20.336  0.00  0.00    +0.000 N 
ATOM     18  N   UNL     1      -3.571  15.040  20.855  0.00  0.00    +0.000 NA
ATOM     19  C   UNL     1      -4.131  14.378  21.808  0.00  0.00    +0.000 A 
ATOM     20  C   UNL     1      -5.383  14.699  22.390  0.00  0.00    +0.000 A 
ATOM     21  H   UNL     1      -5.119  12.064  24.466  0.00  0.00    +0.000 HD
ATOM     22  H   UNL     1      -3.833  16.492  19.536  0.00  0.00    +0.000 HD
ENDROOT
BRANCH   1  23
ATOM     23  O   UNL     1      -2.000  11.972  17.573  0.00  0.00    +0.000 OA
BRANCH  23  25
ATOM     24  C   UNL     1      -4.476  11.545  16.979  0.00  0.00    +0.000 C 
ATOM     25  C   UNL     1      -3.034  10.963  16.944  0.00  0.00    +0.000 C 
ATOM     26  C   UNL     1      -3.113   9.609  17.682  0.00  0.00    +0.000 C 
ATOM     27  C   UNL     1      -2.731  10.685  15.459  0.00  0.00    +0.000 C 
ENDBRANCH  23  25
ENDBRANCH   1  23
TORSDOF 2
ENDMDL
MODEL 4
REMARK VINA RESULT:      -6.3      4.181      4.946
REMARK  Name = 
REMARK  5 active torsions:
REMARK  status: ('A' for Active; 'I' for Inactive)
REMARK    1  A    between atoms: C_1  and  C_2
REMARK    2  A    between atoms: C_2  and  C_3
REMARK    3  A    between atoms: C_2  and  C_4
REMARK    4  A    between atoms: C_2  and  O_5
REMARK    5  A    between atoms: O_5  and  C_6
REMARK                            x       y       z     vdW  Elec       q    Type
REMARK                         _______ _______ _______ _____ _____    ______ ____
ROOT
ATOM      1  C   UNL     1       7.379  14.970  25.198  0.00  0.00    +0.000 C 
ATOM      2  O   UNL     1       7.338  15.403  26.362  0.00  0.00    +0.000 OA
ATOM      3  N   UNL     1       8.570  15.390  24.327  0.00  0.00    +0.000 N 
ATOM      4  C   UNL     1       8.337  14.754  23.096  0.00  0.00    +0.000 C 
ATOM      5  C   UNL     1       9.574  15.151  22.538  0.00  0.00    +0.000 C 
ATOM      6  C   UNL     1      10.518  14.918  21.601  0.00  0.00    +0.000 C 
ATOM      7  C   UNL     1      10.879  16.124  22.033  0.00  0.00    +0.000 C 
ATOM      8  C   UNL     1      10.160  16.313  24.020  0.00  0.00    +0.000 C 
ATOM      9  N   UNL     1      10.612  16.054  20.137  0.00  0.00    +0.000 N 
ATOM     10  C   UNL     1      10.687  14.675  19.125  0.00  0.00    +0.000 A 
ATOM     11  C   UNL     1      10.827  14.426  17.623  0.00  0.00    +0.000 A 
ATOM     12  C   UNL     1      10.630  13.046  16.995  0.00  0.00    +0.000 A 
ATOM     13  C   UNL     1      10.251  11.960  17.780  0.00  0.00    +0.000 A 
ATOM     14  C   UNL     1      10.102  12.203  19.144  0.00  0.00    +0.000 A 
ATOM     15  C   UNL     1       9.657  11.134  20.039  0.00  0.00    +0.000 A 
ATOM     16  O   UNL     1       9.424  10.003  19.631  0.00  0.00    +0.000 OA
ATOM     17  N   UNL     1       9.497  11.459  21.358  0.00  0.00    +0.000 N 
ATOM     18  N   UNL     1       9.770  12.617  21.929  0.00  0.00    +0.000 NA
ATOM     19  C   UNL     1      10.114  13.588  21.156  0.00  0.00    +0.000 A 
ATOM     20  C   UNL     1      10.299  13.479  19.755  0.00  0.00    +0.000 A 
ATOM     21  H   UNL     1      11.084  16.748  19.584  0.00  0.00    +0.000 HD
ATOM     22  H   UNL     1       9.149  10.738  21.973  0.00  0.00    +0.000 HD
ENDROOT
BRANCH   1  23
ATOM     23  O   UNL     1       6.303  14.116  24.825  0.00  0.00    +0.000 OA
BRANCH  23  25
ATOM     24  C   UNL     1       6.056  11.716  23.906  0.00  0.00    +0.000 C 
ATOM     25  C   UNL     1       6.364  12.578  25.163  0.00  0.00    +0.000 C 
ATOM     26  C   UNL     1       5.343  12.134  26.233  0.00  0.00    +0.000 C 
ATOM     27  C   UNL     1       7.768  12.151  25.630  0.00  0.00    +0.000 C 
ENDBRANCH  23  25
ENDBRANCH   1  23
TORSDOF 2
ENDMDL
MODEL 5
REMARK VINA RESULT:      -6.2      8.483     13.056
REMARK  Name = 
REMARK  5 active torsions:
REMARK  status: ('A' for Active; 'I' for Inactive)
REMARK    1  A    between atoms: C_1  and  C_2
REMARK    2  A    between atoms: C_2  and  C_3
REMARK    3  A    between atoms: C_2  and  C_4
REMARK    4  A    between atoms: C_2  and  O_5
REMARK    5  A    between atoms: O_5  and  C_6
REMARK                            x       y       z     vdW  Elec       q    Type
REMARK                         _______ _______ _______ _____ _____    ______ ____
ROOT
ATOM      1  C   UNL     1       0.832  11.835  21.036  0.00  0.00    +0.000 C 
ATOM      2  O   UNL     1       2.014  12.183  20.874  0.00  0.00    +0.000 OA
ATOM      3  N   UNL     1      -0.081  12.776  21.831  0.00  0.00    +0.000 N 
ATOM      4  C   UNL     1      -1.325  12.121  21.842  0.00  0.00    +0.000 C 
ATOM      5  C   UNL     1      -2.000  13.191  22.471  0.00  0.00    +0.000 C 
ATOM      6  C   UNL     1      -3.185  13.791  22.718  0.00  0.00    +0.000 C 
ATOM      7  C   UNL     1      -2.395  14.418  23.586  0.00  0.00    +0.000 C 
ATOM      8  C   UNL     1      -0.422  14.323  22.814  0.00  0.00    +0.000 C 
ATOM      9  N   UNL     1      -3.931  13.619  24.407  0.00  0.00    +0.000 N 
ATOM     10  C   UNL     1      -5.420  13.219  23.663  0.00  0.00    +0.000 A 
ATOM     11  C   UNL     1      -6.833  12.893  24.147  0.00  0.00    +0.000 A 
ATOM     12  C   UNL     1      -7.917  12.343  23.219  0.00  0.00    +0.000 A 
ATOM     13  C   UNL     1      -7.628  12.059  21.886  0.00  0.00    +0.000 A 
ATOM     14  C   UNL     1      -6.329  12.337  21.461  0.00  0.00    +0.000 A 
ATOM     15  C   UNL     1      -5.920  12.023  20.091  0.00  0.00    +0.000 A 
ATOM     16  O   UNL     1      -6.696  11.534  19.280  0.00  0.00    +0.000 OA
ATOM     17  N   UNL     1      -4.620  12.288  19.759  0.00  0.00    +0.000 N 
ATOM     18  N   UNL     1      -3.708  12.865  20.519  0.00  0.00    +0.000 NA
ATOM     19  C   UNL     1      -4.028  13.103  21.744  0.00  0.00    +0.000 A 
ATOM     20  C   UNL     1      -5.307  12.868  22.306  0.00  0.00    +0.000 A 
ATOM     21  H   UNL     1      -4.231  14.004  25.286  0.00  0.00    +0.000 HD
ATOM     22  H   UNL     1      -4.319  12.034  18.829  0.00  0.00    +0.000 HD
ENDROOT
BRANCH   1  23
ATOM     23  O   UNL     1       0.474  10.592  20.440  0.00  0.00    +0.000 OA
BRANCH  23  25
ATOM     24  C   UNL     1      -0.611   8.524  21.540  0.00  0.00    +0.000 C 
ATOM     25  C   UNL     1       0.728   9.244  21.216  0.00  0.00    +0.000 C 
ATOM     26  C   UNL     1       1.440   9.430  22.574  0.00  0.00    +0.000 C 
ATOM     27  C   UNL     1       1.547   8.247  20.375  0.00  0.00    +0.000 C 
ENDBRANCH  23  25
ENDBRANCH   1  23
TORSDOF 2
ENDMDL
MODEL 6
REMARK VINA RESULT:      -6.2      8.334     12.905
REMARK  Name = 
REMARK  5 active torsions:
REMARK  status: ('A' for Active; 'I' for Inactive)
REMARK    1  A    between atoms: C_1  and  C_2
REMARK    2  A    between atoms: C_2  and  C_3
REMARK    3  A    between atoms: C_2  and  C_4
REMARK    4  A    between atoms: C_2  and  O_5
REMARK    5  A    between atoms: O_5  and  C_6
REMARK                            x       y       z     vdW  Elec       q    Type
REMARK                         _______ _______ _______ _____ _____    ______ ____
ROOT
ATOM      1  C   UNL     1       0.831  11.970  21.056  0.00  0.00    +0.000 C 
ATOM      2  O   UNL     1       2.008  12.341  20.903  0.00  0.00    +0.000 OA
ATOM      3  N   UNL     1      -0.093  12.868  21.887  0.00  0.00    +0.000 N 
ATOM      4  C   UNL     1      -1.327  12.195  21.878  0.00  0.00    +0.000 C 
ATOM      5  C   UNL     1      -2.016  13.233  22.548  0.00  0.00    +0.000 C 
ATOM      6  C   UNL     1      -3.208  13.806  22.819  0.00  0.00    +0.000 C 
ATOM      7  C   UNL     1      -2.424  14.412  23.708  0.00  0.00    +0.000 C 
ATOM      8  C   UNL     1      -0.453  14.373  22.927  0.00  0.00    +0.000 C 
ATOM      9  N   UNL     1      -3.946  13.562  24.504  0.00  0.00    +0.000 N 
ATOM     10  C   UNL     1      -5.431  13.167  23.750  0.00  0.00    +0.000 A 
ATOM     11  C   UNL     1      -6.838  12.804  24.226  0.00  0.00    +0.000 A 
ATOM     12  C   UNL     1      -7.916  12.272  23.283  0.00  0.00    +0.000 A 
ATOM     13  C   UNL     1      -7.628  12.041  21.940  0.00  0.00    +0.000 A 
ATOM     14  C   UNL     1      -6.335  12.352  21.520  0.00  0.00    +0.000 A 
ATOM     15  C   UNL     1      -5.926  12.094  20.139  0.00  0.00    +0.000 A 
ATOM     16  O   UNL     1      -6.698  11.624  19.313  0.00  0.00    +0.000 OA
ATOM     17  N   UNL     1      -4.631  12.390  19.813  0.00  0.00    +0.000 N 
ATOM     18  N   UNL     1      -3.725  12.952  20.591  0.00  0.00    +0.000 NA
ATOM     19  C   UNL     1      -4.044  13.141  21.824  0.00  0.00    +0.000 A 
ATOM     20  C   UNL     1      -5.318  12.867  22.381  0.00  0.00    +0.000 A 
ATOM     21  H   UNL     1      -4.248  13.910  25.397  0.00  0.00    +0.000 HD
ATOM     22  H   UNL     1      -4.331  12.174  18.874  0.00  0.00    +0.000 HD
ENDROOT
BRANCH   1  23
ATOM     23  O   UNL     1       0.489  10.745  20.417  0.00  0.00    +0.000 OA
BRANCH  23  25
ATOM     24  C   UNL     1      -0.017  12.182  18.332  0.00  0.00    +0.000 C 
ATOM     25  C   UNL     1       0.094  10.735  18.891  0.00  0.00    +0.000 C 
ATOM     26  C   UNL     1      -1.271  10.073  18.604  0.00  0.00    +0.000 C 
ATOM     27  C   UNL     1       1.161  10.034  18.029  0.00  0.00    +0.000 C 
ENDBRANCH  23  25
ENDBRANCH   1  23
TORSDOF 2
ENDMDL
MODEL 7
REMARK VINA RESULT:      -6.2      6.846     10.689
REMARK  Name = 
REMARK  5 active torsions:
REMARK  status: ('A' for Active; 'I' for Inactive)
REMARK    1  A    between atoms: C_1  and  C_2
REMARK    2  A    between atoms: C_2  and  C_3
REMARK    3  A    between atoms: C_2  and  C_4
REMARK    4  A    between atoms: C_2  and  O_5
REMARK    5  A    between atoms: O_5  and  C_6
REMARK                            x       y       z     vdW  Elec       q    Type
REMARK                         _______ _______ _______ _____ _____    ______ ____
ROOT
ATOM      1  C   UNL     1       1.197  14.616  21.493  0.00  0.00    +0.000 C 
ATOM      2  O   UNL     1       2.008  14.800  22.417  0.00  0.00    +0.000 OA
ATOM      3  N   UNL     1       1.029  13.183  20.974  0.00  0.00    +0.000 N 
ATOM      4  C   UNL     1       0.066  13.297  19.956  0.00  0.00    +0.000 C 
ATOM      5  C   UNL     1      -0.023  11.902  19.741  0.00  0.00    +0.000 C 
ATOM      6  C   UNL     1      -0.760  10.878  19.259  0.00  0.00    +0.000 C 
ATOM      7  C   UNL     1       0.418  10.284  19.438  0.00  0.00    +0.000 C 
ATOM      8  C   UNL     1       1.434  11.363  20.955  0.00  0.00    +0.000 C 
ATOM      9  N   UNL     1      -0.253  10.101  17.652  0.00  0.00    +0.000 N 
ATOM     10  C   UNL     1      -1.881  10.206  17.136  0.00  0.00    +0.000 A 
ATOM     11  C   UNL     1      -2.663   9.796  15.888  0.00  0.00    +0.000 A 
ATOM     12  C   UNL     1      -4.102  10.243  15.631  0.00  0.00    +0.000 A 
ATOM     13  C   UNL     1      -4.741  11.107  16.517  0.00  0.00    +0.000 A 
ATOM     14  C   UNL     1      -4.012  11.496  17.639  0.00  0.00    +0.000 A 
ATOM     15  C   UNL     1      -4.583  12.442  18.599  0.00  0.00    +0.000 A 
ATOM     16  O   UNL     1      -5.710  12.901  18.462  0.00  0.00    +0.000 OA
ATOM     17  N   UNL     1      -3.792  12.805  19.654  0.00  0.00    +0.000 N 
ATOM     18  N   UNL     1      -2.592  12.340  19.944  0.00  0.00    +0.000 NA
ATOM     19  C   UNL     1      -2.046  11.546  19.089  0.00  0.00    +0.000 A 
ATOM     20  C   UNL     1      -2.673  11.075  17.908  0.00  0.00    +0.000 A 
ATOM     21  H   UNL     1       0.090   9.324  17.114  0.00  0.00    +0.000 HD
ATOM     22  H   UNL     1      -4.164  13.491  20.295  0.00  0.00    +0.000 HD
ENDROOT
BRANCH   1  23
ATOM     23  O   UNL     1       0.511  15.778  21.042  0.00  0.00    +0.000 OA
BRANCH  23  25
ATOM     24  C   UNL     1       1.566  18.068  20.481  0.00  0.00    +0.000 C 
ATOM     25  C   UNL     1       1.146  16.681  19.916  0.00  0.00    +0.000 C 
ATOM     26  C   UNL     1       0.188  16.982  18.744  0.00  0.00    +0.000 C 
ATOM     27  C   UNL     1       2.432  16.056  19.341  0.00  0.00    +0.000 C 
ENDBRANCH  23  25
ENDBRANCH   1  23
TORSDOF 2
ENDMDL
MODEL 8
REMARK VINA RESULT:      -6.2      6.395      9.472
REMARK  Name = 
REMARK  5 active torsions:
REMARK  status: ('A' for Active; 'I' for Inactive)
REMARK    1  A    between atoms: C_1  and  C_2
REMARK    2  A    between atoms: C_2  and  C_3
REMARK    3  A    between atoms: C_2  and  C_4
REMARK    4  A    between atoms: C_2  and  O_5
REMARK    5  A    between atoms: O_5  and  C_6
REMARK                            x       y       z     vdW  Elec       q    Type
REMARK                         _______ _______ _______ _____ _____    ______ ____
ROOT
ATOM      1  C   UNL     1      -0.245  11.767  22.236  0.00  0.00    +0.000 C 
ATOM      2  O   UNL     1      -0.549  11.141  23.266  0.00  0.00    +0.000 OA
ATOM      3  N   UNL     1      -0.869  13.154  22.039  0.00  0.00    +0.000 N 
ATOM      4  C   UNL     1      -0.344  13.596  20.813  0.00  0.00    +0.000 C 
ATOM      5  C   UNL     1      -0.919  14.885  20.913  0.00  0.00    +0.000 C 
ATOM      6  C   UNL     1      -0.880  16.174  20.512  0.00  0.00    +0.000 C 
ATOM      7  C   UNL     1      -2.065  16.129  21.117  0.00  0.00    +0.000 C 
ATOM      8  C   UNL     1      -1.974  14.566  22.547  0.00  0.00    +0.000 C 
ATOM      9  N   UNL     1      -2.165  16.768  19.312  0.00  0.00    +0.000 N 
ATOM     10  C   UNL     1      -0.912  17.483  18.391  0.00  0.00    +0.000 A 
ATOM     11  C   UNL     1      -0.834  18.324  17.116  0.00  0.00    +0.000 A 
ATOM     12  C   UNL     1       0.485  18.626  16.406  0.00  0.00    +0.000 A 
ATOM     13  C   UNL     1       1.679  18.083  16.875  0.00  0.00    +0.000 A 
ATOM     14  C   UNL     1       1.595  17.298  18.023  0.00  0.00    +0.000 A 
ATOM     15  C   UNL     1       2.790  16.644  18.559  0.00  0.00    +0.000 A 
ATOM     16  O   UNL     1       3.890  16.780  18.038  0.00  0.00    +0.000 OA
ATOM     17  N   UNL     1       2.621  15.859  19.666  0.00  0.00    +0.000 N 
ATOM     18  N   UNL     1       1.507  15.681  20.350  0.00  0.00    +0.000 NA
ATOM     19  C   UNL     1       0.431  16.203  19.870  0.00  0.00    +0.000 A 
ATOM     20  C   UNL     1       0.375  17.018  18.713  0.00  0.00    +0.000 A 
ATOM     21  H   UNL     1      -2.956  17.340  19.074  0.00  0.00    +0.000 HD
ATOM     22  H   UNL     1       3.433  15.371  20.014  0.00  0.00    +0.000 HD
ENDROOT
BRANCH   1  23
ATOM     23  O   UNL     1       0.669  11.106  21.367  0.00  0.00    +0.000 OA
BRANCH  23  25
ATOM     24  C   UNL     1       1.283   9.488  19.451  0.00  0.00    +0.000 C 
ATOM     25  C   UNL     1       0.168   9.936  20.438  0.00  0.00    +0.000 C 
ATOM     26  C   UNL     1      -1.041  10.315  19.556  0.00  0.00    +0.000 C 
ATOM     27  C   UNL     1      -0.202   8.680  21.250  0.00  0.00    +0.000 C 
ENDBRANCH  23  25
ENDBRANCH   1  23
TORSDOF 2
ENDMDL
MODEL 9
REMARK VINA RESULT:      -6.2      4.984      8.616
REMARK  Name = 
REMARK  5 active torsions:
REMARK  status: ('A' for Active; 'I' for Inactive)
REMARK    1  A    between atoms: C_1  and  C_2
REMARK    2  A    between atoms: C_2  and  C_3
REMARK    3  A    between atoms: C_2  and  C_4
REMARK    4  A    between atoms: C_2  and  O_5
REMARK    5  A    between atoms: O_5  and  C_6
REMARK                            x       y       z     vdW  Elec       q    Type
REMARK                         _______ _______ _______ _____ _____    ______ ____
ROOT
ATOM      1  C   UNL     1       2.487  16.507  18.144  0.00  0.00    +0.000 C 
ATOM      2  O   UNL     1       2.456  17.579  17.515  0.00  0.00    +0.000 OA
ATOM      3  N   UNL     1       1.189  16.042  18.816  0.00  0.00    +0.000 N 
ATOM      4  C   UNL     1       1.537  14.827  19.432  0.00  0.00    +0.000 C 
ATOM      5  C   UNL     1       0.215  14.535  19.840  0.00  0.00    +0.000 C 
ATOM      6  C   UNL     1      -0.666  13.586  20.223  0.00  0.00    +0.000 C 
ATOM      7  C   UNL     1      -1.330  14.695  20.539  0.00  0.00    +0.000 C 
ATOM      8  C   UNL     1      -0.607  16.236  19.274  0.00  0.00    +0.000 C 
ATOM      9  N   UNL     1      -1.137  13.487  22.015  0.00  0.00    +0.000 N 
ATOM     10  C   UNL     1      -0.867  11.798  21.949  0.00  0.00    +0.000 A 
ATOM     11  C   UNL     1      -0.997  10.630  22.928  0.00  0.00    +0.000 A 
ATOM     12  C   UNL     1      -0.450   9.236  22.624  0.00  0.00    +0.000 A 
ATOM     13  C   UNL     1       0.253   8.994  21.445  0.00  0.00    +0.000 A 
ATOM     14  C   UNL     1       0.387  10.072  20.571  0.00  0.00    +0.000 A 
ATOM     15  C   UNL     1       1.152   9.925  19.332  0.00  0.00    +0.000 A 
ATOM     16  O   UNL     1       1.674   8.864  19.016  0.00  0.00    +0.000 OA
ATOM     17  N   UNL     1       1.272  11.037  18.545  0.00  0.00    +0.000 N 
ATOM     18  N   UNL     1       0.711  12.215  18.744  0.00  0.00    +0.000 NA
ATOM     19  C   UNL     1       0.075  12.384  19.851  0.00  0.00    +0.000 A 
ATOM     20  C   UNL     1      -0.133  11.378  20.827  0.00  0.00    +0.000 A 
ATOM     21  H   UNL     1      -1.808  13.566  22.759  0.00  0.00    +0.000 HD
ATOM     22  H   UNL     1       1.835  10.954  17.711  0.00  0.00    +0.000 HD
ENDROOT
BRANCH   1  23
ATOM     23  O   UNL     1       3.742  15.836  18.144  0.00  0.00    +0.000 OA
BRANCH  23  25
ATOM     24  C   UNL     1       4.284  17.240  20.242  0.00  0.00    +0.000 C 
ATOM     25  C   UNL     1       4.830  16.200  19.224  0.00  0.00    +0.000 C 
ATOM     26  C   UNL     1       6.110  16.829  18.632  0.00  0.00    +0.000 C 
ATOM     27  C   UNL     1       5.239  14.971  20.059  0.00  0.00    +0.000 C 
ENDBRANCH  23  25
ENDBRANCH   1  23
TORSDOF 2
ENDMDL
