MODEL 1
REMARK VINA RESULT:      -7.7      0.000      0.000
REMARK  Name = 
REMARK  6 active torsions:
REMARK  status: ('A' for Active; 'I' for Inactive)
REMARK    1  A    between atoms: C_1  and  O_2
REMARK    2  A    between atoms: O_2  and  C_3
REMARK    3  A    between atoms: C_7  and  N_8
REMARK    4  A    between atoms: N_8  and  C_9
REMARK    5  A    between atoms: C_9  and  N_11
REMARK    6  A    between atoms: N_11  and  N_12
REMARK                            x       y       z     vdW  Elec       q    Type
REMARK                         _______ _______ _______ _____ _____    ______ ____
ROOT
ATOM      1  N   UNL     1       2.642   6.517  18.253  0.00  0.00    +0.000 N 
ATOM      2  H   UNL     1       2.239   7.056  17.484  0.00  0.00    +0.000 HD
ENDROOT
BRANCH   1   3
ATOM      3  N   UNL     1       2.403   7.000  19.522  0.00  0.00    +0.000 NA
ATOM      4  C   UNL     1       1.841   8.175  19.508  0.00  0.00    +0.000 C 
ATOM      5  C   UNL     1       1.800   9.161  18.323  0.00  0.00    +0.000 C 
ATOM      6  O   UNL     1       2.069   8.903  17.165  0.00  0.00    +0.000 OA
ATOM      7  N   UNL     1       1.322  10.337  18.832  0.00  0.00    +0.000 N 
ATOM      8  C   UNL     1       0.798  10.137  20.107  0.00  0.00    +0.000 A 
ATOM      9  C   UNL     1      -0.057  10.981  20.794  0.00  0.00    +0.000 A 
ATOM     10  I   UNL     1      -0.659  12.809  20.013  0.00  0.00    +0.000 I 
ATOM     11  C   UNL     1      -0.606  10.517  21.992  0.00  0.00    +0.000 A 
ATOM     12  C   UNL     1      -0.268   9.240  22.488  0.00  0.00    +0.000 A 
ATOM     13  C   UNL     1       0.607   8.395  21.788  0.00  0.00    +0.000 A 
ATOM     14  C   UNL     1       1.120   8.864  20.592  0.00  0.00    +0.000 A 
ATOM     15  H   UNL     1       1.169  11.158  18.263  0.00  0.00    +0.000 HD
ENDBRANCH   1   3
BRANCH   1  16
ATOM     16  C   UNL     1       2.916   5.205  17.926  0.00  0.00    +0.000 C 
ATOM     17  S   UNL     1       1.634   4.142  18.068  0.00  0.00    +0.000 S 
BRANCH  16  18
ATOM     18  N   UNL     1       4.179   5.015  17.421  0.00  0.00    +0.000 N 
ATOM     19  H   UNL     1       4.202   4.227  16.783  0.00  0.00    +0.000 HD
BRANCH  18  24
ATOM     20  C   UNL     1       7.216   7.268  17.615  0.00  0.00    +0.000 A 
ATOM     21  C   UNL     1       7.888   6.644  18.665  0.00  0.00    +0.000 A 
ATOM     22  C   UNL     1       7.349   5.510  19.265  0.00  0.00    +0.000 A 
ATOM     23  C   UNL     1       6.133   4.992  18.810  0.00  0.00    +0.000 A 
ATOM     24  C   UNL     1       5.435   5.595  17.755  0.00  0.00    +0.000 A 
ATOM     25  C   UNL     1       5.993   6.744  17.171  0.00  0.00    +0.000 A 
BRANCH  20  27
ATOM     26  C   UNL     1       8.376   9.304  18.062  0.00  0.00    +0.000 C 
ATOM     27  O   UNL     1       7.855   8.372  17.122  0.00  0.00    +0.000 OA
ENDBRANCH  20  27
ENDBRANCH  18  24
ENDBRANCH  16  18
ENDBRANCH   1  16
TORSDOF 5
ENDMDL
MODEL 2
REMARK VINA RESULT:      -7.5      1.297      1.647
REMARK  Name = 
REMARK  6 active torsions:
REMARK  status: ('A' for Active; 'I' for Inactive)
REMARK    1  A    between atoms: C_1  and  O_2
REMARK    2  A    between atoms: O_2  and  C_3
REMARK    3  A    between atoms: C_7  and  N_8
REMARK    4  A    between atoms: N_8  and  C_9
REMARK    5  A    between atoms: C_9  and  N_11
REMARK    6  A    between atoms: N_11  and  N_12
REMARK                            x       y       z     vdW  Elec       q    Type
REMARK                         _______ _______ _______ _____ _____    ______ ____
ROOT
ATOM      1  N   UNL     1       2.410   6.726  18.907  0.00  0.00    +0.000 N 
ATOM      2  H   UNL     1       1.909   7.057  18.079  0.00  0.00    +0.000 HD
ENDROOT
BRANCH   1   3
ATOM      3  N   UNL     1       2.156   7.403  20.080  0.00  0.00    +0.000 NA
ATOM      4  C   UNL     1       1.608   8.567  19.873  0.00  0.00    +0.000 C 
ATOM      5  C   UNL     1       1.598   9.356  18.549  0.00  0.00    +0.000 C 
ATOM      6  O   UNL     1       1.882   8.919  17.450  0.00  0.00    +0.000 OA
ATOM      7  N   UNL     1       1.126  10.601  18.860  0.00  0.00    +0.000 N 
ATOM      8  C   UNL     1       0.579  10.608  20.142  0.00  0.00    +0.000 A 
ATOM      9  C   UNL     1      -0.277  11.556  20.674  0.00  0.00    +0.000 A 
ATOM     10  I   UNL     1      -0.845  13.245  19.607  0.00  0.00    +0.000 I 
ATOM     11  C   UNL     1      -0.850  11.289  21.919  0.00  0.00    +0.000 A 
ATOM     12  C   UNL     1      -0.535  10.102  22.614  0.00  0.00    +0.000 A 
ATOM     13  C   UNL     1       0.340   9.151  22.069  0.00  0.00    +0.000 A 
ATOM     14  C   UNL     1       0.878   9.422  20.825  0.00  0.00    +0.000 A 
ATOM     15  H   UNL     1       0.991  11.326  18.168  0.00  0.00    +0.000 HD
ENDBRANCH   1   3
BRANCH   1  16
ATOM     16  C   UNL     1       2.845   5.422  18.803  0.00  0.00    +0.000 C 
ATOM     17  S   UNL     1       2.663   4.488  20.178  0.00  0.00    +0.000 S 
BRANCH  16  18
ATOM     18  N   UNL     1       3.253   5.075  17.539  0.00  0.00    +0.000 N 
ATOM     19  H   UNL     1       2.513   4.598  17.035  0.00  0.00    +0.000 HD
BRANCH  18  24
ATOM     20  C   UNL     1       6.759   6.012  16.456  0.00  0.00    +0.000 A 
ATOM     21  C   UNL     1       7.037   4.918  15.639  0.00  0.00    +0.000 A 
ATOM     22  C   UNL     1       6.082   3.925  15.450  0.00  0.00    +0.000 A 
ATOM     23  C   UNL     1       4.838   4.025  16.078  0.00  0.00    +0.000 A 
ATOM     24  C   UNL     1       4.527   5.113  16.904  0.00  0.00    +0.000 A 
ATOM     25  C   UNL     1       5.509   6.100  17.088  0.00  0.00    +0.000 A 
BRANCH  20  27
ATOM     26  C   UNL     1       7.723   7.866  17.607  0.00  0.00    +0.000 C 
ATOM     27  O   UNL     1       7.786   6.910  16.556  0.00  0.00    +0.000 OA
ENDBRANCH  20  27
ENDBRANCH  18  24
ENDBRANCH  16  18
ENDBRANCH   1  16
TORSDOF 5
ENDMDL
MODEL 3
REMARK VINA RESULT:      -7.4      1.497      1.817
REMARK  Name = 
REMARK  6 active torsions:
REMARK  status: ('A' for Active; 'I' for Inactive)
REMARK    1  A    between atoms: C_1  and  O_2
REMARK    2  A    between atoms: O_2  and  C_3
REMARK    3  A    between atoms: C_7  and  N_8
REMARK    4  A    between atoms: N_8  and  C_9
REMARK    5  A    between atoms: C_9  and  N_11
REMARK    6  A    between atoms: N_11  and  N_12
REMARK                            x       y       z     vdW  Elec       q    Type
REMARK                         _______ _______ _______ _____ _____    ______ ____
ROOT
ATOM      1  N   UNL     1       2.191   6.439  19.585  0.00  0.00    +0.000 N 
ATOM      2  H   UNL     1       1.651   6.661  18.746  0.00  0.00    +0.000 HD
ENDROOT
BRANCH   1   3
ATOM      3  N   UNL     1       1.940   7.221  20.692  0.00  0.00    +0.000 NA
ATOM      4  C   UNL     1       1.453   8.387  20.376  0.00  0.00    +0.000 C 
ATOM      5  C   UNL     1       1.514   9.064  18.992  0.00  0.00    +0.000 C 
ATOM      6  O   UNL     1       1.805   8.525  17.941  0.00  0.00    +0.000 OA
ATOM      7  N   UNL     1       1.094  10.351  19.187  0.00  0.00    +0.000 N 
ATOM      8  C   UNL     1       0.517  10.488  20.447  0.00  0.00    +0.000 A 
ATOM      9  C   UNL     1      -0.307  11.515  20.875  0.00  0.00    +0.000 A 
ATOM     10  I   UNL     1      -0.767  13.134  19.659  0.00  0.00    +0.000 I 
ATOM     11  C   UNL     1      -0.923  11.378  22.121  0.00  0.00    +0.000 A 
ATOM     12  C   UNL     1      -0.682  10.240  22.919  0.00  0.00    +0.000 A 
ATOM     13  C   UNL     1       0.160   9.208  22.480  0.00  0.00    +0.000 A 
ATOM     14  C   UNL     1       0.741   9.351  21.233  0.00  0.00    +0.000 A 
ATOM     15  H   UNL     1       1.011  11.021  18.434  0.00  0.00    +0.000 HD
ENDBRANCH   1   3
BRANCH   1  16
ATOM     16  C   UNL     1       2.684   5.151  19.601  0.00  0.00    +0.000 C 
ATOM     17  S   UNL     1       2.148   4.186  20.856  0.00  0.00    +0.000 S 
BRANCH  16  18
ATOM     18  N   UNL     1       3.450   4.841  18.504  0.00  0.00    +0.000 N 
ATOM     19  H   UNL     1       2.945   4.235  17.866  0.00  0.00    +0.000 HD
BRANCH  18  24
ATOM     20  C   UNL     1       6.737   5.481  16.736  0.00  0.00    +0.000 A 
ATOM     21  C   UNL     1       7.557   5.653  17.850  0.00  0.00    +0.000 A 
ATOM     22  C   UNL     1       7.029   5.542  19.131  0.00  0.00    +0.000 A 
ATOM     23  C   UNL     1       5.673   5.251  19.304  0.00  0.00    +0.000 A 
ATOM     24  C   UNL     1       4.823   5.070  18.205  0.00  0.00    +0.000 A 
ATOM     25  C   UNL     1       5.375   5.197  16.920  0.00  0.00    +0.000 A 
BRANCH  20  27
ATOM     26  C   UNL     1       6.842   4.940  14.414  0.00  0.00    +0.000 C 
ATOM     27  O   UNL     1       7.384   5.622  15.539  0.00  0.00    +0.000 OA
ENDBRANCH  20  27
ENDBRANCH  18  24
ENDBRANCH  16  18
ENDBRANCH   1  16
TORSDOF 5
ENDMDL
MODEL 4
REMARK VINA RESULT:      -7.3      3.685      7.128
REMARK  Name = 
REMARK  6 active torsions:
REMARK  status: ('A' for Active; 'I' for Inactive)
REMARK    1  A    between atoms: C_1  and  O_2
REMARK    2  A    between atoms: O_2  and  C_3
REMARK    3  A    between atoms: C_7  and  N_8
REMARK    4  A    between atoms: N_8  and  C_9
REMARK    5  A    between atoms: C_9  and  N_11
REMARK    6  A    between atoms: N_11  and  N_12
REMARK                            x       y       z     vdW  Elec       q    Type
REMARK                         _______ _______ _______ _____ _____    ______ ____
ROOT
ATOM      1  N   UNL     1       3.290   3.395  20.392  0.00  0.00    +0.000 N 
ATOM      2  H   UNL     1       3.132   2.428  20.101  0.00  0.00    +0.000 HD
ENDROOT
BRANCH   1   3
ATOM      3  N   UNL     1       4.545   3.907  20.140  0.00  0.00    +0.000 NA
ATOM      4  C   UNL     1       4.839   3.897  18.871  0.00  0.00    +0.000 C 
ATOM      5  C   UNL     1       4.148   3.065  17.773  0.00  0.00    +0.000 C 
ATOM      6  O   UNL     1       3.084   2.483  17.876  0.00  0.00    +0.000 OA
ATOM      7  N   UNL     1       4.929   3.194  16.658  0.00  0.00    +0.000 N 
ATOM      8  C   UNL     1       5.860   4.216  16.833  0.00  0.00    +0.000 A 
ATOM      9  C   UNL     1       6.580   4.860  15.842  0.00  0.00    +0.000 A 
ATOM     10  I   UNL     1       6.429   4.317  13.844  0.00  0.00    +0.000 I 
ATOM     11  C   UNL     1       7.335   5.977  16.209  0.00  0.00    +0.000 A 
ATOM     12  C   UNL     1       7.377   6.404  17.553  0.00  0.00    +0.000 A 
ATOM     13  C   UNL     1       6.649   5.739  18.551  0.00  0.00    +0.000 A 
ATOM     14  C   UNL     1       5.889   4.651  18.164  0.00  0.00    +0.000 A 
ATOM     15  H   UNL     1       4.696   2.766  15.772  0.00  0.00    +0.000 HD
ENDBRANCH   1   3
BRANCH   1  16
ATOM     16  C   UNL     1       2.130   4.128  20.527  0.00  0.00    +0.000 C 
ATOM     17  S   UNL     1       0.708   3.255  20.435  0.00  0.00    +0.000 S 
BRANCH  16  18
ATOM     18  N   UNL     1       2.345   5.450  20.833  0.00  0.00    +0.000 N 
ATOM     19  H   UNL     1       2.629   5.558  21.802  0.00  0.00    +0.000 HD
BRANCH  18  24
ATOM     20  C   UNL     1       1.300   8.952  19.846  0.00  0.00    +0.000 A 
ATOM     21  C   UNL     1       1.786   8.968  18.540  0.00  0.00    +0.000 A 
ATOM     22  C   UNL     1       2.419   7.846  18.015  0.00  0.00    +0.000 A 
ATOM     23  C   UNL     1       2.564   6.697  18.797  0.00  0.00    +0.000 A 
ATOM     24  C   UNL     1       2.084   6.650  20.114  0.00  0.00    +0.000 A 
ATOM     25  C   UNL     1       1.457   7.797  20.626  0.00  0.00    +0.000 A 
BRANCH  20  27
ATOM     26  C   UNL     1      -0.524  10.472  19.609  0.00  0.00    +0.000 C 
ATOM     27  O   UNL     1       0.705  10.121  20.234  0.00  0.00    +0.000 OA
ENDBRANCH  20  27
ENDBRANCH  18  24
ENDBRANCH  16  18
ENDBRANCH   1  16
TORSDOF 5
ENDMDL
MODEL 5
REMARK VINA RESULT:      -7.3      3.288      4.201
REMARK  Name = 
REMARK  6 active torsions:
REMARK  status: ('A' for Active; 'I' for Inactive)
REMARK    1  A    between atoms: C_1  and  O_2
REMARK    2  A    between atoms: O_2  and  C_3
REMARK    3  A    between atoms: C_7  and  N_8
REMARK    4  A    between atoms: N_8  and  C_9
REMARK    5  A    between atoms: C_9  and  N_11
REMARK    6  A    between atoms: N_11  and  N_12
REMARK                            x       y       z     vdW  Elec       q    Type
REMARK                         _______ _______ _______ _____ _____    ______ ____
ROOT
ATOM      1  N   UNL     1       4.907   4.410  15.476  0.00  0.00    +0.000 N 
ATOM      2  H   UNL     1       4.150   4.751  14.880  0.00  0.00    +0.000 HD
ENDROOT
BRANCH   1   3
ATOM      3  N   UNL     1       4.529   3.850  16.677  0.00  0.00    +0.000 NA
ATOM      4  C   UNL     1       3.937   4.707  17.460  0.00  0.00    +0.000 C 
ATOM      5  C   UNL     1       3.987   6.243  17.345  0.00  0.00    +0.000 C 
ATOM      6  O   UNL     1       4.377   6.879  16.384  0.00  0.00    +0.000 OA
ATOM      7  N   UNL     1       3.426   6.722  18.497  0.00  0.00    +0.000 N 
ATOM      8  C   UNL     1       2.784   5.697  19.188  0.00  0.00    +0.000 A 
ATOM      9  C   UNL     1       1.840   5.837  20.190  0.00  0.00    +0.000 A 
ATOM     10  I   UNL     1       1.266   7.699  20.908  0.00  0.00    +0.000 I 
ATOM     11  C   UNL     1       1.188   4.684  20.635  0.00  0.00    +0.000 A 
ATOM     12  C   UNL     1       1.512   3.423  20.093  0.00  0.00    +0.000 A 
ATOM     13  C   UNL     1       2.476   3.291  19.082  0.00  0.00    +0.000 A 
ATOM     14  C   UNL     1       3.092   4.446  18.638  0.00  0.00    +0.000 A 
ATOM     15  H   UNL     1       3.306   7.709  18.680  0.00  0.00    +0.000 HD
ENDBRANCH   1   3
BRANCH   1  16
ATOM     16  C   UNL     1       6.071   4.138  14.788  0.00  0.00    +0.000 C 
ATOM     17  S   UNL     1       5.880   3.709  13.184  0.00  0.00    +0.000 S 
BRANCH  16  18
ATOM     18  N   UNL     1       7.211   4.381  15.515  0.00  0.00    +0.000 N 
ATOM     19  H   UNL     1       7.927   3.691  15.312  0.00  0.00    +0.000 HD
BRANCH  18  24
ATOM     20  C   UNL     1       7.719   7.489  17.617  0.00  0.00    +0.000 A 
ATOM     21  C   UNL     1       7.937   6.886  18.855  0.00  0.00    +0.000 A 
ATOM     22  C   UNL     1       7.930   5.500  18.968  0.00  0.00    +0.000 A 
ATOM     23  C   UNL     1       7.708   4.708  17.838  0.00  0.00    +0.000 A 
ATOM     24  C   UNL     1       7.487   5.285  16.580  0.00  0.00    +0.000 A 
ATOM     25  C   UNL     1       7.490   6.686  16.490  0.00  0.00    +0.000 A 
BRANCH  20  27
ATOM     26  C   UNL     1       8.698   9.472  18.513  0.00  0.00    +0.000 C 
ATOM     27  O   UNL     1       7.749   8.856  17.650  0.00  0.00    +0.000 OA
ENDBRANCH  20  27
ENDBRANCH  18  24
ENDBRANCH  16  18
ENDBRANCH   1  16
TORSDOF 5
ENDMDL
MODEL 6
REMARK VINA RESULT:      -7.2      3.568      4.639
REMARK  Name = 
REMARK  6 active torsions:
REMARK  status: ('A' for Active; 'I' for Inactive)
REMARK    1  A    between atoms: C_1  and  O_2
REMARK    2  A    between atoms: O_2  and  C_3
REMARK    3  A    between atoms: C_7  and  N_8
REMARK    4  A    between atoms: N_8  and  C_9
REMARK    5  A    between atoms: C_9  and  N_11
REMARK    6  A    between atoms: N_11  and  N_12
REMARK                            x       y       z     vdW  Elec       q    Type
REMARK                         _______ _______ _______ _____ _____    ______ ____
ROOT
ATOM      1  N   UNL     1       4.285   4.748  18.045  0.00  0.00    +0.000 N 
ATOM      2  H   UNL     1       3.952   4.226  18.858  0.00  0.00    +0.000 HD
ENDROOT
BRANCH   1   3
ATOM      3  N   UNL     1       3.472   5.771  17.607  0.00  0.00    +0.000 NA
ATOM      4  C   UNL     1       2.866   6.378  18.588  0.00  0.00    +0.000 C 
ATOM      5  C   UNL     1       2.672   5.844  20.021  0.00  0.00    +0.000 C 
ATOM      6  O   UNL     1       3.253   4.898  20.519  0.00  0.00    +0.000 OA
ATOM      7  N   UNL     1       1.792   6.699  20.623  0.00  0.00    +0.000 N 
ATOM      8  C   UNL     1       1.627   7.848  19.852  0.00  0.00    +0.000 A 
ATOM      9  C   UNL     1       1.100   9.058  20.270  0.00  0.00    +0.000 A 
ATOM     10  I   UNL     1       0.364   9.332  22.192  0.00  0.00    +0.000 I 
ATOM     11  C   UNL     1       1.180  10.140  19.390  0.00  0.00    +0.000 A 
ATOM     12  C   UNL     1       1.755   9.984  18.111  0.00  0.00    +0.000 A 
ATOM     13  C   UNL     1       2.280   8.751  17.695  0.00  0.00    +0.000 A 
ATOM     14  C   UNL     1       2.213   7.699  18.589  0.00  0.00    +0.000 A 
ATOM     15  H   UNL     1       1.502   6.600  21.586  0.00  0.00    +0.000 HD
ENDBRANCH   1   3
BRANCH   1  16
ATOM     16  C   UNL     1       5.648   4.660  17.852  0.00  0.00    +0.000 C 
ATOM     17  S   UNL     1       6.590   5.499  18.948  0.00  0.00    +0.000 S 
BRANCH  16  18
ATOM     18  N   UNL     1       6.007   3.793  16.849  0.00  0.00    +0.000 N 
ATOM     19  H   UNL     1       6.222   2.873  17.221  0.00  0.00    +0.000 HD
BRANCH  18  24
ATOM     20  C   UNL     1       5.897   3.742  13.065  0.00  0.00    +0.000 A 
ATOM     21  C   UNL     1       6.929   4.642  12.801  0.00  0.00    +0.000 A 
ATOM     22  C   UNL     1       7.636   5.222  13.849  0.00  0.00    +0.000 A 
ATOM     23  C   UNL     1       7.315   4.899  15.171  0.00  0.00    +0.000 A 
ATOM     24  C   UNL     1       6.284   3.996  15.468  0.00  0.00    +0.000 A 
ATOM     25  C   UNL     1       5.578   3.430  14.394  0.00  0.00    +0.000 A 
BRANCH  20  27
ATOM     26  C   UNL     1       5.689   1.968  11.483  0.00  0.00    +0.000 C 
ATOM     27  O   UNL     1       5.285   3.251  11.944  0.00  0.00    +0.000 OA
ENDBRANCH  20  27
ENDBRANCH  18  24
ENDBRANCH  16  18
ENDBRANCH   1  16
TORSDOF 5
ENDMDL
MODEL 7
REMARK VINA RESULT:      -7.2      1.664      2.164
REMARK  Name = 
REMARK  6 active torsions:
REMARK  status: ('A' for Active; 'I' for Inactive)
REMARK    1  A    between atoms: C_1  and  O_2
REMARK    2  A    between atoms: O_2  and  C_3
REMARK    3  A    between atoms: C_7  and  N_8
REMARK    4  A    between atoms: N_8  and  C_9
REMARK    5  A    between atoms: C_9  and  N_11
REMARK    6  A    between atoms: N_11  and  N_12
REMARK                            x       y       z     vdW  Elec       q    Type
REMARK                         _______ _______ _______ _____ _____    ______ ____
ROOT
ATOM      1  N   UNL     1       1.993   6.583  19.596  0.00  0.00    +0.000 N 
ATOM      2  H   UNL     1       1.509   6.910  18.757  0.00  0.00    +0.000 HD
ENDROOT
BRANCH   1   3
ATOM      3  N   UNL     1       1.744   7.289  20.753  0.00  0.00    +0.000 NA
ATOM      4  C   UNL     1       1.292   8.488  20.516  0.00  0.00    +0.000 C 
ATOM      5  C   UNL     1       1.392   9.261  19.186  0.00  0.00    +0.000 C 
ATOM      6  O   UNL     1       1.686   8.792  18.103  0.00  0.00    +0.000 OA
ATOM      7  N   UNL     1       1.001  10.541  19.468  0.00  0.00    +0.000 N 
ATOM      8  C   UNL     1       0.407  10.601  20.727  0.00  0.00    +0.000 A 
ATOM      9  C   UNL     1      -0.398  11.616  21.217  0.00  0.00    +0.000 A 
ATOM     10  I   UNL     1      -0.797  13.330  20.115  0.00  0.00    +0.000 I 
ATOM     11  C   UNL     1      -1.037  11.405  22.441  0.00  0.00    +0.000 A 
ATOM     12  C   UNL     1      -0.837  10.206  23.157  0.00  0.00    +0.000 A 
ATOM     13  C   UNL     1      -0.014   9.187  22.655  0.00  0.00    +0.000 A 
ATOM     14  C   UNL     1       0.591   9.405  21.431  0.00  0.00    +0.000 A 
ATOM     15  H   UNL     1       0.947  11.266  18.765  0.00  0.00    +0.000 HD
ENDBRANCH   1   3
BRANCH   1  16
ATOM     16  C   UNL     1       2.396   5.266  19.524  0.00  0.00    +0.000 C 
ATOM     17  S   UNL     1       2.125   4.350  20.896  0.00  0.00    +0.000 S 
BRANCH  16  18
ATOM     18  N   UNL     1       2.852   4.897  18.282  0.00  0.00    +0.000 N 
ATOM     19  H   UNL     1       2.089   4.581  17.692  0.00  0.00    +0.000 HD
BRANCH  18  24
ATOM     20  C   UNL     1       6.609   4.650  17.879  0.00  0.00    +0.000 A 
ATOM     21  C   UNL     1       6.661   4.197  16.562  0.00  0.00    +0.000 A 
ATOM     22  C   UNL     1       5.486   4.001  15.843  0.00  0.00    +0.000 A 
ATOM     23  C   UNL     1       4.251   4.265  16.440  0.00  0.00    +0.000 A 
ATOM     24  C   UNL     1       4.165   4.723  17.761  0.00  0.00    +0.000 A 
ATOM     25  C   UNL     1       5.363   4.905  18.472  0.00  0.00    +0.000 A 
BRANCH  20  27
ATOM     26  C   UNL     1       7.986   5.835  19.426  0.00  0.00    +0.000 C 
ATOM     27  O   UNL     1       7.835   4.795  18.468  0.00  0.00    +0.000 OA
ENDBRANCH  20  27
ENDBRANCH  18  24
ENDBRANCH  16  18
ENDBRANCH   1  16
TORSDOF 5
ENDMDL
MODEL 8
REMARK VINA RESULT:      -7.2      1.960      2.219
REMARK  Name = 
REMARK  6 active torsions:
REMARK  status: ('A' for Active; 'I' for Inactive)
REMARK    1  A    between atoms: C_1  and  O_2
REMARK    2  A    between atoms: O_2  and  C_3
REMARK    3  A    between atoms: C_7  and  N_8
REMARK    4  A    between atoms: N_8  and  C_9
REMARK    5  A    between atoms: C_9  and  N_11
REMARK    6  A    between atoms: N_11  and  N_12
REMARK                            x       y       z     vdW  Elec       q    Type
REMARK                         _______ _______ _______ _____ _____    ______ ____
ROOT
ATOM      1  N   UNL     1       1.848   4.873  19.767  0.00  0.00    +0.000 N 
ATOM      2  H   UNL     1       1.009   4.640  19.231  0.00  0.00    +0.000 HD
ENDROOT
BRANCH   1   3
ATOM      3  N   UNL     1       1.686   5.802  20.772  0.00  0.00    +0.000 NA
ATOM      4  C   UNL     1       1.611   7.020  20.315  0.00  0.00    +0.000 C 
ATOM      5  C   UNL     1       2.059   7.508  18.923  0.00  0.00    +0.000 C 
ATOM      6  O   UNL     1       2.321   6.805  17.965  0.00  0.00    +0.000 OA
ATOM      7  N   UNL     1       2.011   8.874  18.973  0.00  0.00    +0.000 N 
ATOM      8  C   UNL     1       1.330   9.295  20.114  0.00  0.00    +0.000 A 
ATOM      9  C   UNL     1       0.792  10.549  20.343  0.00  0.00    +0.000 A 
ATOM     10  I   UNL     1       1.000  12.100  18.978  0.00  0.00    +0.000 I 
ATOM     11  C   UNL     1      -0.003  10.718  21.479  0.00  0.00    +0.000 A 
ATOM     12  C   UNL     1      -0.219   9.645  22.369  0.00  0.00    +0.000 A 
ATOM     13  C   UNL     1       0.337   8.379  22.131  0.00  0.00    +0.000 A 
ATOM     14  C   UNL     1       1.101   8.226  20.989  0.00  0.00    +0.000 A 
ATOM     15  H   UNL     1       2.233   9.461  18.180  0.00  0.00    +0.000 HD
ENDBRANCH   1   3
BRANCH   1  16
ATOM     16  C   UNL     1       2.825   3.901  19.713  0.00  0.00    +0.000 C 
ATOM     17  S   UNL     1       2.828   2.807  20.976  0.00  0.00    +0.000 S 
BRANCH  16  18
ATOM     18  N   UNL     1       3.567   3.930  18.557  0.00  0.00    +0.000 N 
ATOM     19  H   UNL     1       3.092   3.437  17.807  0.00  0.00    +0.000 HD
BRANCH  18  24
ATOM     20  C   UNL     1       6.874   4.719  16.892  0.00  0.00    +0.000 A 
ATOM     21  C   UNL     1       7.492   5.401  17.940  0.00  0.00    +0.000 A 
ATOM     22  C   UNL     1       6.831   5.568  19.152  0.00  0.00    +0.000 A 
ATOM     23  C   UNL     1       5.545   5.049  19.322  0.00  0.00    +0.000 A 
ATOM     24  C   UNL     1       4.898   4.357  18.289  0.00  0.00    +0.000 A 
ATOM     25  C   UNL     1       5.580   4.208  17.071  0.00  0.00    +0.000 A 
BRANCH  20  27
ATOM     26  C   UNL     1       6.997   4.903  14.516  0.00  0.00    +0.000 C 
ATOM     27  O   UNL     1       7.635   4.631  15.758  0.00  0.00    +0.000 OA
ENDBRANCH  20  27
ENDBRANCH  18  24
ENDBRANCH  16  18
ENDBRANCH   1  16
TORSDOF 5
ENDMDL
MODEL 9
REMARK VINA RESULT:      -7.2      3.110      5.045
REMARK  Name = 
REMARK  6 active torsions:
REMARK  status: ('A' for Active; 'I' for Inactive)
REMARK    1  A    between atoms: C_1  and  O_2
REMARK    2  A    between atoms: O_2  and  C_3
REMARK    3  A    between atoms: C_7  and  N_8
REMARK    4  A    between atoms: N_8  and  C_9
REMARK    5  A    between atoms: C_9  and  N_11
REMARK    6  A    between atoms: N_11  and  N_12
REMARK                            x       y       z     vdW  Elec       q    Type
REMARK                         _______ _______ _______ _____ _____    ______ ____
ROOT
ATOM      1  N   UNL     1       5.042   5.809  17.297  0.00  0.00    +0.000 N 
ATOM      2  H   UNL     1       5.825   6.259  17.777  0.00  0.00    +0.000 HD
ENDROOT
BRANCH   1   3
ATOM      3  N   UNL     1       3.958   6.614  17.020  0.00  0.00    +0.000 NA
ATOM      4  C   UNL     1       3.328   6.986  18.097  0.00  0.00    +0.000 C 
ATOM      5  C   UNL     1       3.426   6.337  19.492  0.00  0.00    +0.000 C 
ATOM      6  O   UNL     1       4.274   5.543  19.855  0.00  0.00    +0.000 OA
ATOM      7  N   UNL     1       2.430   6.902  20.239  0.00  0.00    +0.000 N 
ATOM      8  C   UNL     1       1.903   8.013  19.585  0.00  0.00    +0.000 A 
ATOM      9  C   UNL     1       1.139   9.021  20.147  0.00  0.00    +0.000 A 
ATOM     10  I   UNL     1       0.567   8.984  22.143  0.00  0.00    +0.000 I 
ATOM     11  C   UNL     1       0.854  10.138  19.357  0.00  0.00    +0.000 A 
ATOM     12  C   UNL     1       1.311  10.210  18.025  0.00  0.00    +0.000 A 
ATOM     13  C   UNL     1       2.079   9.179  17.462  0.00  0.00    +0.000 A 
ATOM     14  C   UNL     1       2.370   8.094  18.267  0.00  0.00    +0.000 A 
ATOM     15  H   UNL     1       2.277   6.674  21.212  0.00  0.00    +0.000 HD
ENDBRANCH   1   3
BRANCH   1  16
ATOM     16  C   UNL     1       5.397   4.666  16.613  0.00  0.00    +0.000 C 
ATOM     17  S   UNL     1       6.383   4.896  15.283  0.00  0.00    +0.000 S 
BRANCH  16  18
ATOM     18  N   UNL     1       4.969   3.508  17.215  0.00  0.00    +0.000 N 
ATOM     19  H   UNL     1       5.592   2.735  17.001  0.00  0.00    +0.000 HD
BRANCH  18  24
ATOM     20  C   UNL     1       2.448   2.446  19.831  0.00  0.00    +0.000 A 
ATOM     21  C   UNL     1       1.274   2.724  19.133  0.00  0.00    +0.000 A 
ATOM     22  C   UNL     1       1.333   3.228  17.838  0.00  0.00    +0.000 A 
ATOM     23  C   UNL     1       2.572   3.452  17.232  0.00  0.00    +0.000 A 
ATOM     24  C   UNL     1       3.770   3.181  17.908  0.00  0.00    +0.000 A 
ATOM     25  C   UNL     1       3.687   2.681  19.218  0.00  0.00    +0.000 A 
BRANCH  20  27
ATOM     26  C   UNL     1       1.333   2.664  21.930  0.00  0.00    +0.000 C 
ATOM     27  O   UNL     1       2.244   1.960  21.094  0.00  0.00    +0.000 OA
ENDBRANCH  20  27
ENDBRANCH  18  24
ENDBRANCH  16  18
ENDBRANCH   1  16
TORSDOF 5
ENDMDL
