MODEL 1
REMARK VINA RESULT:      -7.6      0.000      0.000
REMARK  Name = 
REMARK  8 active torsions:
REMARK  status: ('A' for Active; 'I' for Inactive)
REMARK    1  A    between atoms: C_1  and  C_2
REMARK    2  A    between atoms: C_2  and  N_3
REMARK    3  A    between atoms: C_2  and  C_20
REMARK    4  A    between atoms: C_4  and  C_6
REMARK    5  A    between atoms: C_6  and  S_7
REMARK    6  A    between atoms: S_7  and  C_8
REMARK    7  A    between atoms: C_11  and  C_12
REMARK    8  A    between atoms: N_18  and  N_19
REMARK                            x       y       z     vdW  Elec       q    Type
REMARK                         _______ _______ _______ _____ _____    ______ ____
ROOT
ATOM      1  S   UNL     1       3.460   2.737  20.425  0.00  0.00    +0.000 S 
ENDROOT
BRANCH   1   2
ATOM      2  C   UNL     1       4.627   3.549  19.434  0.00  0.00    +0.000 A 
ATOM      3  N   UNL     1       5.702   4.188  19.833  0.00  0.00    +0.000 NA
ATOM      4  N   UNL     1       6.370   4.610  18.703  0.00  0.00    +0.000 NA
ATOM      5  C   UNL     1       5.683   4.241  17.629  0.00  0.00    +0.000 A 
ATOM      6  N   UNL     1       4.553   3.566  18.062  0.00  0.00    +0.000 N 
BRANCH   5   7
ATOM      7  C   UNL     1       6.108   4.427  16.238  0.00  0.00    +0.000 A 
ATOM      8  C   UNL     1       5.524   3.768  15.153  0.00  0.00    +0.000 A 
ATOM      9  C   UNL     1       6.026   3.955  13.866  0.00  0.00    +0.000 A 
ATOM     10  C   UNL     1       7.092   4.821  13.690  0.00  0.00    +0.000 A 
ATOM     11  N   UNL     1       7.669   5.500  14.704  0.00  0.00    +0.000 NA
ATOM     12  C   UNL     1       7.159   5.295  15.945  0.00  0.00    +0.000 A 
ENDBRANCH   5   7
BRANCH   6  13
ATOM     13  N   UNL     1       3.546   2.925  17.244  0.00  0.00    +0.000 N 
ATOM     14  H   UNL     1       3.236   3.539  16.492  0.00  0.00    +0.000 HD
ATOM     15  H   UNL     1       3.948   2.112  16.774  0.00  0.00    +0.000 HD
ENDBRANCH   6  13
ENDBRANCH   1   2
BRANCH   1  16
ATOM     16  C   UNL     1       2.383   4.112  20.933  0.00  0.00    +0.000 C 
BRANCH  16  18
ATOM     17  N   UNL     1       2.536   6.188  19.642  0.00  0.00    +0.000 N 
ATOM     18  C   UNL     1       2.009   4.916  19.695  0.00  0.00    +0.000 C 
ATOM     19  O   UNL     1       1.309   4.447  18.797  0.00  0.00    +0.000 OA
ATOM     20  H   UNL     1       3.083   6.533  20.420  0.00  0.00    +0.000 HD
BRANCH  17  22
ATOM     21  C   UNL     1       3.636   7.233  17.685  0.00  0.00    +0.000 C 
ATOM     22  C   UNL     1       2.345   7.067  18.496  0.00  0.00    +0.000 C 
BRANCH  22  23
ATOM     23  C   UNL     1       1.806   8.409  18.955  0.00  0.00    +0.000 A 
ATOM     24  C   UNL     1       1.329   8.558  20.266  0.00  0.00    +0.000 A 
ATOM     25  C   UNL     1       0.840   9.788  20.711  0.00  0.00    +0.000 A 
ATOM     26  C   UNL     1       0.824  10.884  19.851  0.00  0.00    +0.000 A 
ATOM     27  C   UNL     1       1.291  10.754  18.546  0.00  0.00    +0.000 A 
ATOM     28  C   UNL     1       1.776   9.525  18.099  0.00  0.00    +0.000 A 
ENDBRANCH  22  23
ENDBRANCH  17  22
ENDBRANCH  16  18
ENDBRANCH   1  16
TORSDOF 7
ENDMDL
MODEL 2
REMARK VINA RESULT:      -7.4      2.626      4.841
REMARK  Name = 
REMARK  8 active torsions:
REMARK  status: ('A' for Active; 'I' for Inactive)
REMARK    1  A    between atoms: C_1  and  C_2
REMARK    2  A    between atoms: C_2  and  N_3
REMARK    3  A    between atoms: C_2  and  C_20
REMARK    4  A    between atoms: C_4  and  C_6
REMARK    5  A    between atoms: C_6  and  S_7
REMARK    6  A    between atoms: S_7  and  C_8
REMARK    7  A    between atoms: C_11  and  C_12
REMARK    8  A    between atoms: N_18  and  N_19
REMARK                            x       y       z     vdW  Elec       q    Type
REMARK                         _______ _______ _______ _____ _____    ______ ____
ROOT
ATOM      1  S   UNL     1       7.326   4.915  17.555  0.00  0.00    +0.000 S 
ENDROOT
BRANCH   1   2
ATOM      2  C   UNL     1       7.152   4.862  15.832  0.00  0.00    +0.000 A 
ATOM      3  N   UNL     1       7.753   5.623  14.948  0.00  0.00    +0.000 NA
ATOM      4  N   UNL     1       7.373   5.180  13.699  0.00  0.00    +0.000 NA
ATOM      5  C   UNL     1       6.527   4.166  13.837  0.00  0.00    +0.000 A 
ATOM      6  N   UNL     1       6.355   3.941  15.194  0.00  0.00    +0.000 N 
BRANCH   5   7
ATOM      7  C   UNL     1       5.966   3.368  12.743  0.00  0.00    +0.000 A 
ATOM      8  C   UNL     1       6.670   2.365  12.072  0.00  0.00    +0.000 A 
ATOM      9  C   UNL     1       6.085   1.691  11.002  0.00  0.00    +0.000 A 
ATOM     10  C   UNL     1       4.790   2.024  10.639  0.00  0.00    +0.000 A 
ATOM     11  N   UNL     1       4.062   2.966  11.274  0.00  0.00    +0.000 NA
ATOM     12  C   UNL     1       4.661   3.605  12.312  0.00  0.00    +0.000 A 
ENDBRANCH   5   7
BRANCH   6  13
ATOM     13  N   UNL     1       5.574   2.896  15.818  0.00  0.00    +0.000 N 
ATOM     14  H   UNL     1       4.935   3.278  16.513  0.00  0.00    +0.000 HD
ATOM     15  H   UNL     1       4.974   2.450  15.122  0.00  0.00    +0.000 HD
ENDBRANCH   6  13
ENDBRANCH   1   2
BRANCH   1  16
ATOM     16  C   UNL     1       6.646   6.555  17.948  0.00  0.00    +0.000 C 
BRANCH  16  18
ATOM     17  N   UNL     1       4.289   6.266  18.546  0.00  0.00    +0.000 N 
ATOM     18  C   UNL     1       5.178   6.580  17.541  0.00  0.00    +0.000 C 
ATOM     19  O   UNL     1       4.819   6.885  16.404  0.00  0.00    +0.000 OA
ATOM     20  H   UNL     1       4.639   5.996  19.455  0.00  0.00    +0.000 HD
BRANCH  17  22
ATOM     21  C   UNL     1       2.211   7.487  19.116  0.00  0.00    +0.000 C 
ATOM     22  C   UNL     1       2.845   6.316  18.355  0.00  0.00    +0.000 C 
BRANCH  22  23
ATOM     23  C   UNL     1       2.221   4.993  18.761  0.00  0.00    +0.000 A 
ATOM     24  C   UNL     1       2.234   3.912  17.867  0.00  0.00    +0.000 A 
ATOM     25  C   UNL     1       1.676   2.683  18.227  0.00  0.00    +0.000 A 
ATOM     26  C   UNL     1       1.101   2.520  19.485  0.00  0.00    +0.000 A 
ATOM     27  C   UNL     1       1.078   3.583  20.384  0.00  0.00    +0.000 A 
ATOM     28  C   UNL     1       1.632   4.812  20.025  0.00  0.00    +0.000 A 
ENDBRANCH  22  23
ENDBRANCH  17  22
ENDBRANCH  16  18
ENDBRANCH   1  16
TORSDOF 7
ENDMDL
MODEL 3
REMARK VINA RESULT:      -7.4      1.928      6.175
REMARK  Name = 
REMARK  8 active torsions:
REMARK  status: ('A' for Active; 'I' for Inactive)
REMARK    1  A    between atoms: C_1  and  C_2
REMARK    2  A    between atoms: C_2  and  N_3
REMARK    3  A    between atoms: C_2  and  C_20
REMARK    4  A    between atoms: C_4  and  C_6
REMARK    5  A    between atoms: C_6  and  S_7
REMARK    6  A    between atoms: S_7  and  C_8
REMARK    7  A    between atoms: C_11  and  C_12
REMARK    8  A    between atoms: N_18  and  N_19
REMARK                            x       y       z     vdW  Elec       q    Type
REMARK                         _______ _______ _______ _____ _____    ______ ____
ROOT
ATOM      1  S   UNL     1       3.840   2.429  20.198  0.00  0.00    +0.000 S 
ENDROOT
BRANCH   1   2
ATOM      2  C   UNL     1       2.643   3.679  20.292  0.00  0.00    +0.000 A 
ATOM      3  N   UNL     1       1.374   3.543  20.599  0.00  0.00    +0.000 NA
ATOM      4  N   UNL     1       0.821   4.806  20.623  0.00  0.00    +0.000 NA
ATOM      5  C   UNL     1       1.756   5.695  20.310  0.00  0.00    +0.000 A 
ATOM      6  N   UNL     1       2.936   5.005  20.081  0.00  0.00    +0.000 N 
BRANCH   5   7
ATOM      7  C   UNL     1       1.583   7.151  20.312  0.00  0.00    +0.000 A 
ATOM      8  C   UNL     1       1.121   7.877  21.413  0.00  0.00    +0.000 A 
ATOM      9  C   UNL     1       0.928   9.254  21.315  0.00  0.00    +0.000 A 
ATOM     10  C   UNL     1       1.225   9.880  20.117  0.00  0.00    +0.000 A 
ATOM     11  N   UNL     1       1.700   9.225  19.037  0.00  0.00    +0.000 NA
ATOM     12  C   UNL     1       1.876   7.885  19.163  0.00  0.00    +0.000 A 
ENDBRANCH   5   7
BRANCH   6  13
ATOM     13  N   UNL     1       4.234   5.564  19.776  0.00  0.00    +0.000 N 
ATOM     14  H   UNL     1       4.157   6.535  19.477  0.00  0.00    +0.000 HD
ATOM     15  H   UNL     1       4.806   5.592  20.622  0.00  0.00    +0.000 HD
ENDBRANCH   6  13
ENDBRANCH   1   2
BRANCH   1  16
ATOM     16  C   UNL     1       3.594   1.805  18.508  0.00  0.00    +0.000 C 
BRANCH  16  18
ATOM     17  N   UNL     1       5.164   3.314  17.387  0.00  0.00    +0.000 N 
ATOM     18  C   UNL     1       3.843   2.947  17.530  0.00  0.00    +0.000 C 
ATOM     19  O   UNL     1       2.931   3.478  16.897  0.00  0.00    +0.000 OA
ATOM     20  H   UNL     1       5.870   2.864  17.951  0.00  0.00    +0.000 HD
BRANCH  17  22
ATOM     21  C   UNL     1       6.327   3.722  15.239  0.00  0.00    +0.000 C 
ATOM     22  C   UNL     1       5.592   4.334  16.438  0.00  0.00    +0.000 C 
BRANCH  22  23
ATOM     23  C   UNL     1       6.451   5.370  17.141  0.00  0.00    +0.000 A 
ATOM     24  C   UNL     1       7.238   4.994  18.240  0.00  0.00    +0.000 A 
ATOM     25  C   UNL     1       8.045   5.929  18.891  0.00  0.00    +0.000 A 
ATOM     26  C   UNL     1       8.074   7.250  18.452  0.00  0.00    +0.000 A 
ATOM     27  C   UNL     1       7.298   7.641  17.365  0.00  0.00    +0.000 A 
ATOM     28  C   UNL     1       6.489   6.709  16.714  0.00  0.00    +0.000 A 
ENDBRANCH  22  23
ENDBRANCH  17  22
ENDBRANCH  16  18
ENDBRANCH   1  16
TORSDOF 7
ENDMDL
MODEL 4
REMARK VINA RESULT:      -7.4      1.826      5.761
REMARK  Name = 
REMARK  8 active torsions:
REMARK  status: ('A' for Active; 'I' for Inactive)
REMARK    1  A    between atoms: C_1  and  C_2
REMARK    2  A    between atoms: C_2  and  N_3
REMARK    3  A    between atoms: C_2  and  C_20
REMARK    4  A    between atoms: C_4  and  C_6
REMARK    5  A    between atoms: C_6  and  S_7
REMARK    6  A    between atoms: S_7  and  C_8
REMARK    7  A    between atoms: C_11  and  C_12
REMARK    8  A    between atoms: N_18  and  N_19
REMARK                            x       y       z     vdW  Elec       q    Type
REMARK                         _______ _______ _______ _____ _____    ______ ____
ROOT
ATOM      1  S   UNL     1       2.764   2.193  19.997  0.00  0.00    +0.000 S 
ENDROOT
BRANCH   1   2
ATOM      2  C   UNL     1       3.123   3.885  19.885  0.00  0.00    +0.000 A 
ATOM      3  N   UNL     1       4.309   4.444  19.826  0.00  0.00    +0.000 NA
ATOM      4  N   UNL     1       4.115   5.800  19.671  0.00  0.00    +0.000 NA
ATOM      5  C   UNL     1       2.813   6.054  19.659  0.00  0.00    +0.000 A 
ATOM      6  N   UNL     1       2.145   4.848  19.804  0.00  0.00    +0.000 N 
BRANCH   5   7
ATOM      7  C   UNL     1       2.201   7.366  19.427  0.00  0.00    +0.000 A 
ATOM      8  C   UNL     1       2.224   8.027  18.195  0.00  0.00    +0.000 A 
ATOM      9  C   UNL     1       1.671   9.300  18.072  0.00  0.00    +0.000 A 
ATOM     10  C   UNL     1       1.083   9.877  19.185  0.00  0.00    +0.000 A 
ATOM     11  N   UNL     1       1.012   9.265  20.385  0.00  0.00    +0.000 NA
ATOM     12  C   UNL     1       1.561   8.027  20.474  0.00  0.00    +0.000 A 
ENDBRANCH   5   7
BRANCH   6  13
ATOM     13  N   UNL     1       0.717   4.627  19.781  0.00  0.00    +0.000 N 
ATOM     14  H   UNL     1       0.425   4.192  18.906  0.00  0.00    +0.000 HD
ATOM     15  H   UNL     1       0.458   3.959  20.508  0.00  0.00    +0.000 HD
ENDBRANCH   6  13
ENDBRANCH   1   2
BRANCH   1  16
ATOM     16  C   UNL     1       3.405   1.571  18.413  0.00  0.00    +0.000 C 
BRANCH  16  18
ATOM     17  N   UNL     1       4.858   3.147  17.228  0.00  0.00    +0.000 N 
ATOM     18  C   UNL     1       3.559   2.748  17.458  0.00  0.00    +0.000 C 
ATOM     19  O   UNL     1       2.592   3.281  16.914  0.00  0.00    +0.000 OA
ATOM     20  H   UNL     1       5.614   2.692  17.722  0.00  0.00    +0.000 HD
BRANCH  17  22
ATOM     21  C   UNL     1       5.834   3.646  15.007  0.00  0.00    +0.000 C 
ATOM     22  C   UNL     1       5.196   4.205  16.285  0.00  0.00    +0.000 C 
BRANCH  22  23
ATOM     23  C   UNL     1       6.100   5.226  16.951  0.00  0.00    +0.000 A 
ATOM     24  C   UNL     1       7.085   4.801  17.855  0.00  0.00    +0.000 A 
ATOM     25  C   UNL     1       7.935   5.724  18.468  0.00  0.00    +0.000 A 
ATOM     26  C   UNL     1       7.810   7.082  18.185  0.00  0.00    +0.000 A 
ATOM     27  C   UNL     1       6.836   7.522  17.292  0.00  0.00    +0.000 A 
ATOM     28  C   UNL     1       5.984   6.602  16.680  0.00  0.00    +0.000 A 
ENDBRANCH  22  23
ENDBRANCH  17  22
ENDBRANCH  16  18
ENDBRANCH   1  16
TORSDOF 7
ENDMDL
MODEL 5
REMARK VINA RESULT:      -7.2      2.638      4.334
REMARK  Name = 
REMARK  8 active torsions:
REMARK  status: ('A' for Active; 'I' for Inactive)
REMARK    1  A    between atoms: C_1  and  C_2
REMARK    2  A    between atoms: C_2  and  N_3
REMARK    3  A    between atoms: C_2  and  C_20
REMARK    4  A    between atoms: C_4  and  C_6
REMARK    5  A    between atoms: C_6  and  S_7
REMARK    6  A    between atoms: S_7  and  C_8
REMARK    7  A    between atoms: C_11  and  C_12
REMARK    8  A    between atoms: N_18  and  N_19
REMARK                            x       y       z     vdW  Elec       q    Type
REMARK                         _______ _______ _______ _____ _____    ______ ____
ROOT
ATOM      1  S   UNL     1       7.609   6.634  18.496  0.00  0.00    +0.000 S 
ENDROOT
BRANCH   1   2
ATOM      2  C   UNL     1       6.757   6.387  17.006  0.00  0.00    +0.000 A 
ATOM      3  N   UNL     1       5.852   7.170  16.469  0.00  0.00    +0.000 NA
ATOM      4  N   UNL     1       5.502   6.618  15.254  0.00  0.00    +0.000 NA
ATOM      5  C   UNL     1       6.184   5.493  15.076  0.00  0.00    +0.000 A 
ATOM      6  N   UNL     1       6.993   5.308  16.187  0.00  0.00    +0.000 N 
BRANCH   5   7
ATOM      7  C   UNL     1       6.156   4.660  13.870  0.00  0.00    +0.000 A 
ATOM      8  C   UNL     1       5.085   3.833  13.522  0.00  0.00    +0.000 A 
ATOM      9  C   UNL     1       5.161   3.026  12.389  0.00  0.00    +0.000 A 
ATOM     10  C   UNL     1       6.305   3.082  11.611  0.00  0.00    +0.000 A 
ATOM     11  N   UNL     1       7.352   3.885  11.893  0.00  0.00    +0.000 NA
ATOM     12  C   UNL     1       7.249   4.658  13.004  0.00  0.00    +0.000 A 
ENDBRANCH   5   7
BRANCH   6  13
ATOM     13  N   UNL     1       7.958   4.253  16.404  0.00  0.00    +0.000 N 
ATOM     14  H   UNL     1       8.165   4.141  17.395  0.00  0.00    +0.000 HD
ATOM     15  H   UNL     1       7.563   3.358  16.113  0.00  0.00    +0.000 HD
ENDBRANCH   6  13
ENDBRANCH   1   2
BRANCH   1  16
ATOM     16  C   UNL     1       6.876   5.355  19.560  0.00  0.00    +0.000 C 
BRANCH  16  18
ATOM     17  N   UNL     1       4.546   5.896  19.035  0.00  0.00    +0.000 N 
ATOM     18  C   UNL     1       5.536   4.940  18.965  0.00  0.00    +0.000 C 
ATOM     19  O   UNL     1       5.366   3.841  18.438  0.00  0.00    +0.000 OA
ATOM     20  H   UNL     1       4.731   6.772  19.503  0.00  0.00    +0.000 HD
BRANCH  17  22
ATOM     21  C   UNL     1       2.456   7.019  18.323  0.00  0.00    +0.000 C 
ATOM     22  C   UNL     1       3.227   5.699  18.447  0.00  0.00    +0.000 C 
BRANCH  22  23
ATOM     23  C   UNL     1       2.445   4.679  19.255  0.00  0.00    +0.000 A 
ATOM     24  C   UNL     1       2.556   4.664  20.654  0.00  0.00    +0.000 A 
ATOM     25  C   UNL     1       1.835   3.741  21.415  0.00  0.00    +0.000 A 
ATOM     26  C   UNL     1       0.996   2.824  20.788  0.00  0.00    +0.000 A 
ATOM     27  C   UNL     1       0.876   2.823  19.400  0.00  0.00    +0.000 A 
ATOM     28  C   UNL     1       1.597   3.742  18.638  0.00  0.00    +0.000 A 
ENDBRANCH  22  23
ENDBRANCH  17  22
ENDBRANCH  16  18
ENDBRANCH   1  16
TORSDOF 7
ENDMDL
MODEL 6
REMARK VINA RESULT:      -7.1      5.697      7.032
REMARK  Name = 
REMARK  8 active torsions:
REMARK  status: ('A' for Active; 'I' for Inactive)
REMARK    1  A    between atoms: C_1  and  C_2
REMARK    2  A    between atoms: C_2  and  N_3
REMARK    3  A    between atoms: C_2  and  C_20
REMARK    4  A    between atoms: C_4  and  C_6
REMARK    5  A    between atoms: C_6  and  S_7
REMARK    6  A    between atoms: S_7  and  C_8
REMARK    7  A    between atoms: C_11  and  C_12
REMARK    8  A    between atoms: N_18  and  N_19
REMARK                            x       y       z     vdW  Elec       q    Type
REMARK                         _______ _______ _______ _____ _____    ______ ____
ROOT
ATOM      1  S   UNL     1       7.359   7.330  17.353  0.00  0.00    +0.000 S 
ENDROOT
BRANCH   1   2
ATOM      2  C   UNL     1       6.486   6.021  18.081  0.00  0.00    +0.000 A 
ATOM      3  N   UNL     1       6.957   5.110  18.900  0.00  0.00    +0.000 NA
ATOM      4  N   UNL     1       5.896   4.317  19.284  0.00  0.00    +0.000 NA
ATOM      5  C   UNL     1       4.795   4.742  18.677  0.00  0.00    +0.000 A 
ATOM      6  N   UNL     1       5.139   5.829  17.889  0.00  0.00    +0.000 N 
BRANCH   5   7
ATOM      7  C   UNL     1       3.444   4.214  18.892  0.00  0.00    +0.000 A 
ATOM      8  C   UNL     1       2.659   4.519  20.008  0.00  0.00    +0.000 A 
ATOM      9  C   UNL     1       1.407   3.929  20.167  0.00  0.00    +0.000 A 
ATOM     10  C   UNL     1       0.956   3.057  19.190  0.00  0.00    +0.000 A 
ATOM     11  N   UNL     1       1.667   2.755  18.083  0.00  0.00    +0.000 NA
ATOM     12  C   UNL     1       2.883   3.345  17.957  0.00  0.00    +0.000 A 
ENDBRANCH   5   7
BRANCH   6  13
ATOM     13  N   UNL     1       4.253   6.656  17.099  0.00  0.00    +0.000 N 
ATOM     14  H   UNL     1       3.303   6.288  17.104  0.00  0.00    +0.000 HD
ATOM     15  H   UNL     1       4.181   7.584  17.518  0.00  0.00    +0.000 HD
ENDBRANCH   6  13
ENDBRANCH   1   2
BRANCH   1  16
ATOM     16  C   UNL     1       8.416   7.882  18.726  0.00  0.00    +0.000 C 
BRANCH  16  18
ATOM     17  N   UNL     1       9.459   9.939  19.549  0.00  0.00    +0.000 N 
ATOM     18  C   UNL     1       8.646   9.381  18.587  0.00  0.00    +0.000 C 
ATOM     19  O   UNL     1       8.160  10.035  17.664  0.00  0.00    +0.000 OA
ATOM     20  H   UNL     1       9.809   9.362  20.301  0.00  0.00    +0.000 HD
BRANCH  17  22
ATOM     21  C   UNL     1      11.350  11.514  19.274  0.00  0.00    +0.000 C 
ATOM     22  C   UNL     1       9.847  11.343  19.526  0.00  0.00    +0.000 C 
BRANCH  22  23
ATOM     23  C   UNL     1       9.425  12.021  20.818  0.00  0.00    +0.000 A 
ATOM     24  C   UNL     1       9.779  13.358  21.052  0.00  0.00    +0.000 A 
ATOM     25  C   UNL     1       9.389  14.002  22.228  0.00  0.00    +0.000 A 
ATOM     26  C   UNL     1       8.640  13.318  23.183  0.00  0.00    +0.000 A 
ATOM     27  C   UNL     1       8.282  11.990  22.967  0.00  0.00    +0.000 A 
ATOM     28  C   UNL     1       8.673  11.344  21.794  0.00  0.00    +0.000 A 
ENDBRANCH  22  23
ENDBRANCH  17  22
ENDBRANCH  16  18
ENDBRANCH   1  16
TORSDOF 7
ENDMDL
MODEL 7
REMARK VINA RESULT:      -7.1      1.981      6.257
REMARK  Name = 
REMARK  8 active torsions:
REMARK  status: ('A' for Active; 'I' for Inactive)
REMARK    1  A    between atoms: C_1  and  C_2
REMARK    2  A    between atoms: C_2  and  N_3
REMARK    3  A    between atoms: C_2  and  C_20
REMARK    4  A    between atoms: C_4  and  C_6
REMARK    5  A    between atoms: C_6  and  S_7
REMARK    6  A    between atoms: S_7  and  C_8
REMARK    7  A    between atoms: C_11  and  C_12
REMARK    8  A    between atoms: N_18  and  N_19
REMARK                            x       y       z     vdW  Elec       q    Type
REMARK                         _______ _______ _______ _____ _____    ______ ____
ROOT
ATOM      1  S   UNL     1       3.848   2.518  20.278  0.00  0.00    +0.000 S 
ENDROOT
BRANCH   1   2
ATOM      2  C   UNL     1       2.631   3.752  20.324  0.00  0.00    +0.000 A 
ATOM      3  N   UNL     1       1.355   3.601  20.588  0.00  0.00    +0.000 NA
ATOM      4  N   UNL     1       0.785   4.856  20.585  0.00  0.00    +0.000 NA
ATOM      5  C   UNL     1       1.717   5.756  20.298  0.00  0.00    +0.000 A 
ATOM      6  N   UNL     1       2.914   5.081  20.113  0.00  0.00    +0.000 N 
BRANCH   5   7
ATOM      7  C   UNL     1       1.526   7.209  20.284  0.00  0.00    +0.000 A 
ATOM      8  C   UNL     1       1.703   8.006  19.149  0.00  0.00    +0.000 A 
ATOM      9  C   UNL     1       1.560   9.389  19.233  0.00  0.00    +0.000 A 
ATOM     10  C   UNL     1       1.218   9.946  20.454  0.00  0.00    +0.000 A 
ATOM     11  N   UNL     1       1.010   9.215  21.569  0.00  0.00    +0.000 NA
ATOM     12  C   UNL     1       1.158   7.871  21.455  0.00  0.00    +0.000 A 
ENDBRANCH   5   7
BRANCH   6  13
ATOM     13  N   UNL     1       4.214   5.655  19.849  0.00  0.00    +0.000 N 
ATOM     14  H   UNL     1       4.438   5.621  18.856  0.00  0.00    +0.000 HD
ATOM     15  H   UNL     1       4.208   6.649  20.086  0.00  0.00    +0.000 HD
ENDBRANCH   6  13
ENDBRANCH   1   2
BRANCH   1  16
ATOM     16  C   UNL     1       3.607   1.819  18.617  0.00  0.00    +0.000 C 
BRANCH  16  18
ATOM     17  N   UNL     1       5.118   3.402  17.519  0.00  0.00    +0.000 N 
ATOM     18  C   UNL     1       3.828   2.923  17.591  0.00  0.00    +0.000 C 
ATOM     19  O   UNL     1       2.923   3.332  16.864  0.00  0.00    +0.000 OA
ATOM     20  H   UNL     1       5.817   3.050  18.159  0.00  0.00    +0.000 HD
BRANCH  17  22
ATOM     21  C   UNL     1       6.196   3.765  15.319  0.00  0.00    +0.000 C 
ATOM     22  C   UNL     1       5.526   4.403  16.542  0.00  0.00    +0.000 C 
BRANCH  22  23
ATOM     23  C   UNL     1       6.436   5.428  17.196  0.00  0.00    +0.000 A 
ATOM     24  C   UNL     1       6.428   6.756  16.745  0.00  0.00    +0.000 A 
ATOM     25  C   UNL     1       7.248   7.716  17.342  0.00  0.00    +0.000 A 
ATOM     26  C   UNL     1       8.084   7.359  18.398  0.00  0.00    +0.000 A 
ATOM     27  C   UNL     1       8.105   6.045  18.857  0.00  0.00    +0.000 A 
ATOM     28  C   UNL     1       7.289   5.084  18.260  0.00  0.00    +0.000 A 
ENDBRANCH  22  23
ENDBRANCH  17  22
ENDBRANCH  16  18
ENDBRANCH   1  16
TORSDOF 7
ENDMDL
MODEL 8
REMARK VINA RESULT:      -7.1      5.297      7.182
REMARK  Name = 
REMARK  8 active torsions:
REMARK  status: ('A' for Active; 'I' for Inactive)
REMARK    1  A    between atoms: C_1  and  C_2
REMARK    2  A    between atoms: C_2  and  N_3
REMARK    3  A    between atoms: C_2  and  C_20
REMARK    4  A    between atoms: C_4  and  C_6
REMARK    5  A    between atoms: C_6  and  S_7
REMARK    6  A    between atoms: S_7  and  C_8
REMARK    7  A    between atoms: C_11  and  C_12
REMARK    8  A    between atoms: N_18  and  N_19
REMARK                            x       y       z     vdW  Elec       q    Type
REMARK                         _______ _______ _______ _____ _____    ______ ____
ROOT
ATOM      1  S   UNL     1       7.284   6.206  16.772  0.00  0.00    +0.000 S 
ENDROOT
BRANCH   1   2
ATOM      2  C   UNL     1       6.366   5.240  17.879  0.00  0.00    +0.000 A 
ATOM      3  N   UNL     1       6.812   4.594  18.931  0.00  0.00    +0.000 NA
ATOM      4  N   UNL     1       5.722   4.025  19.555  0.00  0.00    +0.000 NA
ATOM      5  C   UNL     1       4.626   4.313  18.863  0.00  0.00    +0.000 A 
ATOM      6  N   UNL     1       5.004   5.084  17.775  0.00  0.00    +0.000 N 
BRANCH   5   7
ATOM      7  C   UNL     1       3.256   3.962  19.250  0.00  0.00    +0.000 A 
ATOM      8  C   UNL     1       2.579   4.545  20.325  0.00  0.00    +0.000 A 
ATOM      9  C   UNL     1       1.299   4.113  20.665  0.00  0.00    +0.000 A 
ATOM     10  C   UNL     1       0.712   3.117  19.902  0.00  0.00    +0.000 A 
ATOM     11  N   UNL     1       1.316   2.546  18.839  0.00  0.00    +0.000 NA
ATOM     12  C   UNL     1       2.563   2.987  18.534  0.00  0.00    +0.000 A 
ENDBRANCH   5   7
BRANCH   6  13
ATOM     13  N   UNL     1       4.140   5.684  16.783  0.00  0.00    +0.000 N 
ATOM     14  H   UNL     1       3.399   5.043  16.501  0.00  0.00    +0.000 HD
ATOM     15  H   UNL     1       3.655   6.487  17.186  0.00  0.00    +0.000 HD
ENDBRANCH   6  13
ENDBRANCH   1   2
BRANCH   1  16
ATOM     16  C   UNL     1       6.964   7.886  17.389  0.00  0.00    +0.000 C 
BRANCH  16  18
ATOM     17  N   UNL     1       8.464   9.653  18.181  0.00  0.00    +0.000 N 
ATOM     18  C   UNL     1       8.141   8.316  18.256  0.00  0.00    +0.000 C 
ATOM     19  O   UNL     1       8.736   7.526  18.989  0.00  0.00    +0.000 OA
ATOM     20  H   UNL     1       7.959  10.252  17.542  0.00  0.00    +0.000 HD
BRANCH  17  22
ATOM     21  C   UNL     1       9.021  10.550  20.421  0.00  0.00    +0.000 C 
ATOM     22  C   UNL     1       9.511  10.251  18.999  0.00  0.00    +0.000 C 
BRANCH  22  23
ATOM     23  C   UNL     1      10.045  11.503  18.326  0.00  0.00    +0.000 A 
ATOM     24  C   UNL     1       9.191  12.595  18.106  0.00  0.00    +0.000 A 
ATOM     25  C   UNL     1       9.666  13.760  17.500  0.00  0.00    +0.000 A 
ATOM     26  C   UNL     1      11.000  13.847  17.108  0.00  0.00    +0.000 A 
ATOM     27  C   UNL     1      11.860  12.773  17.317  0.00  0.00    +0.000 A 
ATOM     28  C   UNL     1      11.387  11.607  17.919  0.00  0.00    +0.000 A 
ENDBRANCH  22  23
ENDBRANCH  17  22
ENDBRANCH  16  18
ENDBRANCH   1  16
TORSDOF 7
ENDMDL
MODEL 9
REMARK VINA RESULT:      -7.1      5.492      7.510
REMARK  Name = 
REMARK  8 active torsions:
REMARK  status: ('A' for Active; 'I' for Inactive)
REMARK    1  A    between atoms: C_1  and  C_2
REMARK    2  A    between atoms: C_2  and  N_3
REMARK    3  A    between atoms: C_2  and  C_20
REMARK    4  A    between atoms: C_4  and  C_6
REMARK    5  A    between atoms: C_6  and  S_7
REMARK    6  A    between atoms: S_7  and  C_8
REMARK    7  A    between atoms: C_11  and  C_12
REMARK    8  A    between atoms: N_18  and  N_19
REMARK                            x       y       z     vdW  Elec       q    Type
REMARK                         _______ _______ _______ _____ _____    ______ ____
ROOT
ATOM      1  S   UNL     1       6.988   6.390  17.223  0.00  0.00    +0.000 S 
ENDROOT
BRANCH   1   2
ATOM      2  C   UNL     1       5.336   6.140  17.684  0.00  0.00    +0.000 A 
ATOM      3  N   UNL     1       4.302   6.883  17.368  0.00  0.00    +0.000 NA
ATOM      4  N   UNL     1       3.182   6.268  17.889  0.00  0.00    +0.000 NA
ATOM      5  C   UNL     1       3.552   5.169  18.534  0.00  0.00    +0.000 A 
ATOM      6  N   UNL     1       4.930   5.061  18.432  0.00  0.00    +0.000 N 
BRANCH   5   7
ATOM      7  C   UNL     1       2.645   4.195  19.150  0.00  0.00    +0.000 A 
ATOM      8  C   UNL     1       2.617   3.918  20.520  0.00  0.00    +0.000 A 
ATOM      9  C   UNL     1       1.766   2.935  21.020  0.00  0.00    +0.000 A 
ATOM     10  C   UNL     1       0.939   2.262  20.135  0.00  0.00    +0.000 A 
ATOM     11  N   UNL     1       0.912   2.515  18.810  0.00  0.00    +0.000 NA
ATOM     12  C   UNL     1       1.753   3.478  18.354  0.00  0.00    +0.000 A 
ENDBRANCH   5   7
BRANCH   6  13
ATOM     13  N   UNL     1       5.765   3.988  18.924  0.00  0.00    +0.000 N 
ATOM     14  H   UNL     1       6.488   4.340  19.550  0.00  0.00    +0.000 HD
ATOM     15  H   UNL     1       5.208   3.350  19.495  0.00  0.00    +0.000 HD
ENDBRANCH   6  13
ENDBRANCH   1   2
BRANCH   1  16
ATOM     16  C   UNL     1       7.121   8.203  17.282  0.00  0.00    +0.000 C 
BRANCH  16  18
ATOM     17  N   UNL     1       8.648   9.901  18.167  0.00  0.00    +0.000 N 
ATOM     18  C   UNL     1       8.279   8.573  18.200  0.00  0.00    +0.000 C 
ATOM     19  O   UNL     1       8.823   7.748  18.933  0.00  0.00    +0.000 OA
ATOM     20  H   UNL     1       8.187  10.531  17.526  0.00  0.00    +0.000 HD
BRANCH  17  22
ATOM     21  C   UNL     1       9.137  10.793  20.425  0.00  0.00    +0.000 C 
ATOM     22  C   UNL     1       9.684  10.445  19.036  0.00  0.00    +0.000 C 
BRANCH  22  23
ATOM     23  C   UNL     1      10.330  11.652  18.380  0.00  0.00    +0.000 A 
ATOM     24  C   UNL     1      11.721  11.684  18.192  0.00  0.00    +0.000 A 
ATOM     25  C   UNL     1      12.332  12.780  17.580  0.00  0.00    +0.000 A 
ATOM     26  C   UNL     1      11.561  13.856  17.147  0.00  0.00    +0.000 A 
ATOM     27  C   UNL     1      10.181  13.842  17.327  0.00  0.00    +0.000 A 
ATOM     28  C   UNL     1       9.568  12.750  17.942  0.00  0.00    +0.000 A 
ENDBRANCH  22  23
ENDBRANCH  17  22
ENDBRANCH  16  18
ENDBRANCH   1  16
TORSDOF 7
ENDMDL
