MODEL 1
REMARK VINA RESULT:      -8.1      0.000      0.000
REMARK  Name = 
REMARK  6 active torsions:
REMARK  status: ('A' for Active; 'I' for Inactive)
REMARK    1  A    between atoms: C_1  and  C_2
REMARK    2  A    between atoms: C_2  and  C_4
REMARK    3  A    between atoms: C_6  and  C_7
REMARK    4  A    between atoms: C_9  and  C_10
REMARK    5  A    between atoms: C_21  and  C_22
REMARK    6  A    between atoms: C_21  and  C_23
REMARK                            x       y       z     vdW  Elec       q    Type
REMARK                         _______ _______ _______ _____ _____    ______ ____
ROOT
ATOM      1  C   UNL     1       3.015   6.980  18.672  0.00  0.00    +0.000 A 
ATOM      2  N   UNL     1       2.254   7.596  19.554  0.00  0.00    +0.000 NA
ATOM      3  C   UNL     1       1.780   8.670  18.850  0.00  0.00    +0.000 A 
ATOM      4  N   UNL     1       2.263   8.762  17.602  0.00  0.00    +0.000 NA
ATOM      5  O   UNL     1       3.093   7.652  17.486  0.00  0.00    +0.000 OA
ENDROOT
BRANCH   3   6
ATOM      6  C   UNL     1       0.791   9.627  19.388  0.00  0.00    +0.000 A 
ATOM      7  C   UNL     1       0.107  10.571  18.653  0.00  0.00    +0.000 A 
ATOM      8  N   UNL     1      -0.741  11.305  19.440  0.00  0.00    +0.000 NA
ATOM      9  C   UNL     1      -0.576  10.827  20.656  0.00  0.00    +0.000 A 
ATOM     10  C   UNL     1      -1.165  11.222  21.890  0.00  0.00    +0.000 A 
ATOM     11  C   UNL     1      -0.824  10.589  23.030  0.00  0.00    +0.000 A 
ATOM     12  C   UNL     1       0.123   9.487  23.026  0.00  0.00    +0.000 A 
ATOM     13  C   UNL     1       0.682   9.106  21.864  0.00  0.00    +0.000 A 
ATOM     14  N   UNL     1       0.346   9.776  20.685  0.00  0.00    +0.000 N 
ENDBRANCH   3   6
BRANCH   1  17
ATOM     15  C   UNL     1       3.135   3.569  19.409  0.00  0.00    +0.000 C 
ATOM     16  C   UNL     1       3.301   4.890  20.197  0.00  0.00    +0.000 C 
ATOM     17  C   UNL     1       3.661   5.617  18.882  0.00  0.00    +0.000 C 
ATOM     18  C   UNL     1       2.938   4.435  18.116  0.00  0.00    +0.000 C 
ATOM     19  C   UNL     1       1.483   4.647  17.680  0.00  0.00    +0.000 C 
ATOM     20  C   UNL     1       3.763   3.911  16.933  0.00  0.00    +0.000 C 
BRANCH  15  22
ATOM     21  C   UNL     1       1.295   2.920  21.141  0.00  0.00    +0.000 C 
ATOM     22  C   UNL     1       1.987   2.607  19.837  0.00  0.00    +0.000 C 
ATOM     23  O   UNL     1       1.615   1.636  19.169  0.00  0.00    +0.000 OA
ENDBRANCH  15  22
ENDBRANCH   1  17
TORSDOF 3
ENDMDL
MODEL 2
REMARK VINA RESULT:      -7.8      1.231      2.238
REMARK  Name = 
REMARK  6 active torsions:
REMARK  status: ('A' for Active; 'I' for Inactive)
REMARK    1  A    between atoms: C_1  and  C_2
REMARK    2  A    between atoms: C_2  and  C_4
REMARK    3  A    between atoms: C_6  and  C_7
REMARK    4  A    between atoms: C_9  and  C_10
REMARK    5  A    between atoms: C_21  and  C_22
REMARK    6  A    between atoms: C_21  and  C_23
REMARK                            x       y       z     vdW  Elec       q    Type
REMARK                         _______ _______ _______ _____ _____    ______ ____
ROOT
ATOM      1  C   UNL     1       2.913   7.133  18.674  0.00  0.00    +0.000 A 
ATOM      2  N   UNL     1       2.154   7.783  19.531  0.00  0.00    +0.000 NA
ATOM      3  C   UNL     1       1.658   8.813  18.779  0.00  0.00    +0.000 A 
ATOM      4  N   UNL     1       2.126   8.848  17.523  0.00  0.00    +0.000 NA
ATOM      5  O   UNL     1       2.969   7.744  17.454  0.00  0.00    +0.000 OA
ENDROOT
BRANCH   3   6
ATOM      6  C   UNL     1       0.662   9.784  19.278  0.00  0.00    +0.000 A 
ATOM      7  C   UNL     1       0.736  10.466  20.474  0.00  0.00    +0.000 A 
ATOM      8  N   UNL     1      -0.340  11.295  20.648  0.00  0.00    +0.000 NA
ATOM      9  C   UNL     1      -1.082  11.122  19.575  0.00  0.00    +0.000 A 
ATOM     10  C   UNL     1      -2.338  11.690  19.219  0.00  0.00    +0.000 A 
ATOM     11  C   UNL     1      -2.927  11.343  18.058  0.00  0.00    +0.000 A 
ATOM     12  C   UNL     1      -2.295  10.409  17.141  0.00  0.00    +0.000 A 
ATOM     13  C   UNL     1      -1.108   9.868  17.469  0.00  0.00    +0.000 A 
ATOM     14  N   UNL     1      -0.506  10.211  18.683  0.00  0.00    +0.000 N 
ENDBRANCH   3   6
BRANCH   1  17
ATOM     15  C   UNL     1       3.075   3.738  19.474  0.00  0.00    +0.000 C 
ATOM     16  C   UNL     1       3.158   5.075  20.249  0.00  0.00    +0.000 C 
ATOM     17  C   UNL     1       3.580   5.791  18.946  0.00  0.00    +0.000 C 
ATOM     18  C   UNL     1       2.936   4.579  18.157  0.00  0.00    +0.000 C 
ATOM     19  C   UNL     1       1.506   4.745  17.629  0.00  0.00    +0.000 C 
ATOM     20  C   UNL     1       3.846   4.058  17.036  0.00  0.00    +0.000 C 
BRANCH  15  22
ATOM     21  C   UNL     1       1.194   3.027  21.136  0.00  0.00    +0.000 C 
ATOM     22  C   UNL     1       1.928   2.753  19.847  0.00  0.00    +0.000 C 
ATOM     23  O   UNL     1       1.587   1.793  19.147  0.00  0.00    +0.000 OA
ENDBRANCH  15  22
ENDBRANCH   1  17
TORSDOF 3
ENDMDL
MODEL 3
REMARK VINA RESULT:      -7.5      2.224      3.747
REMARK  Name = 
REMARK  6 active torsions:
REMARK  status: ('A' for Active; 'I' for Inactive)
REMARK    1  A    between atoms: C_1  and  C_2
REMARK    2  A    between atoms: C_2  and  C_4
REMARK    3  A    between atoms: C_6  and  C_7
REMARK    4  A    between atoms: C_9  and  C_10
REMARK    5  A    between atoms: C_21  and  C_22
REMARK    6  A    between atoms: C_21  and  C_23
REMARK                            x       y       z     vdW  Elec       q    Type
REMARK                         _______ _______ _______ _____ _____    ______ ____
ROOT
ATOM      1  C   UNL     1       2.676   6.241  18.645  0.00  0.00    +0.000 A 
ATOM      2  N   UNL     1       2.325   7.496  18.835  0.00  0.00    +0.000 NA
ATOM      3  C   UNL     1       1.763   7.470  20.083  0.00  0.00    +0.000 A 
ATOM      4  N   UNL     1       1.707   6.247  20.632  0.00  0.00    +0.000 NA
ATOM      5  O   UNL     1       2.297   5.429  19.675  0.00  0.00    +0.000 OA
ENDROOT
BRANCH   3   6
ATOM      6  C   UNL     1       1.294   8.677  20.794  0.00  0.00    +0.000 A 
ATOM      7  C   UNL     1       1.440   8.921  22.143  0.00  0.00    +0.000 A 
ATOM      8  N   UNL     1       0.902  10.131  22.496  0.00  0.00    +0.000 NA
ATOM      9  C   UNL     1       0.416  10.628  21.379  0.00  0.00    +0.000 A 
ATOM     10  C   UNL     1      -0.290  11.840  21.138  0.00  0.00    +0.000 A 
ATOM     11  C   UNL     1      -0.715  12.135  19.894  0.00  0.00    +0.000 A 
ATOM     12  C   UNL     1      -0.447  11.246  18.776  0.00  0.00    +0.000 A 
ATOM     13  C   UNL     1       0.221  10.099  18.994  0.00  0.00    +0.000 A 
ATOM     14  N   UNL     1       0.643   9.782  20.288  0.00  0.00    +0.000 N 
ENDBRANCH   3   6
BRANCH   1  17
ATOM     15  C   UNL     1       5.582   5.433  16.887  0.00  0.00    +0.000 C 
ATOM     16  C   UNL     1       4.650   6.664  17.003  0.00  0.00    +0.000 C 
ATOM     17  C   UNL     1       3.505   5.738  17.471  0.00  0.00    +0.000 C 
ATOM     18  C   UNL     1       4.617   4.685  17.871  0.00  0.00    +0.000 C 
ATOM     19  C   UNL     1       5.072   4.643  19.335  0.00  0.00    +0.000 C 
ATOM     20  C   UNL     1       4.282   3.266  17.390  0.00  0.00    +0.000 C 
BRANCH  15  22
ATOM     21  C   UNL     1       7.498   6.996  17.719  0.00  0.00    +0.000 C 
ATOM     22  C   UNL     1       7.072   5.610  17.303  0.00  0.00    +0.000 C 
ATOM     23  O   UNL     1       7.897   4.689  17.325  0.00  0.00    +0.000 OA
ENDBRANCH  15  22
ENDBRANCH   1  17
TORSDOF 3
ENDMDL
MODEL 4
REMARK VINA RESULT:      -7.4      2.482      3.957
REMARK  Name = 
REMARK  6 active torsions:
REMARK  status: ('A' for Active; 'I' for Inactive)
REMARK    1  A    between atoms: C_1  and  C_2
REMARK    2  A    between atoms: C_2  and  C_4
REMARK    3  A    between atoms: C_6  and  C_7
REMARK    4  A    between atoms: C_9  and  C_10
REMARK    5  A    between atoms: C_21  and  C_22
REMARK    6  A    between atoms: C_21  and  C_23
REMARK                            x       y       z     vdW  Elec       q    Type
REMARK                         _______ _______ _______ _____ _____    ______ ____
ROOT
ATOM      1  C   UNL     1       4.097   5.390  18.849  0.00  0.00    +0.000 A 
ATOM      2  N   UNL     1       3.702   6.564  18.401  0.00  0.00    +0.000 NA
ATOM      3  C   UNL     1       2.629   6.851  19.201  0.00  0.00    +0.000 A 
ATOM      4  N   UNL     1       2.323   5.879  20.073  0.00  0.00    +0.000 NA
ATOM      5  O   UNL     1       3.284   4.904  19.833  0.00  0.00    +0.000 OA
ENDROOT
BRANCH   3   6
ATOM      6  C   UNL     1       1.890   8.130  19.150  0.00  0.00    +0.000 A 
ATOM      7  C   UNL     1       1.689   8.895  18.022  0.00  0.00    +0.000 A 
ATOM      8  N   UNL     1       0.963  10.022  18.301  0.00  0.00    +0.000 NA
ATOM      9  C   UNL     1       0.725   9.963  19.594  0.00  0.00    +0.000 A 
ATOM     10  C   UNL     1       0.047  10.876  20.451  0.00  0.00    +0.000 A 
ATOM     11  C   UNL     1      -0.059  10.609  21.768  0.00  0.00    +0.000 A 
ATOM     12  C   UNL     1       0.490   9.390  22.336  0.00  0.00    +0.000 A 
ATOM     13  C   UNL     1       1.130   8.520  21.534  0.00  0.00    +0.000 A 
ATOM     14  N   UNL     1       1.259   8.807  20.172  0.00  0.00    +0.000 N 
ENDBRANCH   3   6
BRANCH   1  17
ATOM     15  C   UNL     1       6.654   4.437  16.671  0.00  0.00    +0.000 C 
ATOM     16  C   UNL     1       5.282   3.866  17.103  0.00  0.00    +0.000 C 
ATOM     17  C   UNL     1       5.371   4.677  18.416  0.00  0.00    +0.000 C 
ATOM     18  C   UNL     1       6.416   5.612  17.682  0.00  0.00    +0.000 C 
ATOM     19  C   UNL     1       5.902   6.918  17.065  0.00  0.00    +0.000 C 
ATOM     20  C   UNL     1       7.654   5.897  18.544  0.00  0.00    +0.000 C 
BRANCH  15  22
ATOM     21  C   UNL     1       5.784   4.309  14.215  0.00  0.00    +0.000 C 
ATOM     22  C   UNL     1       6.854   4.784  15.167  0.00  0.00    +0.000 C 
ATOM     23  O   UNL     1       7.814   5.428  14.729  0.00  0.00    +0.000 OA
ENDBRANCH  15  22
ENDBRANCH   1  17
TORSDOF 3
ENDMDL
MODEL 5
REMARK VINA RESULT:      -7.4      6.445      7.720
REMARK  Name = 
REMARK  6 active torsions:
REMARK  status: ('A' for Active; 'I' for Inactive)
REMARK    1  A    between atoms: C_1  and  C_2
REMARK    2  A    between atoms: C_2  and  C_4
REMARK    3  A    between atoms: C_6  and  C_7
REMARK    4  A    between atoms: C_9  and  C_10
REMARK    5  A    between atoms: C_21  and  C_22
REMARK    6  A    between atoms: C_21  and  C_23
REMARK                            x       y       z     vdW  Elec       q    Type
REMARK                         _______ _______ _______ _____ _____    ______ ____
ROOT
ATOM      1  C   UNL     1       7.782   7.545  17.652  0.00  0.00    +0.000 A 
ATOM      2  N   UNL     1       7.717   8.790  17.226  0.00  0.00    +0.000 NA
ATOM      3  C   UNL     1       8.431   9.474  18.172  0.00  0.00    +0.000 A 
ATOM      4  N   UNL     1       8.876   8.709  19.180  0.00  0.00    +0.000 NA
ATOM      5  O   UNL     1       8.435   7.433  18.846  0.00  0.00    +0.000 OA
ENDROOT
BRANCH   3   6
ATOM      6  C   UNL     1       8.730  10.919  18.085  0.00  0.00    +0.000 A 
ATOM      7  C   UNL     1       7.946  11.863  17.459  0.00  0.00    +0.000 A 
ATOM      8  N   UNL     1       8.494  13.115  17.554  0.00  0.00    +0.000 NA
ATOM      9  C   UNL     1       9.614  12.947  18.223  0.00  0.00    +0.000 A 
ATOM     10  C   UNL     1      10.620  13.886  18.591  0.00  0.00    +0.000 A 
ATOM     11  C   UNL     1      11.708  13.474  19.270  0.00  0.00    +0.000 A 
ATOM     12  C   UNL     1      11.872  12.083  19.658  0.00  0.00    +0.000 A 
ATOM     13  C   UNL     1      10.926  11.189  19.317  0.00  0.00    +0.000 A 
ATOM     14  N   UNL     1       9.808  11.612  18.594  0.00  0.00    +0.000 N 
ENDBRANCH   3   6
BRANCH   1  17
ATOM     15  C   UNL     1       5.940   4.634  17.084  0.00  0.00    +0.000 C 
ATOM     16  C   UNL     1       7.351   4.979  17.618  0.00  0.00    +0.000 C 
ATOM     17  C   UNL     1       7.290   6.333  16.874  0.00  0.00    +0.000 C 
ATOM     18  C   UNL     1       5.715   6.170  16.860  0.00  0.00    +0.000 C 
ATOM     19  C   UNL     1       4.911   6.885  17.952  0.00  0.00    +0.000 C 
ATOM     20  C   UNL     1       5.106   6.474  15.485  0.00  0.00    +0.000 C 
BRANCH  15  22
ATOM     21  C   UNL     1       3.677   3.384  17.432  0.00  0.00    +0.000 C 
ATOM     22  C   UNL     1       4.969   3.876  18.036  0.00  0.00    +0.000 C 
ATOM     23  O   UNL     1       5.208   3.648  19.227  0.00  0.00    +0.000 OA
ENDBRANCH  15  22
ENDBRANCH   1  17
TORSDOF 3
ENDMDL
MODEL 6
REMARK VINA RESULT:      -7.4      6.598      7.971
REMARK  Name = 
REMARK  6 active torsions:
REMARK  status: ('A' for Active; 'I' for Inactive)
REMARK    1  A    between atoms: C_1  and  C_2
REMARK    2  A    between atoms: C_2  and  C_4
REMARK    3  A    between atoms: C_6  and  C_7
REMARK    4  A    between atoms: C_9  and  C_10
REMARK    5  A    between atoms: C_21  and  C_22
REMARK    6  A    between atoms: C_21  and  C_23
REMARK                            x       y       z     vdW  Elec       q    Type
REMARK                         _______ _______ _______ _____ _____    ______ ____
ROOT
ATOM      1  C   UNL     1       7.968   7.499  18.050  0.00  0.00    +0.000 A 
ATOM      2  N   UNL     1       8.758   8.064  18.938  0.00  0.00    +0.000 NA
ATOM      3  C   UNL     1       8.684   9.392  18.612  0.00  0.00    +0.000 A 
ATOM      4  N   UNL     1       7.930   9.648  17.533  0.00  0.00    +0.000 NA
ATOM      5  O   UNL     1       7.466   8.394  17.149  0.00  0.00    +0.000 OA
ENDROOT
BRANCH   3   6
ATOM      6  C   UNL     1       9.336  10.463  19.393  0.00  0.00    +0.000 A 
ATOM      7  C   UNL     1       9.117  10.728  20.728  0.00  0.00    +0.000 A 
ATOM      8  N   UNL     1       9.874  11.784  21.162  0.00  0.00    +0.000 NA
ATOM      9  C   UNL     1      10.550  12.177  20.103  0.00  0.00    +0.000 A 
ATOM     10  C   UNL     1      11.467  13.254  19.941  0.00  0.00    +0.000 A 
ATOM     11  C   UNL     1      12.031  13.481  18.738  0.00  0.00    +0.000 A 
ATOM     12  C   UNL     1      11.737  12.631  17.596  0.00  0.00    +0.000 A 
ATOM     13  C   UNL     1      10.873  11.611  17.741  0.00  0.00    +0.000 A 
ATOM     14  N   UNL     1      10.272  11.388  18.982  0.00  0.00    +0.000 N 
ENDBRANCH   3   6
BRANCH   1  17
ATOM     15  C   UNL     1       5.811   4.782  18.446  0.00  0.00    +0.000 C 
ATOM     16  C   UNL     1       6.823   5.545  19.333  0.00  0.00    +0.000 C 
ATOM     17  C   UNL     1       7.553   6.034  18.061  0.00  0.00    +0.000 C 
ATOM     18  C   UNL     1       6.215   5.735  17.269  0.00  0.00    +0.000 C 
ATOM     19  C   UNL     1       5.259   6.905  17.009  0.00  0.00    +0.000 C 
ATOM     20  C   UNL     1       6.466   4.971  15.962  0.00  0.00    +0.000 C 
BRANCH  15  22
ATOM     21  C   UNL     1       3.405   3.811  18.165  0.00  0.00    +0.000 C 
ATOM     22  C   UNL     1       4.321   4.758  18.901  0.00  0.00    +0.000 C 
ATOM     23  O   UNL     1       3.870   5.447  19.822  0.00  0.00    +0.000 OA
ENDBRANCH  15  22
ENDBRANCH   1  17
TORSDOF 3
ENDMDL
MODEL 7
REMARK VINA RESULT:      -7.4      2.180      3.213
REMARK  Name = 
REMARK  6 active torsions:
REMARK  status: ('A' for Active; 'I' for Inactive)
REMARK    1  A    between atoms: C_1  and  C_2
REMARK    2  A    between atoms: C_2  and  C_4
REMARK    3  A    between atoms: C_6  and  C_7
REMARK    4  A    between atoms: C_9  and  C_10
REMARK    5  A    between atoms: C_21  and  C_22
REMARK    6  A    between atoms: C_21  and  C_23
REMARK                            x       y       z     vdW  Elec       q    Type
REMARK                         _______ _______ _______ _____ _____    ______ ____
ROOT
ATOM      1  C   UNL     1       3.334   6.929  18.194  0.00  0.00    +0.000 A 
ATOM      2  N   UNL     1       2.533   7.395  19.130  0.00  0.00    +0.000 NA
ATOM      3  C   UNL     1       2.001   8.513  18.547  0.00  0.00    +0.000 A 
ATOM      4  N   UNL     1       2.485   8.775  17.324  0.00  0.00    +0.000 NA
ATOM      5  O   UNL     1       3.379   7.736  17.093  0.00  0.00    +0.000 OA
ENDROOT
BRANCH   3   6
ATOM      6  C   UNL     1       0.954   9.344  19.178  0.00  0.00    +0.000 A 
ATOM      7  C   UNL     1       0.068  10.161  18.510  0.00  0.00    +0.000 A 
ATOM      8  N   UNL     1      -0.780  10.798  19.376  0.00  0.00    +0.000 NA
ATOM      9  C   UNL     1      -0.417  10.388  20.573  0.00  0.00    +0.000 A 
ATOM     10  C   UNL     1      -0.914  10.741  21.860  0.00  0.00    +0.000 A 
ATOM     11  C   UNL     1      -0.364  10.198  22.964  0.00  0.00    +0.000 A 
ATOM     12  C   UNL     1       0.721   9.236  22.871  0.00  0.00    +0.000 A 
ATOM     13  C   UNL     1       1.196   8.896  21.659  0.00  0.00    +0.000 A 
ATOM     14  N   UNL     1       0.640   9.475  20.514  0.00  0.00    +0.000 N 
ENDBRANCH   3   6
BRANCH   1  17
ATOM     15  C   UNL     1       5.551   4.435  17.166  0.00  0.00    +0.000 C 
ATOM     16  C   UNL     1       4.052   4.756  16.954  0.00  0.00    +0.000 C 
ATOM     17  C   UNL     1       4.058   5.591  18.255  0.00  0.00    +0.000 C 
ATOM     18  C   UNL     1       5.629   5.699  18.091  0.00  0.00    +0.000 C 
ATOM     19  C   UNL     1       6.196   6.963  17.433  0.00  0.00    +0.000 C 
ATOM     20  C   UNL     1       6.376   5.415  19.401  0.00  0.00    +0.000 C 
BRANCH  15  22
ATOM     21  C   UNL     1       5.772   4.358  14.568  0.00  0.00    +0.000 C 
ATOM     22  C   UNL     1       6.466   4.381  15.907  0.00  0.00    +0.000 C 
ATOM     23  O   UNL     1       7.701   4.375  15.952  0.00  0.00    +0.000 OA
ENDBRANCH  15  22
ENDBRANCH   1  17
TORSDOF 3
ENDMDL
MODEL 8
REMARK VINA RESULT:      -7.4      1.804      2.699
REMARK  Name = 
REMARK  6 active torsions:
REMARK  status: ('A' for Active; 'I' for Inactive)
REMARK    1  A    between atoms: C_1  and  C_2
REMARK    2  A    between atoms: C_2  and  C_4
REMARK    3  A    between atoms: C_6  and  C_7
REMARK    4  A    between atoms: C_9  and  C_10
REMARK    5  A    between atoms: C_21  and  C_22
REMARK    6  A    between atoms: C_21  and  C_23
REMARK                            x       y       z     vdW  Elec       q    Type
REMARK                         _______ _______ _______ _____ _____    ______ ____
ROOT
ATOM      1  C   UNL     1       2.214   7.841  18.418  0.00  0.00    +0.000 A 
ATOM      2  N   UNL     1       1.953   7.915  19.707  0.00  0.00    +0.000 NA
ATOM      3  C   UNL     1       1.289   9.107  19.816  0.00  0.00    +0.000 A 
ATOM      4  N   UNL     1       1.186   9.783  18.662  0.00  0.00    +0.000 NA
ATOM      5  O   UNL     1       1.811   8.954  17.737  0.00  0.00    +0.000 OA
ENDROOT
BRANCH   3   6
ATOM      6  C   UNL     1       0.695   9.599  21.076  0.00  0.00    +0.000 A 
ATOM      7  C   UNL     1       1.021   9.160  22.341  0.00  0.00    +0.000 A 
ATOM      8  N   UNL     1       0.296   9.813  23.303  0.00  0.00    +0.000 NA
ATOM      9  C   UNL     1      -0.481  10.643  22.640  0.00  0.00    +0.000 A 
ATOM     10  C   UNL     1      -1.474  11.551  23.106  0.00  0.00    +0.000 A 
ATOM     11  C   UNL     1      -2.169  12.297  22.225  0.00  0.00    +0.000 A 
ATOM     12  C   UNL     1      -1.913  12.212  20.798  0.00  0.00    +0.000 A 
ATOM     13  C   UNL     1      -0.975  11.358  20.348  0.00  0.00    +0.000 A 
ATOM     14  N   UNL     1      -0.269  10.568  21.259  0.00  0.00    +0.000 N 
ENDBRANCH   3   6
BRANCH   1  17
ATOM     15  C   UNL     1       4.052   4.887  18.127  0.00  0.00    +0.000 C 
ATOM     16  C   UNL     1       4.317   6.396  17.907  0.00  0.00    +0.000 C 
ATOM     17  C   UNL     1       2.800   6.623  17.717  0.00  0.00    +0.000 C 
ATOM     18  C   UNL     1       2.573   5.261  18.492  0.00  0.00    +0.000 C 
ATOM     19  C   UNL     1       2.262   5.332  19.991  0.00  0.00    +0.000 C 
ATOM     20  C   UNL     1       1.554   4.351  17.793  0.00  0.00    +0.000 C 
BRANCH  15  22
ATOM     21  C   UNL     1       4.524   2.723  19.505  0.00  0.00    +0.000 C 
ATOM     22  C   UNL     1       4.912   4.147  19.193  0.00  0.00    +0.000 C 
ATOM     23  O   UNL     1       5.884   4.652  19.768  0.00  0.00    +0.000 OA
ENDBRANCH  15  22
ENDBRANCH   1  17
TORSDOF 3
ENDMDL
MODEL 9
REMARK VINA RESULT:      -7.3      2.636      4.558
REMARK  Name = 
REMARK  6 active torsions:
REMARK  status: ('A' for Active; 'I' for Inactive)
REMARK    1  A    between atoms: C_1  and  C_2
REMARK    2  A    between atoms: C_2  and  C_4
REMARK    3  A    between atoms: C_6  and  C_7
REMARK    4  A    between atoms: C_9  and  C_10
REMARK    5  A    between atoms: C_21  and  C_22
REMARK    6  A    between atoms: C_21  and  C_23
REMARK                            x       y       z     vdW  Elec       q    Type
REMARK                         _______ _______ _______ _____ _____    ______ ____
ROOT
ATOM      1  C   UNL     1       4.133   4.998  18.509  0.00  0.00    +0.000 A 
ATOM      2  N   UNL     1       3.890   6.242  18.870  0.00  0.00    +0.000 NA
ATOM      3  C   UNL     1       2.602   6.181  19.329  0.00  0.00    +0.000 A 
ATOM      4  N   UNL     1       2.036   4.971  19.209  0.00  0.00    +0.000 NA
ATOM      5  O   UNL     1       3.042   4.189  18.653  0.00  0.00    +0.000 OA
ENDROOT
BRANCH   3   6
ATOM      6  C   UNL     1       1.898   7.326  19.942  0.00  0.00    +0.000 A 
ATOM      7  C   UNL     1       1.337   7.341  21.201  0.00  0.00    +0.000 A 
ATOM      8  N   UNL     1       0.759   8.551  21.480  0.00  0.00    +0.000 NA
ATOM      9  C   UNL     1       0.950   9.277  20.400  0.00  0.00    +0.000 A 
ATOM     10  C   UNL     1       0.537  10.605  20.095  0.00  0.00    +0.000 A 
ATOM     11  C   UNL     1       0.836  11.144  18.896  0.00  0.00    +0.000 A 
ATOM     12  C   UNL     1       1.596  10.401  17.905  0.00  0.00    +0.000 A 
ATOM     13  C   UNL     1       1.992   9.146  18.185  0.00  0.00    +0.000 A 
ATOM     14  N   UNL     1       1.664   8.580  19.419  0.00  0.00    +0.000 N 
ENDBRANCH   3   6
BRANCH   1  17
ATOM     15  C   UNL     1       6.789   4.384  16.328  0.00  0.00    +0.000 C 
ATOM     16  C   UNL     1       5.513   3.632  16.777  0.00  0.00    +0.000 C 
ATOM     17  C   UNL     1       5.493   4.466  18.078  0.00  0.00    +0.000 C 
ATOM     18  C   UNL     1       6.392   5.529  17.324  0.00  0.00    +0.000 C 
ATOM     19  C   UNL     1       5.695   6.740  16.693  0.00  0.00    +0.000 C 
ATOM     20  C   UNL     1       7.581   5.999  18.173  0.00  0.00    +0.000 C 
BRANCH  15  22
ATOM     21  C   UNL     1       5.919   4.118  13.883  0.00  0.00    +0.000 C 
ATOM     22  C   UNL     1       6.931   4.735  14.817  0.00  0.00    +0.000 C 
ATOM     23  O   UNL     1       7.799   5.488  14.362  0.00  0.00    +0.000 OA
ENDBRANCH  15  22
ENDBRANCH   1  17
TORSDOF 3
ENDMDL
