MODEL 1
REMARK VINA RESULT:      -5.9      0.000      0.000
REMARK  Name = 
REMARK  9 active torsions:
REMARK  status: ('A' for Active; 'I' for Inactive)
REMARK    1  A    between atoms: C_2  and  C_3
REMARK    2  A    between atoms: C_3  and  CA_4
REMARK    3  A    between atoms: CA_4  and  N_5
REMARK    4  A    between atoms: CA_4  and  C_6
REMARK    5  A    between atoms: N_8  and  CA_9
REMARK    6  A    between atoms: CA_9  and  C_10
REMARK    7  A    between atoms: CA_9  and  C_13
REMARK    8  A    between atoms: C_10  and  C_11
REMARK    9  A    between atoms: C_13  and  OXT_15
REMARK                            x       y       z     vdW  Elec       q    Type
REMARK                         _______ _______ _______ _____ _____    ______ ____
ROOT
ATOM      1  C   UNL     1       6.805   5.442  16.025  0.00  0.00    +0.000 C 
ATOM      2  O   UNL     1       7.571   6.319  16.403  0.00  0.00    +0.000 OA
ATOM      3  N   UNL     1       5.711   5.030  16.770  0.00  0.00    +0.000 N 
ATOM      4  H   UNL     1       5.009   4.494  16.262  0.00  0.00    +0.000 HD
ENDROOT
BRANCH   1   5
ATOM      5  CA  UNL     1       6.965   4.663  14.704  0.00  0.00    +0.000 C 
BRANCH   5   6
ATOM      6  N   UNL     1       7.778   5.515  13.785  0.00  0.00    +0.000 NA
ATOM      7  H1  UNL     1       8.234   6.236  14.349  0.00  0.00    +0.000 HD
ATOM      8  H2  UNL     1       7.135   6.036  13.183  0.00  0.00    +0.000 HD
ENDBRANCH   5   6
BRANCH   5   9
ATOM      9  C   UNL     1       5.585   4.261  14.136  0.00  0.00    +0.000 C 
BRANCH   9  11
ATOM     10  C   UNL     1       5.875   2.798  11.738  0.00  0.00    +0.000 C 
ATOM     11  C   UNL     1       5.741   3.474  12.845  0.00  0.00    +0.000 C 
ENDBRANCH   9  11
ENDBRANCH   5   9
ENDBRANCH   1   5
BRANCH   3  12
ATOM     12  CA  UNL     1       5.366   5.662  18.052  0.00  0.00    +0.000 C 
BRANCH  12  13
ATOM     13  C   UNL     1       6.060   4.949  19.221  0.00  0.00    +0.000 C 
ATOM     14  O   UNL     1       6.907   5.454  19.943  0.00  0.00    +0.000 OA
BRANCH  13  15
ATOM     15  OXT UNL     1       5.718   3.638  19.326  0.00  0.00    +0.000 OA
ATOM     16  HXT UNL     1       4.830   3.539  19.730  0.00  0.00    +0.000 HD
ENDBRANCH  13  15
ENDBRANCH  12  13
BRANCH  12  17
ATOM     17  C   UNL     1       3.858   5.786  18.290  0.00  0.00    +0.000 C 
BRANCH  17  18
ATOM     18  C   UNL     1       3.121   4.618  17.783  0.00  0.00    +0.000 C 
ATOM     19  C   UNL     1       2.496   3.701  17.333  0.00  0.00    +0.000 C 
ENDBRANCH  17  18
ENDBRANCH  12  17
ENDBRANCH   3  12
TORSDOF 9
ENDMDL
MODEL 2
REMARK VINA RESULT:      -5.9      1.670      2.269
REMARK  Name = 
REMARK  9 active torsions:
REMARK  status: ('A' for Active; 'I' for Inactive)
REMARK    1  A    between atoms: C_2  and  C_3
REMARK    2  A    between atoms: C_3  and  CA_4
REMARK    3  A    between atoms: CA_4  and  N_5
REMARK    4  A    between atoms: CA_4  and  C_6
REMARK    5  A    between atoms: N_8  and  CA_9
REMARK    6  A    between atoms: CA_9  and  C_10
REMARK    7  A    between atoms: CA_9  and  C_13
REMARK    8  A    between atoms: C_10  and  C_11
REMARK    9  A    between atoms: C_13  and  OXT_15
REMARK                            x       y       z     vdW  Elec       q    Type
REMARK                         _______ _______ _______ _____ _____    ______ ____
ROOT
ATOM      1  C   UNL     1       6.735   4.387  17.367  0.00  0.00    +0.000 C 
ATOM      2  O   UNL     1       7.621   4.485  18.207  0.00  0.00    +0.000 OA
ATOM      3  N   UNL     1       5.415   4.126  17.699  0.00  0.00    +0.000 N 
ATOM      4  H   UNL     1       4.732   4.319  16.968  0.00  0.00    +0.000 HD
ENDROOT
BRANCH   1   5
ATOM      5  CA  UNL     1       6.966   4.505  15.848  0.00  0.00    +0.000 C 
BRANCH   5   6
ATOM      6  N   UNL     1       7.572   5.846  15.595  0.00  0.00    +0.000 NA
ATOM      7  H1  UNL     1       7.933   6.199  16.485  0.00  0.00    +0.000 HD
ATOM      8  H2  UNL     1       6.818   6.496  15.356  0.00  0.00    +0.000 HD
ENDBRANCH   5   6
BRANCH   5   9
ATOM      9  C   UNL     1       5.651   4.252  15.074  0.00  0.00    +0.000 C 
BRANCH   9  11
ATOM     10  C   UNL     1       6.187   3.447  12.421  0.00  0.00    +0.000 C 
ATOM     11  C   UNL     1       5.940   3.819  13.646  0.00  0.00    +0.000 C 
ENDBRANCH   9  11
ENDBRANCH   5   9
ENDBRANCH   1   5
BRANCH   3  12
ATOM     12  CA  UNL     1       4.978   4.001  19.097  0.00  0.00    +0.000 C 
BRANCH  12  13
ATOM     13  C   UNL     1       4.328   2.634  19.350  0.00  0.00    +0.000 C 
ATOM     14  O   UNL     1       3.186   2.335  19.030  0.00  0.00    +0.000 OA
BRANCH  13  15
ATOM     15  OXT UNL     1       5.114   1.793  20.069  0.00  0.00    +0.000 OA
ATOM     16  HXT UNL     1       5.716   1.288  19.483  0.00  0.00    +0.000 HD
ENDBRANCH  13  15
ENDBRANCH  12  13
BRANCH  12  17
ATOM     17  C   UNL     1       4.072   5.145  19.563  0.00  0.00    +0.000 C 
BRANCH  17  18
ATOM     18  C   UNL     1       3.825   6.124  18.493  0.00  0.00    +0.000 C 
ATOM     19  C   UNL     1       3.645   6.960  17.655  0.00  0.00    +0.000 C 
ENDBRANCH  17  18
ENDBRANCH  12  17
ENDBRANCH   3  12
TORSDOF 9
ENDMDL
MODEL 3
REMARK VINA RESULT:      -5.9      2.116      2.559
REMARK  Name = 
REMARK  9 active torsions:
REMARK  status: ('A' for Active; 'I' for Inactive)
REMARK    1  A    between atoms: C_2  and  C_3
REMARK    2  A    between atoms: C_3  and  CA_4
REMARK    3  A    between atoms: CA_4  and  N_5
REMARK    4  A    between atoms: CA_4  and  C_6
REMARK    5  A    between atoms: N_8  and  CA_9
REMARK    6  A    between atoms: CA_9  and  C_10
REMARK    7  A    between atoms: CA_9  and  C_13
REMARK    8  A    between atoms: C_10  and  C_11
REMARK    9  A    between atoms: C_13  and  OXT_15
REMARK                            x       y       z     vdW  Elec       q    Type
REMARK                         _______ _______ _______ _____ _____    ______ ____
ROOT
ATOM      1  C   UNL     1       6.129   4.367  17.587  0.00  0.00    +0.000 C 
ATOM      2  O   UNL     1       6.812   4.540  18.588  0.00  0.00    +0.000 OA
ATOM      3  N   UNL     1       4.820   3.911  17.644  0.00  0.00    +0.000 N 
ATOM      4  H   UNL     1       4.270   4.048  16.797  0.00  0.00    +0.000 HD
ENDROOT
BRANCH   1   5
ATOM      5  CA  UNL     1       6.627   4.598  16.148  0.00  0.00    +0.000 C 
BRANCH   5   6
ATOM      6  N   UNL     1       7.340   5.910  16.131  0.00  0.00    +0.000 NA
ATOM      7  H1  UNL     1       6.719   6.608  16.549  0.00  0.00    +0.000 HD
ATOM      8  H2  UNL     1       7.434   6.209  15.157  0.00  0.00    +0.000 HD
ENDBRANCH   5   6
BRANCH   5   9
ATOM      9  C   UNL     1       5.457   4.504  15.142  0.00  0.00    +0.000 C 
BRANCH   9  11
ATOM     10  C   UNL     1       6.372   3.638  12.615  0.00  0.00    +0.000 C 
ATOM     11  C   UNL     1       5.950   4.038  13.782  0.00  0.00    +0.000 C 
ENDBRANCH   9  11
ENDBRANCH   5   9
ENDBRANCH   1   5
BRANCH   3  12
ATOM     12  CA  UNL     1       4.146   3.653  18.924  0.00  0.00    +0.000 C 
BRANCH  12  13
ATOM     13  C   UNL     1       4.429   2.227  19.416  0.00  0.00    +0.000 C 
ATOM     14  O   UNL     1       5.000   1.949  20.461  0.00  0.00    +0.000 OA
BRANCH  13  15
ATOM     15  OXT UNL     1       4.072   1.271  18.520  0.00  0.00    +0.000 OA
ATOM     16  HXT UNL     1       3.685   1.674  17.714  0.00  0.00    +0.000 HD
ENDBRANCH  13  15
ENDBRANCH  12  13
BRANCH  12  17
ATOM     17  C   UNL     1       2.642   3.946  18.898  0.00  0.00    +0.000 C 
BRANCH  17  18
ATOM     18  C   UNL     1       1.973   3.509  20.133  0.00  0.00    +0.000 C 
ATOM     19  C   UNL     1       1.381   3.176  21.120  0.00  0.00    +0.000 C 
ENDBRANCH  17  18
ENDBRANCH  12  17
ENDBRANCH   3  12
TORSDOF 9
ENDMDL
MODEL 4
REMARK VINA RESULT:      -5.8      0.825      1.570
REMARK  Name = 
REMARK  9 active torsions:
REMARK  status: ('A' for Active; 'I' for Inactive)
REMARK    1  A    between atoms: C_2  and  C_3
REMARK    2  A    between atoms: C_3  and  CA_4
REMARK    3  A    between atoms: CA_4  and  N_5
REMARK    4  A    between atoms: CA_4  and  C_6
REMARK    5  A    between atoms: N_8  and  CA_9
REMARK    6  A    between atoms: CA_9  and  C_10
REMARK    7  A    between atoms: CA_9  and  C_13
REMARK    8  A    between atoms: C_10  and  C_11
REMARK    9  A    between atoms: C_13  and  OXT_15
REMARK                            x       y       z     vdW  Elec       q    Type
REMARK                         _______ _______ _______ _____ _____    ______ ____
ROOT
ATOM      1  C   UNL     1       6.701   5.333  16.052  0.00  0.00    +0.000 C 
ATOM      2  O   UNL     1       7.476   6.137  16.554  0.00  0.00    +0.000 OA
ATOM      3  N   UNL     1       5.522   4.944  16.670  0.00  0.00    +0.000 N 
ATOM      4  H   UNL     1       4.842   4.484  16.067  0.00  0.00    +0.000 HD
ENDROOT
BRANCH   1   5
ATOM      5  CA  UNL     1       6.939   4.628  14.703  0.00  0.00    +0.000 C 
BRANCH   5   6
ATOM      6  N   UNL     1       7.822   5.516  13.889  0.00  0.00    +0.000 NA
ATOM      7  H1  UNL     1       8.735   5.062  13.811  0.00  0.00    +0.000 HD
ATOM      8  H2  UNL     1       8.009   6.363  14.432  0.00  0.00    +0.000 HD
ENDBRANCH   5   6
BRANCH   5   9
ATOM      9  C   UNL     1       5.594   4.282  14.022  0.00  0.00    +0.000 C 
BRANCH   9  11
ATOM     10  C   UNL     1       6.011   2.698  11.722  0.00  0.00    +0.000 C 
ATOM     11  C   UNL     1       5.819   3.429  12.784  0.00  0.00    +0.000 C 
ENDBRANCH   9  11
ENDBRANCH   5   9
ENDBRANCH   1   5
BRANCH   3  12
ATOM     12  CA  UNL     1       5.097   5.516  17.955  0.00  0.00    +0.000 C 
BRANCH  12  13
ATOM     13  C   UNL     1       5.711   4.744  19.131  0.00  0.00    +0.000 C 
ATOM     14  O   UNL     1       5.276   3.693  19.580  0.00  0.00    +0.000 OA
BRANCH  13  15
ATOM     15  OXT UNL     1       6.749   5.397  19.714  0.00  0.00    +0.000 OA
ATOM     16  HXT UNL     1       7.460   5.577  19.064  0.00  0.00    +0.000 HD
ENDBRANCH  13  15
ENDBRANCH  12  13
BRANCH  12  17
ATOM     17  C   UNL     1       3.576   5.638  18.101  0.00  0.00    +0.000 C 
BRANCH  17  18
ATOM     18  C   UNL     1       3.123   7.034  18.009  0.00  0.00    +0.000 C 
ATOM     19  C   UNL     1       2.736   8.161  17.882  0.00  0.00    +0.000 C 
ENDBRANCH  17  18
ENDBRANCH  12  17
ENDBRANCH   3  12
TORSDOF 9
ENDMDL
MODEL 5
REMARK VINA RESULT:      -5.8      2.623      4.093
REMARK  Name = 
REMARK  9 active torsions:
REMARK  status: ('A' for Active; 'I' for Inactive)
REMARK    1  A    between atoms: C_2  and  C_3
REMARK    2  A    between atoms: C_3  and  CA_4
REMARK    3  A    between atoms: CA_4  and  N_5
REMARK    4  A    between atoms: CA_4  and  C_6
REMARK    5  A    between atoms: N_8  and  CA_9
REMARK    6  A    between atoms: CA_9  and  C_10
REMARK    7  A    between atoms: CA_9  and  C_13
REMARK    8  A    between atoms: C_10  and  C_11
REMARK    9  A    between atoms: C_13  and  OXT_15
REMARK                            x       y       z     vdW  Elec       q    Type
REMARK                         _______ _______ _______ _____ _____    ______ ____
ROOT
ATOM      1  C   UNL     1       5.738   4.515  17.961  0.00  0.00    +0.000 C 
ATOM      2  O   UNL     1       6.521   4.265  18.869  0.00  0.00    +0.000 OA
ATOM      3  N   UNL     1       4.397   4.166  18.012  0.00  0.00    +0.000 N 
ATOM      4  H   UNL     1       3.795   4.638  17.340  0.00  0.00    +0.000 HD
ENDROOT
BRANCH   1   5
ATOM      5  CA  UNL     1       6.133   5.211  16.644  0.00  0.00    +0.000 C 
BRANCH   5   6
ATOM      6  N   UNL     1       7.562   4.870  16.375  0.00  0.00    +0.000 NA
ATOM      7  H1  UNL     1       8.114   5.725  16.485  0.00  0.00    +0.000 HD
ATOM      8  H2  UNL     1       7.654   4.639  15.383  0.00  0.00    +0.000 HD
ENDBRANCH   5   6
BRANCH   5   9
ATOM      9  C   UNL     1       5.852   6.729  16.722  0.00  0.00    +0.000 C 
BRANCH   9  11
ATOM     10  C   UNL     1       8.024   8.094  17.902  0.00  0.00    +0.000 C 
ATOM     11  C   UNL     1       7.021   7.464  17.357  0.00  0.00    +0.000 C 
ENDBRANCH   9  11
ENDBRANCH   5   9
ENDBRANCH   1   5
BRANCH   3  12
ATOM     12  CA  UNL     1       3.812   3.514  19.192  0.00  0.00    +0.000 C 
BRANCH  12  13
ATOM     13  C   UNL     1       4.151   2.017  19.218  0.00  0.00    +0.000 C 
ATOM     14  O   UNL     1       3.569   1.158  18.571  0.00  0.00    +0.000 OA
BRANCH  13  15
ATOM     15  OXT UNL     1       5.112   1.703  20.124  0.00  0.00    +0.000 OA
ATOM     16  HXT UNL     1       4.790   1.028  20.757  0.00  0.00    +0.000 HD
ENDBRANCH  13  15
ENDBRANCH  12  13
BRANCH  12  17
ATOM     17  C   UNL     1       2.305   3.748  19.339  0.00  0.00    +0.000 C 
BRANCH  17  18
ATOM     18  C   UNL     1       1.787   3.223  20.613  0.00  0.00    +0.000 C 
ATOM     19  C   UNL     1       1.349   2.750  21.622  0.00  0.00    +0.000 C 
ENDBRANCH  17  18
ENDBRANCH  12  17
ENDBRANCH   3  12
TORSDOF 9
ENDMDL
MODEL 6
REMARK VINA RESULT:      -5.8      2.684      5.505
REMARK  Name = 
REMARK  9 active torsions:
REMARK  status: ('A' for Active; 'I' for Inactive)
REMARK    1  A    between atoms: C_2  and  C_3
REMARK    2  A    between atoms: C_3  and  CA_4
REMARK    3  A    between atoms: CA_4  and  N_5
REMARK    4  A    between atoms: CA_4  and  C_6
REMARK    5  A    between atoms: N_8  and  CA_9
REMARK    6  A    between atoms: CA_9  and  C_10
REMARK    7  A    between atoms: CA_9  and  C_13
REMARK    8  A    between atoms: C_10  and  C_11
REMARK    9  A    between atoms: C_13  and  OXT_15
REMARK                            x       y       z     vdW  Elec       q    Type
REMARK                         _______ _______ _______ _____ _____    ______ ____
ROOT
ATOM      1  C   UNL     1       4.834   4.206  19.116  0.00  0.00    +0.000 C 
ATOM      2  O   UNL     1       4.373   5.240  19.583  0.00  0.00    +0.000 OA
ATOM      3  N   UNL     1       5.782   4.199  18.104  0.00  0.00    +0.000 N 
ATOM      4  H   UNL     1       6.279   3.319  17.973  0.00  0.00    +0.000 HD
ENDROOT
BRANCH   1   5
ATOM      5  CA  UNL     1       4.410   2.792  19.557  0.00  0.00    +0.000 C 
BRANCH   5   6
ATOM      6  N   UNL     1       4.272   1.966  18.320  0.00  0.00    +0.000 NA
ATOM      7  H1  UNL     1       3.700   2.492  17.655  0.00  0.00    +0.000 HD
ATOM      8  H2  UNL     1       3.702   1.146  18.546  0.00  0.00    +0.000 HD
ENDBRANCH   5   6
BRANCH   5   9
ATOM      9  C   UNL     1       3.129   2.850  20.422  0.00  0.00    +0.000 C 
BRANCH   9  11
ATOM     10  C   UNL     1       0.826   2.471  18.833  0.00  0.00    +0.000 C 
ATOM     11  C   UNL     1       1.890   2.646  19.566  0.00  0.00    +0.000 C 
ENDBRANCH   9  11
ENDBRANCH   5   9
ENDBRANCH   1   5
BRANCH   3  12
ATOM     12  CA  UNL     1       6.339   5.445  17.557  0.00  0.00    +0.000 C 
BRANCH  12  13
ATOM     13  C   UNL     1       6.601   5.314  16.050  0.00  0.00    +0.000 C 
ATOM     14  O   UNL     1       7.545   4.715  15.555  0.00  0.00    +0.000 OA
BRANCH  13  15
ATOM     15  OXT UNL     1       5.728   6.027  15.292  0.00  0.00    +0.000 OA
ATOM     16  HXT UNL     1       6.017   6.054  14.356  0.00  0.00    +0.000 HD
ENDBRANCH  13  15
ENDBRANCH  12  13
BRANCH  12  17
ATOM     17  C   UNL     1       7.585   5.940  18.299  0.00  0.00    +0.000 C 
BRANCH  17  18
ATOM     18  C   UNL     1       7.835   7.370  18.063  0.00  0.00    +0.000 C 
ATOM     19  C   UNL     1       8.088   8.521  17.848  0.00  0.00    +0.000 C 
ENDBRANCH  17  18
ENDBRANCH  12  17
ENDBRANCH   3  12
TORSDOF 9
ENDMDL
MODEL 7
REMARK VINA RESULT:      -5.7      0.782      1.218
REMARK  Name = 
REMARK  9 active torsions:
REMARK  status: ('A' for Active; 'I' for Inactive)
REMARK    1  A    between atoms: C_2  and  C_3
REMARK    2  A    between atoms: C_3  and  CA_4
REMARK    3  A    between atoms: CA_4  and  N_5
REMARK    4  A    between atoms: CA_4  and  C_6
REMARK    5  A    between atoms: N_8  and  CA_9
REMARK    6  A    between atoms: CA_9  and  C_10
REMARK    7  A    between atoms: CA_9  and  C_13
REMARK    8  A    between atoms: C_10  and  C_11
REMARK    9  A    between atoms: C_13  and  OXT_15
REMARK                            x       y       z     vdW  Elec       q    Type
REMARK                         _______ _______ _______ _____ _____    ______ ____
ROOT
ATOM      1  C   UNL     1       6.702   5.310  15.920  0.00  0.00    +0.000 C 
ATOM      2  O   UNL     1       7.345   6.225  16.419  0.00  0.00    +0.000 OA
ATOM      3  N   UNL     1       5.563   4.785  16.512  0.00  0.00    +0.000 N 
ATOM      4  H   UNL     1       4.972   4.221  15.903  0.00  0.00    +0.000 HD
ENDROOT
BRANCH   1   5
ATOM      5  CA  UNL     1       7.079   4.605  14.603  0.00  0.00    +0.000 C 
BRANCH   5   6
ATOM      6  N   UNL     1       7.950   5.542  13.833  0.00  0.00    +0.000 NA
ATOM      7  H1  UNL     1       8.847   5.077  13.674  0.00  0.00    +0.000 HD
ATOM      8  H2  UNL     1       8.183   6.332  14.441  0.00  0.00    +0.000 HD
ENDBRANCH   5   6
BRANCH   5   9
ATOM      9  C   UNL     1       5.812   4.153  13.842  0.00  0.00    +0.000 C 
BRANCH   9  11
ATOM     10  C   UNL     1       6.499   2.676  11.536  0.00  0.00    +0.000 C 
ATOM     11  C   UNL     1       6.182   3.358  12.600  0.00  0.00    +0.000 C 
ENDBRANCH   9  11
ENDBRANCH   5   9
ENDBRANCH   1   5
BRANCH   3  12
ATOM     12  CA  UNL     1       5.019   5.332  17.763  0.00  0.00    +0.000 C 
BRANCH  12  13
ATOM     13  C   UNL     1       5.694   4.691  18.983  0.00  0.00    +0.000 C 
ATOM     14  O   UNL     1       6.445   5.275  19.753  0.00  0.00    +0.000 OA
BRANCH  13  15
ATOM     15  OXT UNL     1       5.464   3.357  19.082  0.00  0.00    +0.000 OA
ATOM     16  HXT UNL     1       5.343   3.090  20.017  0.00  0.00    +0.000 HD
ENDBRANCH  13  15
ENDBRANCH  12  13
BRANCH  12  17
ATOM     17  C   UNL     1       3.492   5.245  17.860  0.00  0.00    +0.000 C 
BRANCH  17  18
ATOM     18  C   UNL     1       2.950   6.173  18.865  0.00  0.00    +0.000 C 
ATOM     19  C   UNL     1       2.460   6.930  19.653  0.00  0.00    +0.000 C 
ENDBRANCH  17  18
ENDBRANCH  12  17
ENDBRANCH   3  12
TORSDOF 9
ENDMDL
MODEL 8
REMARK VINA RESULT:      -5.7      3.046      5.685
REMARK  Name = 
REMARK  9 active torsions:
REMARK  status: ('A' for Active; 'I' for Inactive)
REMARK    1  A    between atoms: C_2  and  C_3
REMARK    2  A    between atoms: C_3  and  CA_4
REMARK    3  A    between atoms: CA_4  and  N_5
REMARK    4  A    between atoms: CA_4  and  C_6
REMARK    5  A    between atoms: N_8  and  CA_9
REMARK    6  A    between atoms: CA_9  and  C_10
REMARK    7  A    between atoms: CA_9  and  C_13
REMARK    8  A    between atoms: C_10  and  C_11
REMARK    9  A    between atoms: C_13  and  OXT_15
REMARK                            x       y       z     vdW  Elec       q    Type
REMARK                         _______ _______ _______ _____ _____    ______ ____
ROOT
ATOM      1  C   UNL     1       4.413   3.651  18.056  0.00  0.00    +0.000 C 
ATOM      2  O   UNL     1       3.934   4.092  17.018  0.00  0.00    +0.000 OA
ATOM      3  N   UNL     1       5.641   4.065  18.548  0.00  0.00    +0.000 N 
ATOM      4  H   UNL     1       5.822   3.837  19.524  0.00  0.00    +0.000 HD
ENDROOT
BRANCH   1   5
ATOM      5  CA  UNL     1       3.745   2.569  18.927  0.00  0.00    +0.000 C 
BRANCH   5   6
ATOM      6  N   UNL     1       4.085   1.245  18.325  0.00  0.00    +0.000 NA
ATOM      7  H1  UNL     1       4.447   0.647  19.071  0.00  0.00    +0.000 HD
ATOM      8  H2  UNL     1       4.883   1.376  17.698  0.00  0.00    +0.000 HD
ENDBRANCH   5   6
BRANCH   5   9
ATOM      9  C   UNL     1       2.227   2.832  19.056  0.00  0.00    +0.000 C 
BRANCH   9  11
ATOM     10  C   UNL     1       1.401   2.641  21.749  0.00  0.00    +0.000 C 
ATOM     11  C   UNL     1       1.782   2.729  20.505  0.00  0.00    +0.000 C 
ENDBRANCH   9  11
ENDBRANCH   5   9
ENDBRANCH   1   5
BRANCH   3  12
ATOM     12  CA  UNL     1       6.432   5.108  17.879  0.00  0.00    +0.000 C 
BRANCH  12  13
ATOM     13  C   UNL     1       7.328   4.504  16.789  0.00  0.00    +0.000 C 
ATOM     14  O   UNL     1       7.049   4.465  15.598  0.00  0.00    +0.000 OA
BRANCH  13  15
ATOM     15  OXT UNL     1       8.443   3.908  17.284  0.00  0.00    +0.000 OA
ATOM     16  HXT UNL     1       9.241   4.195  16.792  0.00  0.00    +0.000 HD
ENDBRANCH  13  15
ENDBRANCH  12  13
BRANCH  12  17
ATOM     17  C   UNL     1       7.239   5.983  18.843  0.00  0.00    +0.000 C 
BRANCH  17  18
ATOM     18  C   UNL     1       7.663   7.246  18.219  0.00  0.00    +0.000 C 
ATOM     19  C   UNL     1       8.007   8.248  17.661  0.00  0.00    +0.000 C 
ENDBRANCH  17  18
ENDBRANCH  12  17
ENDBRANCH   3  12
TORSDOF 9
ENDMDL
MODEL 9
REMARK VINA RESULT:      -5.7      2.800      5.377
REMARK  Name = 
REMARK  9 active torsions:
REMARK  status: ('A' for Active; 'I' for Inactive)
REMARK    1  A    between atoms: C_2  and  C_3
REMARK    2  A    between atoms: C_3  and  CA_4
REMARK    3  A    between atoms: CA_4  and  N_5
REMARK    4  A    between atoms: CA_4  and  C_6
REMARK    5  A    between atoms: N_8  and  CA_9
REMARK    6  A    between atoms: CA_9  and  C_10
REMARK    7  A    between atoms: CA_9  and  C_13
REMARK    8  A    between atoms: C_10  and  C_11
REMARK    9  A    between atoms: C_13  and  OXT_15
REMARK                            x       y       z     vdW  Elec       q    Type
REMARK                         _______ _______ _______ _____ _____    ______ ____
ROOT
ATOM      1  C   UNL     1       3.468   3.152  17.594  0.00  0.00    +0.000 C 
ATOM      2  O   UNL     1       2.625   3.288  16.716  0.00  0.00    +0.000 OA
ATOM      3  N   UNL     1       4.652   3.873  17.613  0.00  0.00    +0.000 N 
ATOM      4  H   UNL     1       5.151   3.874  18.501  0.00  0.00    +0.000 HD
ENDROOT
BRANCH   1   5
ATOM      5  CA  UNL     1       3.349   2.153  18.761  0.00  0.00    +0.000 C 
BRANCH   5   6
ATOM      6  N   UNL     1       3.933   0.859  18.297  0.00  0.00    +0.000 NA
ATOM      7  H1  UNL     1       4.198   0.970  17.315  0.00  0.00    +0.000 HD
ATOM      8  H2  UNL     1       3.186   0.160  18.278  0.00  0.00    +0.000 HD
ENDBRANCH   5   6
BRANCH   5   9
ATOM      9  C   UNL     1       1.883   2.046  19.242  0.00  0.00    +0.000 C 
BRANCH   9  11
ATOM     10  C   UNL     1       1.081   4.415  20.551  0.00  0.00    +0.000 C 
ATOM     11  C   UNL     1       1.451   3.321  19.946  0.00  0.00    +0.000 C 
ENDBRANCH   9  11
ENDBRANCH   5   9
ENDBRANCH   1   5
BRANCH   3  12
ATOM     12  CA  UNL     1       4.952   4.896  16.601  0.00  0.00    +0.000 C 
BRANCH  12  13
ATOM     13  C   UNL     1       6.245   4.560  15.845  0.00  0.00    +0.000 C 
ATOM     14  O   UNL     1       7.100   5.375  15.529  0.00  0.00    +0.000 OA
BRANCH  13  15
ATOM     15  OXT UNL     1       6.314   3.261  15.457  0.00  0.00    +0.000 OA
ATOM     16  HXT UNL     1       6.742   3.180  14.578  0.00  0.00    +0.000 HD
ENDBRANCH  13  15
ENDBRANCH  12  13
BRANCH  12  17
ATOM     17  C   UNL     1       4.986   6.323  17.159  0.00  0.00    +0.000 C 
BRANCH  17  18
ATOM     18  C   UNL     1       3.697   6.714  17.751  0.00  0.00    +0.000 C 
ATOM     19  C   UNL     1       2.631   6.979  18.228  0.00  0.00    +0.000 C 
ENDBRANCH  17  18
ENDBRANCH  12  17
ENDBRANCH   3  12
TORSDOF 9
ENDMDL
