MODEL 1
REMARK VINA RESULT:      -6.9      0.000      0.000
REMARK  Name = 
REMARK  5 active torsions:
REMARK  status: ('A' for Active; 'I' for Inactive)
REMARK    1  A    between atoms: C_1  and  O_2
REMARK    2  A    between atoms: O_2  and  C_3
REMARK    3  A    between atoms: C_8  and  C_9
REMARK    4  A    between atoms: N_11  and  C_12
REMARK    5  A    between atoms: C_12  and  C_13
REMARK                            x       y       z     vdW  Elec       q    Type
REMARK                         _______ _______ _______ _____ _____    ______ ____
ROOT
ATOM      1  C   UNL     1       2.125   4.631  20.557  0.00  0.00    +0.000 A 
ATOM      2  C   UNL     1       1.967   5.996  20.354  0.00  0.00    +0.000 A 
ATOM      3  C   UNL     1       2.714   6.666  19.376  0.00  0.00    +0.000 A 
ATOM      4  C   UNL     1       3.629   5.939  18.593  0.00  0.00    +0.000 A 
ATOM      5  S   UNL     1       4.648   6.542  17.339  0.00  0.00    +0.000 S 
ATOM      6  C   UNL     1       5.302   5.001  17.007  0.00  0.00    +0.000 A 
ATOM      7  C   UNL     1       4.775   4.048  17.857  0.00  0.00    +0.000 A 
ATOM      8  C   UNL     1       3.804   4.567  18.773  0.00  0.00    +0.000 A 
ATOM      9  C   UNL     1       3.037   3.919  19.770  0.00  0.00    +0.000 A 
ENDROOT
BRANCH   6  10
ATOM     10  C   UNL     1       6.267   4.756  15.946  0.00  0.00    +0.000 C 
ATOM     11  O   UNL     1       7.478   4.685  16.160  0.00  0.00    +0.000 OA
ATOM     12  N   UNL     1       5.773   4.592  14.673  0.00  0.00    +0.000 N 
ATOM     13  H   UNL     1       4.797   4.775  14.469  0.00  0.00    +0.000 HD
BRANCH  12  14
ATOM     14  C   UNL     1       6.669   4.373  13.566  0.00  0.00    +0.000 C 
BRANCH  14  15
ATOM     15  C   UNL     1       6.029   3.464  12.578  0.00  0.00    +0.000 A 
ATOM     16  N   UNL     1       4.797   3.530  12.106  0.00  0.00    +0.000 NA
ATOM     17  C   UNL     1       4.693   2.510  11.196  0.00  0.00    +0.000 A 
ATOM     18  C   UNL     1       5.867   1.801  11.122  0.00  0.00    +0.000 A 
ATOM     19  N   UNL     1       6.708   2.413  12.009  0.00  0.00    +0.000 N 
ATOM     20  H   UNL     1       7.664   2.149  12.209  0.00  0.00    +0.000 HD
ENDBRANCH  14  15
ENDBRANCH  12  14
ENDBRANCH   6  10
BRANCH   1  22
ATOM     21  C   UNL     1       1.794   2.490  21.543  0.00  0.00    +0.000 C 
ATOM     22  O   UNL     1       1.457   3.871  21.478  0.00  0.00    +0.000 OA
ENDBRANCH   1  22
TORSDOF 4
ENDMDL
MODEL 2
REMARK VINA RESULT:      -6.8      3.121      4.552
REMARK  Name = 
REMARK  5 active torsions:
REMARK  status: ('A' for Active; 'I' for Inactive)
REMARK    1  A    between atoms: C_1  and  O_2
REMARK    2  A    between atoms: O_2  and  C_3
REMARK    3  A    between atoms: C_8  and  C_9
REMARK    4  A    between atoms: N_11  and  C_12
REMARK    5  A    between atoms: C_12  and  C_13
REMARK                            x       y       z     vdW  Elec       q    Type
REMARK                         _______ _______ _______ _____ _____    ______ ____
ROOT
ATOM      1  C   UNL     1       1.004  10.110  18.972  0.00  0.00    +0.000 A 
ATOM      2  C   UNL     1       0.698   9.477  20.171  0.00  0.00    +0.000 A 
ATOM      3  C   UNL     1       1.230   8.216  20.470  0.00  0.00    +0.000 A 
ATOM      4  C   UNL     1       2.086   7.594  19.544  0.00  0.00    +0.000 A 
ATOM      5  S   UNL     1       2.856   6.058  19.694  0.00  0.00    +0.000 S 
ATOM      6  C   UNL     1       3.645   6.207  18.188  0.00  0.00    +0.000 A 
ATOM      7  C   UNL     1       3.305   7.393  17.568  0.00  0.00    +0.000 A 
ATOM      8  C   UNL     1       2.414   8.209  18.336  0.00  0.00    +0.000 A 
ATOM      9  C   UNL     1       1.859   9.482  18.061  0.00  0.00    +0.000 A 
ENDROOT
BRANCH   6  10
ATOM     10  C   UNL     1       4.567   5.208  17.669  0.00  0.00    +0.000 C 
ATOM     11  O   UNL     1       4.185   4.114  17.249  0.00  0.00    +0.000 OA
ATOM     12  N   UNL     1       5.903   5.533  17.651  0.00  0.00    +0.000 N 
ATOM     13  H   UNL     1       6.236   6.374  18.110  0.00  0.00    +0.000 HD
BRANCH  12  14
ATOM     14  C   UNL     1       6.878   4.585  17.176  0.00  0.00    +0.000 C 
BRANCH  14  15
ATOM     15  C   UNL     1       6.855   4.547  15.689  0.00  0.00    +0.000 A 
ATOM     16  N   UNL     1       7.528   5.320  14.856  0.00  0.00    +0.000 NA
ATOM     17  C   UNL     1       7.211   4.872  13.599  0.00  0.00    +0.000 A 
ATOM     18  C   UNL     1       6.323   3.827  13.663  0.00  0.00    +0.000 A 
ATOM     19  N   UNL     1       6.099   3.632  14.997  0.00  0.00    +0.000 N 
ATOM     20  H   UNL     1       5.493   2.934  15.408  0.00  0.00    +0.000 HD
ENDBRANCH  14  15
ENDBRANCH  12  14
ENDBRANCH   6  10
BRANCH   1  22
ATOM     21  C   UNL     1       0.019  12.192  19.575  0.00  0.00    +0.000 C 
ATOM     22  O   UNL     1       0.547  11.335  18.569  0.00  0.00    +0.000 OA
ENDBRANCH   1  22
TORSDOF 4
ENDMDL
MODEL 3
REMARK VINA RESULT:      -6.8      2.842      4.305
REMARK  Name = 
REMARK  5 active torsions:
REMARK  status: ('A' for Active; 'I' for Inactive)
REMARK    1  A    between atoms: C_1  and  O_2
REMARK    2  A    between atoms: O_2  and  C_3
REMARK    3  A    between atoms: C_8  and  C_9
REMARK    4  A    between atoms: N_11  and  C_12
REMARK    5  A    between atoms: C_12  and  C_13
REMARK                            x       y       z     vdW  Elec       q    Type
REMARK                         _______ _______ _______ _____ _____    ______ ____
ROOT
ATOM      1  C   UNL     1       0.227   8.951  21.202  0.00  0.00    +0.000 A 
ATOM      2  C   UNL     1       0.308   9.780  20.090  0.00  0.00    +0.000 A 
ATOM      3  C   UNL     1       1.157   9.464  19.021  0.00  0.00    +0.000 A 
ATOM      4  C   UNL     1       1.929   8.289  19.082  0.00  0.00    +0.000 A 
ATOM      5  S   UNL     1       3.033   7.697  17.896  0.00  0.00    +0.000 S 
ATOM      6  C   UNL     1       3.407   6.306  18.811  0.00  0.00    +0.000 A 
ATOM      7  C   UNL     1       2.725   6.307  20.012  0.00  0.00    +0.000 A 
ATOM      8  C   UNL     1       1.863   7.437  20.183  0.00  0.00    +0.000 A 
ATOM      9  C   UNL     1       0.998   7.784  21.248  0.00  0.00    +0.000 A 
ENDROOT
BRANCH   6  10
ATOM     10  C   UNL     1       4.311   5.265  18.345  0.00  0.00    +0.000 C 
ATOM     11  O   UNL     1       3.916   4.142  18.029  0.00  0.00    +0.000 OA
ATOM     12  N   UNL     1       5.646   5.585  18.258  0.00  0.00    +0.000 N 
ATOM     13  H   UNL     1       5.995   6.459  18.636  0.00  0.00    +0.000 HD
BRANCH  12  14
ATOM     14  C   UNL     1       6.606   4.598  17.831  0.00  0.00    +0.000 C 
BRANCH  14  15
ATOM     15  C   UNL     1       6.650   4.556  16.344  0.00  0.00    +0.000 A 
ATOM     16  N   UNL     1       7.300   5.373  15.536  0.00  0.00    +0.000 NA
ATOM     17  C   UNL     1       7.072   4.901  14.269  0.00  0.00    +0.000 A 
ATOM     18  C   UNL     1       6.260   3.794  14.301  0.00  0.00    +0.000 A 
ATOM     19  N   UNL     1       5.993   3.586  15.624  0.00  0.00    +0.000 N 
ATOM     20  H   UNL     1       5.422   2.847  16.012  0.00  0.00    +0.000 HD
ENDBRANCH  14  15
ENDBRANCH  12  14
ENDBRANCH   6  10
BRANCH   1  22
ATOM     21  C   UNL     1      -0.653  10.486  22.794  0.00  0.00    +0.000 C 
ATOM     22  O   UNL     1      -0.560   9.154  22.302  0.00  0.00    +0.000 OA
ENDBRANCH   1  22
TORSDOF 4
ENDMDL
MODEL 4
REMARK VINA RESULT:      -6.7      4.308      6.453
REMARK  Name = 
REMARK  5 active torsions:
REMARK  status: ('A' for Active; 'I' for Inactive)
REMARK    1  A    between atoms: C_1  and  O_2
REMARK    2  A    between atoms: O_2  and  C_3
REMARK    3  A    between atoms: C_8  and  C_9
REMARK    4  A    between atoms: N_11  and  C_12
REMARK    5  A    between atoms: C_12  and  C_13
REMARK                            x       y       z     vdW  Elec       q    Type
REMARK                         _______ _______ _______ _____ _____    ______ ____
ROOT
ATOM      1  C   UNL     1       0.037  11.287  21.410  0.00  0.00    +0.000 A 
ATOM      2  C   UNL     1       0.033  11.839  20.136  0.00  0.00    +0.000 A 
ATOM      3  C   UNL     1       0.579  11.139  19.050  0.00  0.00    +0.000 A 
ATOM      4  C   UNL     1       1.130   9.863  19.264  0.00  0.00    +0.000 A 
ATOM      5  S   UNL     1       1.848   8.822  18.092  0.00  0.00    +0.000 S 
ATOM      6  C   UNL     1       2.153   7.595  19.238  0.00  0.00    +0.000 A 
ATOM      7  C   UNL     1       1.741   7.983  20.498  0.00  0.00    +0.000 A 
ATOM      8  C   UNL     1       1.142   9.283  20.532  0.00  0.00    +0.000 A 
ATOM      9  C   UNL     1       0.586  10.015  21.608  0.00  0.00    +0.000 A 
ENDROOT
BRANCH   6  10
ATOM     10  C   UNL     1       2.748   6.312  18.894  0.00  0.00    +0.000 C 
ATOM     11  O   UNL     1       2.413   5.678  17.892  0.00  0.00    +0.000 OA
ATOM     12  N   UNL     1       3.722   5.825  19.734  0.00  0.00    +0.000 N 
ATOM     13  H   UNL     1       3.911   6.275  20.623  0.00  0.00    +0.000 HD
BRANCH  12  14
ATOM     14  C   UNL     1       4.338   4.549  19.474  0.00  0.00    +0.000 C 
BRANCH  14  15
ATOM     15  C   UNL     1       5.725   4.755  18.977  0.00  0.00    +0.000 A 
ATOM     16  N   UNL     1       6.713   5.380  19.591  0.00  0.00    +0.000 NA
ATOM     17  C   UNL     1       7.796   5.268  18.758  0.00  0.00    +0.000 A 
ATOM     18  C   UNL     1       7.463   4.584  17.614  0.00  0.00    +0.000 A 
ATOM     19  N   UNL     1       6.142   4.267  17.761  0.00  0.00    +0.000 N 
ATOM     20  H   UNL     1       5.571   3.757  17.101  0.00  0.00    +0.000 HD
ENDBRANCH  14  15
ENDBRANCH  12  14
ENDBRANCH   6  10
BRANCH   1  22
ATOM     21  C   UNL     1      -1.541  11.208  23.190  0.00  0.00    +0.000 C 
ATOM     22  O   UNL     1      -0.461  11.871  22.543  0.00  0.00    +0.000 OA
ENDBRANCH   1  22
TORSDOF 4
ENDMDL
MODEL 5
REMARK VINA RESULT:      -6.6      4.021      5.955
REMARK  Name = 
REMARK  5 active torsions:
REMARK  status: ('A' for Active; 'I' for Inactive)
REMARK    1  A    between atoms: C_1  and  O_2
REMARK    2  A    between atoms: O_2  and  C_3
REMARK    3  A    between atoms: C_8  and  C_9
REMARK    4  A    between atoms: N_11  and  C_12
REMARK    5  A    between atoms: C_12  and  C_13
REMARK                            x       y       z     vdW  Elec       q    Type
REMARK                         _______ _______ _______ _____ _____    ______ ____
ROOT
ATOM      1  C   UNL     1       0.386  10.371  21.787  0.00  0.00    +0.000 A 
ATOM      2  C   UNL     1       0.338  11.183  20.661  0.00  0.00    +0.000 A 
ATOM      3  C   UNL     1       0.828  10.728  19.429  0.00  0.00    +0.000 A 
ATOM      4  C   UNL     1       1.366   9.432  19.341  0.00  0.00    +0.000 A 
ATOM      5  S   UNL     1       2.020   8.660  17.944  0.00  0.00    +0.000 S 
ATOM      6  C   UNL     1       2.351   7.215  18.787  0.00  0.00    +0.000 A 
ATOM      7  C   UNL     1       1.998   7.327  20.118  0.00  0.00    +0.000 A 
ATOM      8  C   UNL     1       1.421   8.594  20.454  0.00  0.00    +0.000 A 
ATOM      9  C   UNL     1       0.922   9.083  21.685  0.00  0.00    +0.000 A 
ENDROOT
BRANCH   6  10
ATOM     10  C   UNL     1       2.911   6.031  18.152  0.00  0.00    +0.000 C 
ATOM     11  O   UNL     1       2.203   5.137  17.686  0.00  0.00    +0.000 OA
ATOM     12  N   UNL     1       4.282   5.946  18.078  0.00  0.00    +0.000 N 
ATOM     13  H   UNL     1       4.869   6.611  18.570  0.00  0.00    +0.000 HD
BRANCH  12  14
ATOM     14  C   UNL     1       4.909   4.791  17.487  0.00  0.00    +0.000 C 
BRANCH  14  15
ATOM     15  C   UNL     1       4.615   3.587  18.310  0.00  0.00    +0.000 A 
ATOM     16  N   UNL     1       4.945   3.376  19.571  0.00  0.00    +0.000 NA
ATOM     17  C   UNL     1       4.416   2.153  19.893  0.00  0.00    +0.000 A 
ATOM     18  C   UNL     1       3.771   1.602  18.813  0.00  0.00    +0.000 A 
ATOM     19  N   UNL     1       3.908   2.520  17.810  0.00  0.00    +0.000 N 
ATOM     20  H   UNL     1       3.548   2.438  16.869  0.00  0.00    +0.000 HD
ENDBRANCH  14  15
ENDBRANCH  12  14
ENDBRANCH   6  10
BRANCH   1  22
ATOM     21  C   UNL     1      -1.415  11.110  23.158  0.00  0.00    +0.000 C 
ATOM     22  O   UNL     1      -0.057  10.703  23.039  0.00  0.00    +0.000 OA
ENDBRANCH   1  22
TORSDOF 4
ENDMDL
MODEL 6
REMARK VINA RESULT:      -6.6      3.128      7.495
REMARK  Name = 
REMARK  5 active torsions:
REMARK  status: ('A' for Active; 'I' for Inactive)
REMARK    1  A    between atoms: C_1  and  O_2
REMARK    2  A    between atoms: O_2  and  C_3
REMARK    3  A    between atoms: C_8  and  C_9
REMARK    4  A    between atoms: N_11  and  C_12
REMARK    5  A    between atoms: C_12  and  C_13
REMARK                            x       y       z     vdW  Elec       q    Type
REMARK                         _______ _______ _______ _____ _____    ______ ____
ROOT
ATOM      1  C   UNL     1       5.970   3.625  12.474  0.00  0.00    +0.000 A 
ATOM      2  C   UNL     1       7.157   4.343  12.543  0.00  0.00    +0.000 A 
ATOM      3  C   UNL     1       7.546   4.969  13.735  0.00  0.00    +0.000 A 
ATOM      4  C   UNL     1       6.722   4.859  14.869  0.00  0.00    +0.000 A 
ATOM      5  S   UNL     1       6.994   5.535  16.432  0.00  0.00    +0.000 S 
ATOM      6  C   UNL     1       5.560   4.863  17.070  0.00  0.00    +0.000 A 
ATOM      7  C   UNL     1       4.871   4.160  16.101  0.00  0.00    +0.000 A 
ATOM      8  C   UNL     1       5.529   4.140  14.829  0.00  0.00    +0.000 A 
ATOM      9  C   UNL     1       5.161   3.521  13.610  0.00  0.00    +0.000 A 
ENDROOT
BRANCH   6  10
ATOM     10  C   UNL     1       5.161   5.011  18.461  0.00  0.00    +0.000 C 
ATOM     11  O   UNL     1       5.949   4.852  19.394  0.00  0.00    +0.000 OA
ATOM     12  N   UNL     1       3.850   5.351  18.706  0.00  0.00    +0.000 N 
ATOM     13  H   UNL     1       3.169   5.357  17.955  0.00  0.00    +0.000 HD
BRANCH  12  14
ATOM     14  C   UNL     1       3.374   5.489  20.059  0.00  0.00    +0.000 C 
BRANCH  14  15
ATOM     15  C   UNL     1       2.548   4.304  20.420  0.00  0.00    +0.000 A 
ATOM     16  N   UNL     1       2.220   3.895  21.632  0.00  0.00    +0.000 NA
ATOM     17  C   UNL     1       1.419   2.797  21.447  0.00  0.00    +0.000 A 
ATOM     18  C   UNL     1       1.271   2.522  20.110  0.00  0.00    +0.000 A 
ATOM     19  N   UNL     1       1.997   3.483  19.466  0.00  0.00    +0.000 N 
ATOM     20  H   UNL     1       2.107   3.583  18.465  0.00  0.00    +0.000 HD
ENDBRANCH  14  15
ENDBRANCH  12  14
ENDBRANCH   6  10
BRANCH   1  22
ATOM     21  C   UNL     1       4.083   3.050  11.142  0.00  0.00    +0.000 C 
ATOM     22  O   UNL     1       5.485   2.975  11.371  0.00  0.00    +0.000 OA
ENDBRANCH   1  22
TORSDOF 4
ENDMDL
MODEL 7
REMARK VINA RESULT:      -6.5      1.562      2.336
REMARK  Name = 
REMARK  5 active torsions:
REMARK  status: ('A' for Active; 'I' for Inactive)
REMARK    1  A    between atoms: C_1  and  O_2
REMARK    2  A    between atoms: O_2  and  C_3
REMARK    3  A    between atoms: C_8  and  C_9
REMARK    4  A    between atoms: N_11  and  C_12
REMARK    5  A    between atoms: C_12  and  C_13
REMARK                            x       y       z     vdW  Elec       q    Type
REMARK                         _______ _______ _______ _____ _____    ______ ____
ROOT
ATOM      1  C   UNL     1       1.735   6.691  20.593  0.00  0.00    +0.000 A 
ATOM      2  C   UNL     1       1.508   5.323  20.673  0.00  0.00    +0.000 A 
ATOM      3  C   UNL     1       2.076   4.446  19.739  0.00  0.00    +0.000 A 
ATOM      4  C   UNL     1       2.889   4.967  18.716  0.00  0.00    +0.000 A 
ATOM      5  S   UNL     1       3.692   4.091  17.466  0.00  0.00    +0.000 S 
ATOM      6  C   UNL     1       4.392   5.500  16.805  0.00  0.00    +0.000 A 
ATOM      7  C   UNL     1       3.997   6.623  17.507  0.00  0.00    +0.000 A 
ATOM      8  C   UNL     1       3.138   6.335  18.615  0.00  0.00    +0.000 A 
ATOM      9  C   UNL     1       2.547   7.195  19.572  0.00  0.00    +0.000 A 
ENDROOT
BRANCH   6  10
ATOM     10  C   UNL     1       5.299   5.481  15.667  0.00  0.00    +0.000 C 
ATOM     11  O   UNL     1       5.679   6.512  15.111  0.00  0.00    +0.000 OA
ATOM     12  N   UNL     1       5.735   4.252  15.231  0.00  0.00    +0.000 N 
ATOM     13  H   UNL     1       5.329   3.399  15.599  0.00  0.00    +0.000 HD
BRANCH  12  14
ATOM     14  C   UNL     1       6.613   4.152  14.093  0.00  0.00    +0.000 C 
BRANCH  14  15
ATOM     15  C   UNL     1       5.892   3.510  12.961  0.00  0.00    +0.000 A 
ATOM     16  N   UNL     1       4.692   3.811  12.499  0.00  0.00    +0.000 NA
ATOM     17  C   UNL     1       4.487   2.979  11.429  0.00  0.00    +0.000 A 
ATOM     18  C   UNL     1       5.565   2.149  11.244  0.00  0.00    +0.000 A 
ATOM     19  N   UNL     1       6.450   2.491  12.227  0.00  0.00    +0.000 N 
ATOM     20  H   UNL     1       7.360   2.077  12.386  0.00  0.00    +0.000 HD
ENDBRANCH  14  15
ENDBRANCH  12  14
ENDBRANCH   6  10
BRANCH   1  22
ATOM     21  C   UNL     1       0.683   8.811  20.848  0.00  0.00    +0.000 C 
ATOM     22  O   UNL     1       1.235   7.641  21.441  0.00  0.00    +0.000 OA
ENDBRANCH   1  22
TORSDOF 4
ENDMDL
MODEL 8
REMARK VINA RESULT:      -6.5      5.966      8.459
REMARK  Name = 
REMARK  5 active torsions:
REMARK  status: ('A' for Active; 'I' for Inactive)
REMARK    1  A    between atoms: C_1  and  O_2
REMARK    2  A    between atoms: O_2  and  C_3
REMARK    3  A    between atoms: C_8  and  C_9
REMARK    4  A    between atoms: N_11  and  C_12
REMARK    5  A    between atoms: C_12  and  C_13
REMARK                            x       y       z     vdW  Elec       q    Type
REMARK                         _______ _______ _______ _____ _____    ______ ____
ROOT
ATOM      1  C   UNL     1       3.674   4.695  18.466  0.00  0.00    +0.000 A 
ATOM      2  C   UNL     1       3.261   4.535  19.783  0.00  0.00    +0.000 A 
ATOM      3  C   UNL     1       2.567   5.557  20.445  0.00  0.00    +0.000 A 
ATOM      4  C   UNL     1       2.284   6.751  19.757  0.00  0.00    +0.000 A 
ATOM      5  S   UNL     1       1.446   8.134  20.358  0.00  0.00    +0.000 S 
ATOM      6  C   UNL     1       1.577   8.968  18.875  0.00  0.00    +0.000 A 
ATOM      7  C   UNL     1       2.273   8.218  17.947  0.00  0.00    +0.000 A 
ATOM      8  C   UNL     1       2.681   6.935  18.433  0.00  0.00    +0.000 A 
ATOM      9  C   UNL     1       3.383   5.886  17.793  0.00  0.00    +0.000 A 
ENDROOT
BRANCH   6  10
ATOM     10  C   UNL     1       0.999  10.284  18.647  0.00  0.00    +0.000 C 
ATOM     11  O   UNL     1       1.692  11.279  18.431  0.00  0.00    +0.000 OA
ATOM     12  N   UNL     1      -0.373  10.381  18.670  0.00  0.00    +0.000 N 
ATOM     13  H   UNL     1      -0.941   9.598  18.973  0.00  0.00    +0.000 HD
BRANCH  12  14
ATOM     14  C   UNL     1      -1.017  11.655  18.480  0.00  0.00    +0.000 C 
BRANCH  14  15
ATOM     15  C   UNL     1      -2.234  11.479  17.642  0.00  0.00    +0.000 A 
ATOM     16  N   UNL     1      -3.493  11.496  18.041  0.00  0.00    +0.000 NA
ATOM     17  C   UNL     1      -4.244  11.338  16.905  0.00  0.00    +0.000 A 
ATOM     18  C   UNL     1      -3.436  11.205  15.802  0.00  0.00    +0.000 A 
ATOM     19  N   UNL     1      -2.160  11.292  16.282  0.00  0.00    +0.000 N 
ATOM     20  H   UNL     1      -1.309  11.237  15.738  0.00  0.00    +0.000 HD
ENDBRANCH  14  15
ENDBRANCH  12  14
ENDBRANCH   6  10
BRANCH   1  22
ATOM     21  C   UNL     1       4.786   4.181  16.425  0.00  0.00    +0.000 C 
ATOM     22  O   UNL     1       4.358   3.774  17.719  0.00  0.00    +0.000 OA
ENDBRANCH   1  22
TORSDOF 4
ENDMDL
MODEL 9
REMARK VINA RESULT:      -6.4      5.095      8.214
REMARK  Name = 
REMARK  5 active torsions:
REMARK  status: ('A' for Active; 'I' for Inactive)
REMARK    1  A    between atoms: C_1  and  O_2
REMARK    2  A    between atoms: O_2  and  C_3
REMARK    3  A    between atoms: C_8  and  C_9
REMARK    4  A    between atoms: N_11  and  C_12
REMARK    5  A    between atoms: C_12  and  C_13
REMARK                            x       y       z     vdW  Elec       q    Type
REMARK                         _______ _______ _______ _____ _____    ______ ____
ROOT
ATOM      1  C   UNL     1       5.326   5.105  16.551  0.00  0.00    +0.000 A 
ATOM      2  C   UNL     1       4.988   4.221  17.568  0.00  0.00    +0.000 A 
ATOM      3  C   UNL     1       4.072   4.589  18.563  0.00  0.00    +0.000 A 
ATOM      4  C   UNL     1       3.490   5.869  18.520  0.00  0.00    +0.000 A 
ATOM      5  S   UNL     1       2.345   6.538  19.622  0.00  0.00    +0.000 S 
ATOM      6  C   UNL     1       2.240   8.007  18.761  0.00  0.00    +0.000 A 
ATOM      7  C   UNL     1       3.085   8.000  17.668  0.00  0.00    +0.000 A 
ATOM      8  C   UNL     1       3.807   6.774  17.508  0.00  0.00    +0.000 A 
ATOM      9  C   UNL     1       4.737   6.374  16.519  0.00  0.00    +0.000 A 
ENDROOT
BRANCH   6  10
ATOM     10  C   UNL     1       1.349   9.093  19.142  0.00  0.00    +0.000 C 
ATOM     11  O   UNL     1       1.088   9.349  20.318  0.00  0.00    +0.000 OA
ATOM     12  N   UNL     1       0.806   9.846  18.127  0.00  0.00    +0.000 N 
ATOM     13  H   UNL     1       0.913   9.564  17.159  0.00  0.00    +0.000 HD
BRANCH  12  14
ATOM     14  C   UNL     1      -0.106  10.921  18.425  0.00  0.00    +0.000 C 
BRANCH  14  15
ATOM     15  C   UNL     1      -1.397  10.690  17.722  0.00  0.00    +0.000 A 
ATOM     16  N   UNL     1      -2.281   9.738  17.959  0.00  0.00    +0.000 NA
ATOM     17  C   UNL     1      -3.316   9.969  17.090  0.00  0.00    +0.000 A 
ATOM     18  C   UNL     1      -3.054  11.062  16.300  0.00  0.00    +0.000 A 
ATOM     19  N   UNL     1      -1.829  11.510  16.707  0.00  0.00    +0.000 N 
ATOM     20  H   UNL     1      -1.329  12.307  16.337  0.00  0.00    +0.000 HD
ENDBRANCH  14  15
ENDBRANCH  12  14
ENDBRANCH   6  10
BRANCH   1  22
ATOM     21  C   UNL     1       5.683   4.235  14.365  0.00  0.00    +0.000 C 
ATOM     22  O   UNL     1       6.205   4.862  15.531  0.00  0.00    +0.000 OA
ENDBRANCH   1  22
TORSDOF 4
ENDMDL
