MODEL 1
REMARK VINA RESULT:      -7.2      0.000      0.000
REMARK  Name = 
REMARK  5 active torsions:
REMARK  status: ('A' for Active; 'I' for Inactive)
REMARK    1  A    between atoms: C_1  and  N_2
REMARK    2  A    between atoms: C_5  and  O_6
REMARK    3  A    between atoms: O_6  and  C_7
REMARK    4  A    between atoms: C_9  and  N_10
REMARK    5  A    between atoms: C_11  and  C_13
REMARK                            x       y       z     vdW  Elec       q    Type
REMARK                         _______ _______ _______ _____ _____    ______ ____
ROOT
ATOM      1  C   UNL     1       4.475   4.061  19.460  0.00  0.00    +0.000 A 
ATOM      2  C   UNL     1       3.807   5.252  19.674  0.00  0.00    +0.000 A 
ATOM      3  C   UNL     1       2.593   5.251  20.367  0.00  0.00    +0.000 A 
ATOM      4  C   UNL     1       2.054   4.016  20.719  0.00  0.00    +0.000 A 
ATOM      5  C   UNL     1       2.769   2.868  20.411  0.00  0.00    +0.000 A 
ATOM      6  N   UNL     1       3.988   2.861  19.817  0.00  0.00    +0.000 NA
ENDROOT
BRANCH   3   7
ATOM      7  N   UNL     1       1.926   6.446  20.758  0.00  0.00    +0.000 N 
ATOM      8  C   UNL     1       1.862   7.608  19.988  0.00  0.00    +0.000 C 
ATOM      9  O   UNL     1       2.319   7.727  18.855  0.00  0.00    +0.000 OA
ATOM     10  H   UNL     1       1.507   6.505  21.677  0.00  0.00    +0.000 HD
BRANCH   8  11
ATOM     11  C   UNL     1       1.199   8.756  20.602  0.00  0.00    +0.000 A 
ATOM     12  C   UNL     1       0.881   9.875  19.847  0.00  0.00    +0.000 A 
ATOM     13  S   UNL     1       0.193  11.090  20.826  0.00  0.00    +0.000 S 
ATOM     14  C   UNL     1       0.360  10.047  22.180  0.00  0.00    +0.000 A 
ATOM     15  N   UNL     1       0.868   8.852  21.954  0.00  0.00    +0.000 NA
ENDBRANCH   8  11
ENDBRANCH   3   7
BRANCH   1  16
ATOM     16  O   UNL     1       5.749   4.156  18.936  0.00  0.00    +0.000 OA
BRANCH  16  21
ATOM     17  C   UNL     1       6.753   4.500  13.401  0.00  0.00    +0.000 C 
ATOM     18  N   UNL     1       6.580   4.128  14.807  0.00  0.00    +0.000 NA
ATOM     19  C   UNL     1       7.419   4.963  15.677  0.00  0.00    +0.000 C 
ATOM     20  C   UNL     1       7.265   4.565  17.143  0.00  0.00    +0.000 C 
ATOM     21  C   UNL     1       5.801   4.640  17.589  0.00  0.00    +0.000 C 
ATOM     22  C   UNL     1       4.946   3.797  16.639  0.00  0.00    +0.000 C 
ATOM     23  C   UNL     1       5.165   4.220  15.188  0.00  0.00    +0.000 C 
ENDBRANCH  16  21
ENDBRANCH   1  16
TORSDOF 4
ENDMDL
MODEL 2
REMARK VINA RESULT:      -7.0      4.840      6.849
REMARK  Name = 
REMARK  5 active torsions:
REMARK  status: ('A' for Active; 'I' for Inactive)
REMARK    1  A    between atoms: C_1  and  N_2
REMARK    2  A    between atoms: C_5  and  O_6
REMARK    3  A    between atoms: O_6  and  C_7
REMARK    4  A    between atoms: C_9  and  N_10
REMARK    5  A    between atoms: C_11  and  C_13
REMARK                            x       y       z     vdW  Elec       q    Type
REMARK                         _______ _______ _______ _____ _____    ______ ____
ROOT
ATOM      1  C   UNL     1       6.700   5.081  18.460  0.00  0.00    +0.000 A 
ATOM      2  C   UNL     1       7.503   6.039  19.049  0.00  0.00    +0.000 A 
ATOM      3  C   UNL     1       7.973   7.113  18.287  0.00  0.00    +0.000 A 
ATOM      4  C   UNL     1       7.693   7.105  16.922  0.00  0.00    +0.000 A 
ATOM      5  C   UNL     1       6.929   6.069  16.408  0.00  0.00    +0.000 A 
ATOM      6  N   UNL     1       6.394   5.069  17.152  0.00  0.00    +0.000 NA
ENDROOT
BRANCH   3   7
ATOM      7  N   UNL     1       8.673   8.214  18.855  0.00  0.00    +0.000 N 
ATOM      8  C   UNL     1       8.524   9.542  18.453  0.00  0.00    +0.000 C 
ATOM      9  O   UNL     1       7.729   9.935  17.605  0.00  0.00    +0.000 OA
ATOM     10  H   UNL     1       9.376   8.047  19.563  0.00  0.00    +0.000 HD
BRANCH   8  11
ATOM     11  C   UNL     1       9.395  10.518  19.106  0.00  0.00    +0.000 A 
ATOM     12  C   UNL     1      10.346  11.215  18.376  0.00  0.00    +0.000 A 
ATOM     13  S   UNL     1      11.273  12.219  19.394  0.00  0.00    +0.000 S 
ATOM     14  C   UNL     1      10.348  11.664  20.729  0.00  0.00    +0.000 A 
ATOM     15  N   UNL     1       9.383  10.804  20.470  0.00  0.00    +0.000 NA
ENDBRANCH   8  11
ENDBRANCH   3   7
BRANCH   1  16
ATOM     16  O   UNL     1       6.123   4.156  19.307  0.00  0.00    +0.000 OA
BRANCH  16  21
ATOM     17  C   UNL     1       0.637   3.255  20.231  0.00  0.00    +0.000 C 
ATOM     18  N   UNL     1       2.075   3.526  20.285  0.00  0.00    +0.000 NA
ATOM     19  C   UNL     1       2.842   2.395  19.747  0.00  0.00    +0.000 C 
ATOM     20  C   UNL     1       4.344   2.657  19.825  0.00  0.00    +0.000 C 
ATOM     21  C   UNL     1       4.722   3.949  19.092  0.00  0.00    +0.000 C 
ATOM     22  C   UNL     1       3.877   5.100  19.643  0.00  0.00    +0.000 C 
ATOM     23  C   UNL     1       2.387   4.768  19.568  0.00  0.00    +0.000 C 
ENDBRANCH  16  21
ENDBRANCH   1  16
TORSDOF 4
ENDMDL
MODEL 3
REMARK VINA RESULT:      -7.0      1.001      1.183
REMARK  Name = 
REMARK  5 active torsions:
REMARK  status: ('A' for Active; 'I' for Inactive)
REMARK    1  A    between atoms: C_1  and  N_2
REMARK    2  A    between atoms: C_5  and  O_6
REMARK    3  A    between atoms: O_6  and  C_7
REMARK    4  A    between atoms: C_9  and  N_10
REMARK    5  A    between atoms: C_11  and  C_13
REMARK                            x       y       z     vdW  Elec       q    Type
REMARK                         _______ _______ _______ _____ _____    ______ ____
ROOT
ATOM      1  C   UNL     1       4.213   4.135  19.551  0.00  0.00    +0.000 A 
ATOM      2  C   UNL     1       3.707   5.420  19.498  0.00  0.00    +0.000 A 
ATOM      3  C   UNL     1       2.528   5.731  20.183  0.00  0.00    +0.000 A 
ATOM      4  C   UNL     1       1.852   4.684  20.806  0.00  0.00    +0.000 A 
ATOM      5  C   UNL     1       2.406   3.414  20.756  0.00  0.00    +0.000 A 
ATOM      6  N   UNL     1       3.592   3.117  20.170  0.00  0.00    +0.000 NA
ENDROOT
BRANCH   3   7
ATOM      7  N   UNL     1       2.031   7.058  20.303  0.00  0.00    +0.000 N 
ATOM      8  C   UNL     1       1.848   7.937  19.234  0.00  0.00    +0.000 C 
ATOM      9  O   UNL     1       2.035   7.657  18.055  0.00  0.00    +0.000 OA
ATOM     10  H   UNL     1       1.840   7.439  21.221  0.00  0.00    +0.000 HD
BRANCH   8  11
ATOM     11  C   UNL     1       1.404   9.287  19.575  0.00  0.00    +0.000 A 
ATOM     12  C   UNL     1       0.884   9.563  20.831  0.00  0.00    +0.000 A 
ATOM     13  S   UNL     1       0.369  11.185  20.929  0.00  0.00    +0.000 S 
ATOM     14  C   UNL     1       0.876  11.410  19.304  0.00  0.00    +0.000 A 
ATOM     15  N   UNL     1       1.421  10.373  18.700  0.00  0.00    +0.000 NA
ENDBRANCH   8  11
ENDBRANCH   3   7
BRANCH   1  16
ATOM     16  O   UNL     1       5.468   3.946  19.009  0.00  0.00    +0.000 OA
BRANCH  16  21
ATOM     17  C   UNL     1       7.096   4.812  13.684  0.00  0.00    +0.000 C 
ATOM     18  N   UNL     1       6.775   4.312  15.022  0.00  0.00    +0.000 NA
ATOM     19  C   UNL     1       7.471   5.092  16.054  0.00  0.00    +0.000 C 
ATOM     20  C   UNL     1       7.164   4.561  17.451  0.00  0.00    +0.000 C 
ATOM     21  C   UNL     1       5.656   4.549  17.724  0.00  0.00    +0.000 C 
ATOM     22  C   UNL     1       4.954   3.767  16.611  0.00  0.00    +0.000 C 
ATOM     23  C   UNL     1       5.323   4.324  15.237  0.00  0.00    +0.000 C 
ENDBRANCH  16  21
ENDBRANCH   1  16
TORSDOF 4
ENDMDL
MODEL 4
REMARK VINA RESULT:      -7.0      3.929      6.614
REMARK  Name = 
REMARK  5 active torsions:
REMARK  status: ('A' for Active; 'I' for Inactive)
REMARK    1  A    between atoms: C_1  and  N_2
REMARK    2  A    between atoms: C_5  and  O_6
REMARK    3  A    between atoms: O_6  and  C_7
REMARK    4  A    between atoms: C_9  and  N_10
REMARK    5  A    between atoms: C_11  and  C_13
REMARK                            x       y       z     vdW  Elec       q    Type
REMARK                         _______ _______ _______ _____ _____    ______ ____
ROOT
ATOM      1  C   UNL     1       4.807   4.885  16.736  0.00  0.00    +0.000 A 
ATOM      2  C   UNL     1       5.373   6.050  17.219  0.00  0.00    +0.000 A 
ATOM      3  C   UNL     1       6.644   6.436  16.784  0.00  0.00    +0.000 A 
ATOM      4  C   UNL     1       7.335   5.556  15.954  0.00  0.00    +0.000 A 
ATOM      5  C   UNL     1       6.709   4.380  15.568  0.00  0.00    +0.000 A 
ATOM      6  N   UNL     1       5.443   4.036  15.912  0.00  0.00    +0.000 NA
ENDROOT
BRANCH   3   7
ATOM      7  N   UNL     1       7.226   7.691  17.116  0.00  0.00    +0.000 N 
ATOM      8  C   UNL     1       8.082   7.909  18.197  0.00  0.00    +0.000 C 
ATOM      9  O   UNL     1       8.487   7.038  18.959  0.00  0.00    +0.000 OA
ATOM     10  H   UNL     1       6.976   8.514  16.582  0.00  0.00    +0.000 HD
BRANCH   8  11
ATOM     11  C   UNL     1       8.509   9.290  18.416  0.00  0.00    +0.000 A 
ATOM     12  C   UNL     1       8.171  10.286  17.512  0.00  0.00    +0.000 A 
ATOM     13  S   UNL     1       8.864  11.775  17.966  0.00  0.00    +0.000 S 
ATOM     14  C   UNL     1       9.559  10.999  19.330  0.00  0.00    +0.000 A 
ATOM     15  N   UNL     1       9.294   9.716  19.487  0.00  0.00    +0.000 NA
ENDBRANCH   8  11
ENDBRANCH   3   7
BRANCH   1  16
ATOM     16  O   UNL     1       3.484   4.663  17.062  0.00  0.00    +0.000 OA
BRANCH  16  21
ATOM     17  C   UNL     1       1.460   2.528  21.869  0.00  0.00    +0.000 C 
ATOM     18  N   UNL     1       1.844   2.854  20.494  0.00  0.00    +0.000 NA
ATOM     19  C   UNL     1       1.363   4.190  20.118  0.00  0.00    +0.000 C 
ATOM     20  C   UNL     1       1.737   4.528  18.677  0.00  0.00    +0.000 C 
ATOM     21  C   UNL     1       3.250   4.428  18.456  0.00  0.00    +0.000 C 
ATOM     22  C   UNL     1       3.728   3.042  18.896  0.00  0.00    +0.000 C 
ATOM     23  C   UNL     1       3.299   2.749  20.333  0.00  0.00    +0.000 C 
ENDBRANCH  16  21
ENDBRANCH   1  16
TORSDOF 4
ENDMDL
MODEL 5
REMARK VINA RESULT:      -6.8      1.077      1.466
REMARK  Name = 
REMARK  5 active torsions:
REMARK  status: ('A' for Active; 'I' for Inactive)
REMARK    1  A    between atoms: C_1  and  N_2
REMARK    2  A    between atoms: C_5  and  O_6
REMARK    3  A    between atoms: O_6  and  C_7
REMARK    4  A    between atoms: C_9  and  N_10
REMARK    5  A    between atoms: C_11  and  C_13
REMARK                            x       y       z     vdW  Elec       q    Type
REMARK                         _______ _______ _______ _____ _____    ______ ____
ROOT
ATOM      1  C   UNL     1       3.910   4.969  19.574  0.00  0.00    +0.000 A 
ATOM      2  C   UNL     1       3.216   6.092  19.984  0.00  0.00    +0.000 A 
ATOM      3  C   UNL     1       1.935   5.956  20.527  0.00  0.00    +0.000 A 
ATOM      4  C   UNL     1       1.369   4.683  20.527  0.00  0.00    +0.000 A 
ATOM      5  C   UNL     1       2.119   3.623  20.040  0.00  0.00    +0.000 A 
ATOM      6  N   UNL     1       3.394   3.729  19.592  0.00  0.00    +0.000 NA
ENDROOT
BRANCH   3   7
ATOM      7  N   UNL     1       1.224   7.042  21.109  0.00  0.00    +0.000 N 
ATOM      8  C   UNL     1       1.123   8.316  20.550  0.00  0.00    +0.000 C 
ATOM      9  O   UNL     1       1.581   8.643  19.460  0.00  0.00    +0.000 OA
ATOM     10  H   UNL     1       0.798   6.928  22.020  0.00  0.00    +0.000 HD
BRANCH   8  11
ATOM     11  C   UNL     1       0.415   9.318  21.344  0.00  0.00    +0.000 A 
ATOM     12  C   UNL     1       0.343  10.635  20.918  0.00  0.00    +0.000 A 
ATOM     13  S   UNL     1      -0.464  11.600  22.068  0.00  0.00    +0.000 S 
ATOM     14  C   UNL     1      -0.665  10.205  23.048  0.00  0.00    +0.000 A 
ATOM     15  N   UNL     1      -0.197   9.068  22.572  0.00  0.00    +0.000 NA
ENDBRANCH   8  11
ENDBRANCH   3   7
BRANCH   1  16
ATOM     16  O   UNL     1       5.232   5.157  19.223  0.00  0.00    +0.000 OA
BRANCH  16  21
ATOM     17  C   UNL     1       7.141   5.004  13.922  0.00  0.00    +0.000 C 
ATOM     18  N   UNL     1       6.782   5.307  15.309  0.00  0.00    +0.000 NA
ATOM     19  C   UNL     1       5.323   5.337  15.478  0.00  0.00    +0.000 C 
ATOM     20  C   UNL     1       4.939   5.678  16.915  0.00  0.00    +0.000 C 
ATOM     21  C   UNL     1       5.567   4.695  17.909  0.00  0.00    +0.000 C 
ATOM     22  C   UNL     1       7.080   4.652  17.680  0.00  0.00    +0.000 C 
ATOM     23  C   UNL     1       7.402   4.337  16.220  0.00  0.00    +0.000 C 
ENDBRANCH  16  21
ENDBRANCH   1  16
TORSDOF 4
ENDMDL
MODEL 6
REMARK VINA RESULT:      -6.8      4.173      6.665
REMARK  Name = 
REMARK  5 active torsions:
REMARK  status: ('A' for Active; 'I' for Inactive)
REMARK    1  A    between atoms: C_1  and  N_2
REMARK    2  A    between atoms: C_5  and  O_6
REMARK    3  A    between atoms: O_6  and  C_7
REMARK    4  A    between atoms: C_9  and  N_10
REMARK    5  A    between atoms: C_11  and  C_13
REMARK                            x       y       z     vdW  Elec       q    Type
REMARK                         _______ _______ _______ _____ _____    ______ ____
ROOT
ATOM      1  C   UNL     1       4.620   5.396  17.004  0.00  0.00    +0.000 A 
ATOM      2  C   UNL     1       5.234   6.570  17.396  0.00  0.00    +0.000 A 
ATOM      3  C   UNL     1       6.535   6.850  16.966  0.00  0.00    +0.000 A 
ATOM      4  C   UNL     1       7.198   5.863  16.240  0.00  0.00    +0.000 A 
ATOM      5  C   UNL     1       6.521   4.689  15.943  0.00  0.00    +0.000 A 
ATOM      6  N   UNL     1       5.231   4.443  16.280  0.00  0.00    +0.000 NA
ENDROOT
BRANCH   3   7
ATOM      7  N   UNL     1       7.174   8.099  17.199  0.00  0.00    +0.000 N 
ATOM      8  C   UNL     1       8.128   8.330  18.192  0.00  0.00    +0.000 C 
ATOM      9  O   UNL     1       8.579   7.474  18.945  0.00  0.00    +0.000 OA
ATOM     10  H   UNL     1       6.897   8.909  16.661  0.00  0.00    +0.000 HD
BRANCH   8  11
ATOM     11  C   UNL     1       8.605   9.705  18.323  0.00  0.00    +0.000 A 
ATOM     12  C   UNL     1       9.438  10.066  19.371  0.00  0.00    +0.000 A 
ATOM     13  S   UNL     1       9.773  11.737  19.330  0.00  0.00    +0.000 S 
ATOM     14  C   UNL     1       8.796  11.865  17.924  0.00  0.00    +0.000 A 
ATOM     15  N   UNL     1       8.258  10.751  17.468  0.00  0.00    +0.000 NA
ENDBRANCH   8  11
ENDBRANCH   3   7
BRANCH   1  16
ATOM     16  O   UNL     1       3.279   5.271  17.310  0.00  0.00    +0.000 OA
BRANCH  16  21
ATOM     17  C   UNL     1       1.199   2.532  21.774  0.00  0.00    +0.000 C 
ATOM     18  N   UNL     1       1.554   3.460  20.699  0.00  0.00    +0.000 NA
ATOM     19  C   UNL     1       2.986   3.787  20.741  0.00  0.00    +0.000 C 
ATOM     20  C   UNL     1       3.361   4.775  19.640  0.00  0.00    +0.000 C 
ATOM     21  C   UNL     1       2.982   4.237  18.256  0.00  0.00    +0.000 C 
ATOM     22  C   UNL     1       1.497   3.865  18.255  0.00  0.00    +0.000 C 
ATOM     23  C   UNL     1       1.176   2.899  19.396  0.00  0.00    +0.000 C 
ENDBRANCH  16  21
ENDBRANCH   1  16
TORSDOF 4
ENDMDL
MODEL 7
REMARK VINA RESULT:      -6.7      1.324      1.480
REMARK  Name = 
REMARK  5 active torsions:
REMARK  status: ('A' for Active; 'I' for Inactive)
REMARK    1  A    between atoms: C_1  and  N_2
REMARK    2  A    between atoms: C_5  and  O_6
REMARK    3  A    between atoms: O_6  and  C_7
REMARK    4  A    between atoms: C_9  and  N_10
REMARK    5  A    between atoms: C_11  and  C_13
REMARK                            x       y       z     vdW  Elec       q    Type
REMARK                         _______ _______ _______ _____ _____    ______ ____
ROOT
ATOM      1  C   UNL     1       3.876   4.768  19.562  0.00  0.00    +0.000 A 
ATOM      2  C   UNL     1       3.443   6.049  19.278  0.00  0.00    +0.000 A 
ATOM      3  C   UNL     1       2.265   6.528  19.861  0.00  0.00    +0.000 A 
ATOM      4  C   UNL     1       1.517   5.635  20.626  0.00  0.00    +0.000 A 
ATOM      5  C   UNL     1       2.002   4.349  20.807  0.00  0.00    +0.000 A 
ATOM      6  N   UNL     1       3.186   3.900  20.320  0.00  0.00    +0.000 NA
ENDROOT
BRANCH   3   7
ATOM      7  N   UNL     1       1.837   7.880  19.741  0.00  0.00    +0.000 N 
ATOM      8  C   UNL     1       1.381   8.665  20.799  0.00  0.00    +0.000 C 
ATOM      9  O   UNL     1       1.348   8.312  21.974  0.00  0.00    +0.000 OA
ATOM     10  H   UNL     1       1.797   8.310  18.826  0.00  0.00    +0.000 HD
BRANCH   8  11
ATOM     11  C   UNL     1       0.909  10.005  20.455  0.00  0.00    +0.000 A 
ATOM     12  C   UNL     1       0.412  10.275  19.188  0.00  0.00    +0.000 A 
ATOM     13  S   UNL     1       0.014  11.925  19.033  0.00  0.00    +0.000 S 
ATOM     14  C   UNL     1       0.523  12.166  20.655  0.00  0.00    +0.000 A 
ATOM     15  N   UNL     1       0.946  11.104  21.313  0.00  0.00    +0.000 NA
ENDBRANCH   8  11
ENDBRANCH   3   7
BRANCH   1  16
ATOM     16  O   UNL     1       5.134   4.429  19.103  0.00  0.00    +0.000 OA
BRANCH  16  21
ATOM     17  C   UNL     1       6.991   4.516  13.783  0.00  0.00    +0.000 C 
ATOM     18  N   UNL     1       6.588   4.208  15.157  0.00  0.00    +0.000 NA
ATOM     19  C   UNL     1       7.316   5.047  16.117  0.00  0.00    +0.000 C 
ATOM     20  C   UNL     1       6.922   4.714  17.554  0.00  0.00    +0.000 C 
ATOM     21  C   UNL     1       5.411   4.857  17.765  0.00  0.00    +0.000 C 
ATOM     22  C   UNL     1       4.680   4.006  16.723  0.00  0.00    +0.000 C 
ATOM     23  C   UNL     1       5.136   4.363  15.310  0.00  0.00    +0.000 C 
ENDBRANCH  16  21
ENDBRANCH   1  16
TORSDOF 4
ENDMDL
MODEL 8
REMARK VINA RESULT:      -6.7      2.964      5.128
REMARK  Name = 
REMARK  5 active torsions:
REMARK  status: ('A' for Active; 'I' for Inactive)
REMARK    1  A    between atoms: C_1  and  N_2
REMARK    2  A    between atoms: C_5  and  O_6
REMARK    3  A    between atoms: O_6  and  C_7
REMARK    4  A    between atoms: C_9  and  N_10
REMARK    5  A    between atoms: C_11  and  C_13
REMARK                            x       y       z     vdW  Elec       q    Type
REMARK                         _______ _______ _______ _____ _____    ______ ____
ROOT
ATOM      1  C   UNL     1       1.970   7.862  19.704  0.00  0.00    +0.000 A 
ATOM      2  C   UNL     1       1.122   8.675  20.432  0.00  0.00    +0.000 A 
ATOM      3  C   UNL     1       0.495   9.758  19.810  0.00  0.00    +0.000 A 
ATOM      4  C   UNL     1       0.848  10.034  18.491  0.00  0.00    +0.000 A 
ATOM      5  C   UNL     1       1.754   9.197  17.857  0.00  0.00    +0.000 A 
ATOM      6  N   UNL     1       2.302   8.093  18.423  0.00  0.00    +0.000 NA
ENDROOT
BRANCH   3   7
ATOM      7  N   UNL     1      -0.504  10.544  20.449  0.00  0.00    +0.000 N 
ATOM      8  C   UNL     1      -0.244  11.620  21.300  0.00  0.00    +0.000 C 
ATOM      9  O   UNL     1       0.872  12.061  21.554  0.00  0.00    +0.000 OA
ATOM     10  H   UNL     1      -1.478  10.295  20.344  0.00  0.00    +0.000 HD
BRANCH   8  11
ATOM     11  C   UNL     1      -1.408  12.248  21.922  0.00  0.00    +0.000 A 
ATOM     12  C   UNL     1      -1.964  11.716  23.076  0.00  0.00    +0.000 A 
ATOM     13  S   UNL     1      -3.352  12.592  23.537  0.00  0.00    +0.000 S 
ATOM     14  C   UNL     1      -3.116  13.617  22.180  0.00  0.00    +0.000 A 
ATOM     15  N   UNL     1      -2.067  13.370  21.421  0.00  0.00    +0.000 NA
ENDBRANCH   8  11
ENDBRANCH   3   7
BRANCH   1  16
ATOM     16  O   UNL     1       2.406   6.711  20.328  0.00  0.00    +0.000 OA
BRANCH  16  21
ATOM     17  C   UNL     1       3.493   1.526  18.404  0.00  0.00    +0.000 C 
ATOM     18  N   UNL     1       3.286   2.759  19.168  0.00  0.00    +0.000 NA
ATOM     19  C   UNL     1       4.150   3.836  18.668  0.00  0.00    +0.000 C 
ATOM     20  C   UNL     1       3.960   5.118  19.475  0.00  0.00    +0.000 C 
ATOM     21  C   UNL     1       2.496   5.568  19.469  0.00  0.00    +0.000 C 
ATOM     22  C   UNL     1       1.616   4.412  19.952  0.00  0.00    +0.000 C 
ATOM     23  C   UNL     1       1.872   3.151  19.128  0.00  0.00    +0.000 C 
ENDBRANCH  16  21
ENDBRANCH   1  16
TORSDOF 4
ENDMDL
MODEL 9
REMARK VINA RESULT:      -6.6      3.906      8.481
REMARK  Name = 
REMARK  5 active torsions:
REMARK  status: ('A' for Active; 'I' for Inactive)
REMARK    1  A    between atoms: C_1  and  N_2
REMARK    2  A    between atoms: C_5  and  O_6
REMARK    3  A    between atoms: O_6  and  C_7
REMARK    4  A    between atoms: C_9  and  N_10
REMARK    5  A    between atoms: C_11  and  C_13
REMARK                            x       y       z     vdW  Elec       q    Type
REMARK                         _______ _______ _______ _____ _____    ______ ____
ROOT
ATOM      1  C   UNL     1       1.230   9.231  18.791  0.00  0.00    +0.000 A 
ATOM      2  C   UNL     1       2.038   8.423  18.014  0.00  0.00    +0.000 A 
ATOM      3  C   UNL     1       2.594   7.264  18.565  0.00  0.00    +0.000 A 
ATOM      4  C   UNL     1       2.391   7.036  19.924  0.00  0.00    +0.000 A 
ATOM      5  C   UNL     1       1.613   7.935  20.638  0.00  0.00    +0.000 A 
ATOM      6  N   UNL     1       0.996   9.014  20.096  0.00  0.00    +0.000 NA
ENDROOT
BRANCH   3   7
ATOM      7  N   UNL     1       3.307   6.307  17.790  0.00  0.00    +0.000 N 
ATOM      8  C   UNL     1       4.602   6.486  17.303  0.00  0.00    +0.000 C 
ATOM      9  O   UNL     1       5.311   7.461  17.530  0.00  0.00    +0.000 OA
ATOM     10  H   UNL     1       2.848   5.450  17.511  0.00  0.00    +0.000 HD
BRANCH   8  11
ATOM     11  C   UNL     1       5.129   5.416  16.458  0.00  0.00    +0.000 A 
ATOM     12  C   UNL     1       5.630   5.695  15.195  0.00  0.00    +0.000 A 
ATOM     13  S   UNL     1       6.098   4.262  14.399  0.00  0.00    +0.000 S 
ATOM     14  C   UNL     1       5.611   3.373  15.784  0.00  0.00    +0.000 A 
ATOM     15  N   UNL     1       5.146   4.065  16.806  0.00  0.00    +0.000 NA
ENDBRANCH   8  11
ENDBRANCH   3   7
BRANCH   1  16
ATOM     16  O   UNL     1       0.569  10.251  18.137  0.00  0.00    +0.000 OA
BRANCH  16  21
ATOM     17  C   UNL     1      -4.857  11.764  17.961  0.00  0.00    +0.000 C 
ATOM     18  N   UNL     1      -3.423  11.540  17.764  0.00  0.00    +0.000 NA
ATOM     19  C   UNL     1      -2.657  11.989  18.934  0.00  0.00    +0.000 C 
ATOM     20  C   UNL     1      -1.159  11.783  18.726  0.00  0.00    +0.000 C 
ATOM     21  C   UNL     1      -0.835  10.319  18.411  0.00  0.00    +0.000 C 
ATOM     22  C   UNL     1      -1.680   9.868  17.217  0.00  0.00    +0.000 C 
ATOM     23  C   UNL     1      -3.164  10.125  17.469  0.00  0.00    +0.000 C 
ENDBRANCH  16  21
ENDBRANCH   1  16
TORSDOF 4
ENDMDL
