MODEL 1
REMARK VINA RESULT:      -9.0      0.000      0.000
REMARK  Name = 
REMARK  8 active torsions:
REMARK  status: ('A' for Active; 'I' for Inactive)
REMARK    1  A    between atoms: C_1  and  C_2
REMARK    2  A    between atoms: N_4  and  C_5
REMARK    3  A    between atoms: C_5  and  C_6
REMARK    4  A    between atoms: C_6  and  C_7
REMARK    5  A    between atoms: C_7  and  C_8
REMARK    6  A    between atoms: N_10  and  C_11
REMARK    7  A    between atoms: C_11  and  C_12
REMARK    8  A    between atoms: C_26  and  C_27
REMARK                            x       y       z     vdW  Elec       q    Type
REMARK                         _______ _______ _______ _____ _____    ______ ____
ROOT
ATOM      1  C   UNL     1       0.980   2.379  18.731  0.00  0.00    +0.000 C 
ENDROOT
BRANCH   1   2
ATOM      2  C   UNL     1       1.329   3.223  19.943  0.00  0.00    +0.000 C 
ATOM      3  O   UNL     1       1.356   2.753  21.076  0.00  0.00    +0.000 OA
ATOM      4  N   UNL     1       1.630   4.534  19.662  0.00  0.00    +0.000 N 
ATOM      5  H   UNL     1       1.647   4.841  18.695  0.00  0.00    +0.000 HD
BRANCH   4   6
ATOM      6  C   UNL     1       1.943   5.509  20.704  0.00  0.00    +0.000 C 
BRANCH   6   7
ATOM      7  C   UNL     1       2.154   6.852  20.046  0.00  0.00    +0.000 A 
ATOM      8  C   UNL     1       2.745   6.936  18.759  0.00  0.00    +0.000 A 
ATOM      9  C   UNL     1       2.557   8.067  17.961  0.00  0.00    +0.000 A 
ATOM     10  C   UNL     1       1.743   9.053  18.467  0.00  0.00    +0.000 A 
ATOM     11  C   UNL     1       1.276   9.026  19.765  0.00  0.00    +0.000 A 
ATOM     12  C   UNL     1       1.511   7.967  20.602  0.00  0.00    +0.000 A 
ATOM     13  O   UNL     1       0.377  10.025  20.004  0.00  0.00    +0.000 OA
ATOM     14  C   UNL     1       0.037  10.319  18.636  0.00  0.00    +0.000 C 
ATOM     15  O   UNL     1       1.140  10.044  17.744  0.00  0.00    +0.000 OA
ENDBRANCH   6   7
ENDBRANCH   4   6
ENDBRANCH   1   2
BRANCH   1  16
ATOM     16  C   UNL     1       1.941   2.656  17.579  0.00  0.00    +0.000 C 
BRANCH  16  17
ATOM     17  C   UNL     1       3.355   2.172  17.898  0.00  0.00    +0.000 C 
BRANCH  17  21
ATOM     18  C   UNL     1       5.328   5.799  15.362  0.00  0.00    +0.000 C 
ATOM     19  C   UNL     1       5.251   5.023  16.645  0.00  0.00    +0.000 A 
ATOM     20  N   UNL     1       4.425   4.017  16.736  0.00  0.00    +0.000 NA
ATOM     21  N   UNL     1       4.322   3.266  17.918  0.00  0.00    +0.000 N 
ATOM     22  C   UNL     1       5.098   3.478  19.080  0.00  0.00    +0.000 A 
ATOM     23  O   UNL     1       5.010   2.777  20.093  0.00  0.00    +0.000 OA
ATOM     24  C   UNL     1       5.988   4.614  18.960  0.00  0.00    +0.000 A 
ATOM     25  N   UNL     1       6.817   5.089  19.899  0.00  0.00    +0.000 NA
ATOM     26  O   UNL     1       7.446   6.178  19.307  0.00  0.00    +0.000 OA
ATOM     27  C   UNL     1       6.990   6.338  18.029  0.00  0.00    +0.000 A 
ATOM     28  C   UNL     1       7.566   7.463  17.271  0.00  0.00    +0.000 C 
ATOM     29  C   UNL     1       6.059   5.362  17.777  0.00  0.00    +0.000 A 
ENDBRANCH  17  21
ENDBRANCH  16  17
ENDBRANCH   1  16
TORSDOF 6
ENDMDL
MODEL 2
REMARK VINA RESULT:      -7.9      0.944      1.167
REMARK  Name = 
REMARK  8 active torsions:
REMARK  status: ('A' for Active; 'I' for Inactive)
REMARK    1  A    between atoms: C_1  and  C_2
REMARK    2  A    between atoms: N_4  and  C_5
REMARK    3  A    between atoms: C_5  and  C_6
REMARK    4  A    between atoms: C_6  and  C_7
REMARK    5  A    between atoms: C_7  and  C_8
REMARK    6  A    between atoms: N_10  and  C_11
REMARK    7  A    between atoms: C_11  and  C_12
REMARK    8  A    between atoms: C_26  and  C_27
REMARK                            x       y       z     vdW  Elec       q    Type
REMARK                         _______ _______ _______ _____ _____    ______ ____
ROOT
ATOM      1  C   UNL     1       1.640   3.856  17.912  0.00  0.00    +0.000 C 
ENDROOT
BRANCH   1   2
ATOM      2  C   UNL     1       1.525   4.607  19.226  0.00  0.00    +0.000 C 
ATOM      3  O   UNL     1       0.967   4.121  20.204  0.00  0.00    +0.000 OA
ATOM      4  N   UNL     1       2.111   5.850  19.231  0.00  0.00    +0.000 N 
ATOM      5  H   UNL     1       2.609   6.165  18.405  0.00  0.00    +0.000 HD
BRANCH   4   6
ATOM      6  C   UNL     1       2.060   6.738  20.389  0.00  0.00    +0.000 C 
BRANCH   6   7
ATOM      7  C   UNL     1       1.808   8.143  19.896  0.00  0.00    +0.000 A 
ATOM      8  C   UNL     1       1.971   8.462  18.524  0.00  0.00    +0.000 A 
ATOM      9  C   UNL     1       1.344   9.583  17.973  0.00  0.00    +0.000 A 
ATOM     10  C   UNL     1       0.538  10.316  18.813  0.00  0.00    +0.000 A 
ATOM     11  C   UNL     1       0.484  10.079  20.171  0.00  0.00    +0.000 A 
ATOM     12  C   UNL     1       1.152   9.036  20.756  0.00  0.00    +0.000 A 
ATOM     13  O   UNL     1      -0.481  10.828  20.780  0.00  0.00    +0.000 OA
ATOM     14  C   UNL     1      -1.255  11.148  19.609  0.00  0.00    +0.000 C 
ATOM     15  O   UNL     1      -0.428  11.201  18.426  0.00  0.00    +0.000 OA
ENDBRANCH   6   7
ENDBRANCH   4   6
ENDBRANCH   1   2
BRANCH   1  16
ATOM     16  C   UNL     1       1.875   2.368  18.154  0.00  0.00    +0.000 C 
BRANCH  16  17
ATOM     17  C   UNL     1       3.288   1.949  17.746  0.00  0.00    +0.000 C 
BRANCH  17  21
ATOM     18  C   UNL     1       5.411   5.503  15.228  0.00  0.00    +0.000 C 
ATOM     19  C   UNL     1       5.237   4.782  16.534  0.00  0.00    +0.000 A 
ATOM     20  N   UNL     1       4.423   3.764  16.598  0.00  0.00    +0.000 NA
ATOM     21  N   UNL     1       4.231   3.063  17.800  0.00  0.00    +0.000 N 
ATOM     22  C   UNL     1       4.900   3.340  19.013  0.00  0.00    +0.000 A 
ATOM     23  O   UNL     1       4.736   2.682  20.045  0.00  0.00    +0.000 OA
ATOM     24  C   UNL     1       5.778   4.488  18.919  0.00  0.00    +0.000 A 
ATOM     25  N   UNL     1       6.515   5.020  19.903  0.00  0.00    +0.000 NA
ATOM     26  O   UNL     1       7.174   6.095  19.320  0.00  0.00    +0.000 OA
ATOM     27  C   UNL     1       6.828   6.190  18.001  0.00  0.00    +0.000 A 
ATOM     28  C   UNL     1       7.449   7.293  17.246  0.00  0.00    +0.000 C 
ATOM     29  C   UNL     1       5.939   5.186  17.714  0.00  0.00    +0.000 A 
ENDBRANCH  17  21
ENDBRANCH  16  17
ENDBRANCH   1  16
TORSDOF 6
ENDMDL
MODEL 3
REMARK VINA RESULT:      -7.8      4.102      7.405
REMARK  Name = 
REMARK  8 active torsions:
REMARK  status: ('A' for Active; 'I' for Inactive)
REMARK    1  A    between atoms: C_1  and  C_2
REMARK    2  A    between atoms: N_4  and  C_5
REMARK    3  A    between atoms: C_5  and  C_6
REMARK    4  A    between atoms: C_6  and  C_7
REMARK    5  A    between atoms: C_7  and  C_8
REMARK    6  A    between atoms: N_10  and  C_11
REMARK    7  A    between atoms: C_11  and  C_12
REMARK    8  A    between atoms: C_26  and  C_27
REMARK                            x       y       z     vdW  Elec       q    Type
REMARK                         _______ _______ _______ _____ _____    ______ ____
ROOT
ATOM      1  C   UNL     1       7.886   6.270  18.782  0.00  0.00    +0.000 C 
ENDROOT
BRANCH   1   2
ATOM      2  C   UNL     1       7.943   7.522  17.926  0.00  0.00    +0.000 C 
ATOM      3  O   UNL     1       7.622   7.513  16.742  0.00  0.00    +0.000 OA
ATOM      4  N   UNL     1       8.358   8.652  18.588  0.00  0.00    +0.000 N 
ATOM      5  H   UNL     1       8.550   8.600  19.583  0.00  0.00    +0.000 HD
BRANCH   4   6
ATOM      6  C   UNL     1       8.521   9.940  17.918  0.00  0.00    +0.000 C 
BRANCH   6   7
ATOM      7  C   UNL     1       9.590  10.719  18.645  0.00  0.00    +0.000 A 
ATOM      8  C   UNL     1      10.568  11.447  17.920  0.00  0.00    +0.000 A 
ATOM      9  C   UNL     1      11.269  12.495  18.521  0.00  0.00    +0.000 A 
ATOM     10  C   UNL     1      10.928  12.804  19.816  0.00  0.00    +0.000 A 
ATOM     11  C   UNL     1      10.072  12.016  20.559  0.00  0.00    +0.000 A 
ATOM     12  C   UNL     1       9.430  10.932  20.022  0.00  0.00    +0.000 A 
ATOM     13  O   UNL     1       9.769  12.587  21.761  0.00  0.00    +0.000 OA
ATOM     14  C   UNL     1      10.144  13.939  21.441  0.00  0.00    +0.000 C 
ATOM     15  O   UNL     1      11.205  13.977  20.460  0.00  0.00    +0.000 OA
ENDBRANCH   6   7
ENDBRANCH   4   6
ENDBRANCH   1   2
BRANCH   1  16
ATOM     16  C   UNL     1       7.735   5.024  17.916  0.00  0.00    +0.000 C 
BRANCH  16  17
ATOM     17  C   UNL     1       6.379   4.991  17.211  0.00  0.00    +0.000 C 
BRANCH  17  21
ATOM     18  C   UNL     1       4.389   1.834  20.302  0.00  0.00    +0.000 C 
ATOM     19  C   UNL     1       4.349   3.181  19.640  0.00  0.00    +0.000 A 
ATOM     20  N   UNL     1       5.280   3.499  18.782  0.00  0.00    +0.000 NA
ATOM     21  N   UNL     1       5.279   4.749  18.142  0.00  0.00    +0.000 N 
ATOM     22  C   UNL     1       4.292   5.745  18.313  0.00  0.00    +0.000 A 
ATOM     23  O   UNL     1       4.300   6.821  17.707  0.00  0.00    +0.000 OA
ATOM     24  C   UNL     1       3.286   5.375  19.286  0.00  0.00    +0.000 A 
ATOM     25  N   UNL     1       2.247   6.117  19.693  0.00  0.00    +0.000 NA
ATOM     26  O   UNL     1       1.584   5.331  20.627  0.00  0.00    +0.000 OA
ATOM     27  C   UNL     1       2.229   4.133  20.764  0.00  0.00    +0.000 A 
ATOM     28  C   UNL     1       1.641   3.188  21.731  0.00  0.00    +0.000 C 
ATOM     29  C   UNL     1       3.317   4.129  19.929  0.00  0.00    +0.000 A 
ENDBRANCH  17  21
ENDBRANCH  16  17
ENDBRANCH   1  16
TORSDOF 6
ENDMDL
MODEL 4
REMARK VINA RESULT:      -7.7      2.757      7.072
REMARK  Name = 
REMARK  8 active torsions:
REMARK  status: ('A' for Active; 'I' for Inactive)
REMARK    1  A    between atoms: C_1  and  C_2
REMARK    2  A    between atoms: N_4  and  C_5
REMARK    3  A    between atoms: C_5  and  C_6
REMARK    4  A    between atoms: C_6  and  C_7
REMARK    5  A    between atoms: C_7  and  C_8
REMARK    6  A    between atoms: N_10  and  C_11
REMARK    7  A    between atoms: C_11  and  C_12
REMARK    8  A    between atoms: C_26  and  C_27
REMARK                            x       y       z     vdW  Elec       q    Type
REMARK                         _______ _______ _______ _____ _____    ______ ____
ROOT
ATOM      1  C   UNL     1       1.159   4.532  20.304  0.00  0.00    +0.000 C 
ENDROOT
BRANCH   1   2
ATOM      2  C   UNL     1       2.058   3.749  19.366  0.00  0.00    +0.000 C 
ATOM      3  O   UNL     1       1.607   3.072  18.448  0.00  0.00    +0.000 OA
ATOM      4  N   UNL     1       3.403   3.881  19.617  0.00  0.00    +0.000 N 
ATOM      5  H   UNL     1       3.710   4.506  20.355  0.00  0.00    +0.000 HD
BRANCH   4   6
ATOM      6  C   UNL     1       4.419   3.165  18.850  0.00  0.00    +0.000 C 
BRANCH   6   7
ATOM      7  C   UNL     1       5.114   4.155  17.945  0.00  0.00    +0.000 A 
ATOM      8  C   UNL     1       6.348   4.738  18.332  0.00  0.00    +0.000 A 
ATOM      9  C   UNL     1       7.207   5.288  17.378  0.00  0.00    +0.000 A 
ATOM     10  C   UNL     1       6.816   5.189  16.064  0.00  0.00    +0.000 A 
ATOM     11  C   UNL     1       5.562   4.740  15.702  0.00  0.00    +0.000 A 
ATOM     12  C   UNL     1       4.663   4.269  16.622  0.00  0.00    +0.000 A 
ATOM     13  O   UNL     1       5.444   4.593  14.350  0.00  0.00    +0.000 OA
ATOM     14  C   UNL     1       6.847   4.552  14.030  0.00  0.00    +0.000 C 
ATOM     15  O   UNL     1       7.629   5.319  14.973  0.00  0.00    +0.000 OA
ENDBRANCH   6   7
ENDBRANCH   4   6
ENDBRANCH   1   2
BRANCH   1  16
ATOM     16  C   UNL     1       1.880   5.759  20.852  0.00  0.00    +0.000 C 
BRANCH  16  17
ATOM     17  C   UNL     1       2.130   6.799  19.759  0.00  0.00    +0.000 C 
BRANCH  17  21
ATOM     18  C   UNL     1       0.093   9.482  23.242  0.00  0.00    +0.000 C 
ATOM     19  C   UNL     1       0.575   9.370  21.825  0.00  0.00    +0.000 A 
ATOM     20  N   UNL     1       1.096   8.246  21.413  0.00  0.00    +0.000 NA
ATOM     21  N   UNL     1       1.559   8.101  20.096  0.00  0.00    +0.000 N 
ATOM     22  C   UNL     1       1.479   9.096  19.096  0.00  0.00    +0.000 A 
ATOM     23  O   UNL     1       1.863   8.925  17.935  0.00  0.00    +0.000 OA
ATOM     24  C   UNL     1       0.919  10.338  19.586  0.00  0.00    +0.000 A 
ATOM     25  N   UNL     1       0.749  11.473  18.894  0.00  0.00    +0.000 NA
ATOM     26  O   UNL     1       0.185  12.366  19.796  0.00  0.00    +0.000 OA
ATOM     27  C   UNL     1       0.022  11.757  21.009  0.00  0.00    +0.000 A 
ATOM     28  C   UNL     1      -0.566  12.586  22.076  0.00  0.00    +0.000 C 
ATOM     29  C   UNL     1       0.481  10.468  20.911  0.00  0.00    +0.000 A 
ENDBRANCH  17  21
ENDBRANCH  16  17
ENDBRANCH   1  16
TORSDOF 6
ENDMDL
MODEL 5
REMARK VINA RESULT:      -7.7      2.325      6.423
REMARK  Name = 
REMARK  8 active torsions:
REMARK  status: ('A' for Active; 'I' for Inactive)
REMARK    1  A    between atoms: C_1  and  C_2
REMARK    2  A    between atoms: N_4  and  C_5
REMARK    3  A    between atoms: C_5  and  C_6
REMARK    4  A    between atoms: C_6  and  C_7
REMARK    5  A    between atoms: C_7  and  C_8
REMARK    6  A    between atoms: N_10  and  C_11
REMARK    7  A    between atoms: C_11  and  C_12
REMARK    8  A    between atoms: C_26  and  C_27
REMARK                            x       y       z     vdW  Elec       q    Type
REMARK                         _______ _______ _______ _____ _____    ______ ____
ROOT
ATOM      1  C   UNL     1       1.630   3.390  21.291  0.00  0.00    +0.000 C 
ENDROOT
BRANCH   1   2
ATOM      2  C   UNL     1       2.871   2.826  20.624  0.00  0.00    +0.000 C 
ATOM      3  O   UNL     1       3.796   2.347  21.272  0.00  0.00    +0.000 OA
ATOM      4  N   UNL     1       2.858   2.877  19.251  0.00  0.00    +0.000 N 
ATOM      5  H   UNL     1       2.034   3.232  18.777  0.00  0.00    +0.000 HD
BRANCH   4   6
ATOM      6  C   UNL     1       3.984   2.426  18.437  0.00  0.00    +0.000 C 
BRANCH   6   7
ATOM      7  C   UNL     1       4.653   3.641  17.840  0.00  0.00    +0.000 A 
ATOM      8  C   UNL     1       5.665   4.329  18.557  0.00  0.00    +0.000 A 
ATOM      9  C   UNL     1       6.581   5.147  17.890  0.00  0.00    +0.000 A 
ATOM     10  C   UNL     1       6.474   5.206  16.521  0.00  0.00    +0.000 A 
ATOM     11  C   UNL     1       5.414   4.642  15.842  0.00  0.00    +0.000 A 
ATOM     12  C   UNL     1       4.452   3.901  16.477  0.00  0.00    +0.000 A 
ATOM     13  O   UNL     1       5.586   4.701  14.489  0.00  0.00    +0.000 OA
ATOM     14  C   UNL     1       7.009   4.919  14.478  0.00  0.00    +0.000 C 
ATOM     15  O   UNL     1       7.446   5.629  15.659  0.00  0.00    +0.000 OA
ENDBRANCH   6   7
ENDBRANCH   4   6
ENDBRANCH   1   2
BRANCH   1  16
ATOM     16  C   UNL     1       1.177   4.674  20.602  0.00  0.00    +0.000 C 
BRANCH  16  17
ATOM     17  C   UNL     1       2.317   5.687  20.495  0.00  0.00    +0.000 C 
BRANCH  17  21
ATOM     18  C   UNL     1      -0.291   9.308  22.383  0.00  0.00    +0.000 C 
ATOM     19  C   UNL     1       0.553   8.785  21.255  0.00  0.00    +0.000 A 
ATOM     20  N   UNL     1       1.035   7.574  21.326  0.00  0.00    +0.000 NA
ATOM     21  N   UNL     1       1.829   7.048  20.294  0.00  0.00    +0.000 N 
ATOM     22  C   UNL     1       2.146   7.723  19.094  0.00  0.00    +0.000 A 
ATOM     23  O   UNL     1       2.817   7.219  18.188  0.00  0.00    +0.000 OA
ATOM     24  C   UNL     1       1.618   9.071  19.053  0.00  0.00    +0.000 A 
ATOM     25  N   UNL     1       1.780   9.969  18.072  0.00  0.00    +0.000 NA
ATOM     26  O   UNL     1       1.093  11.099  18.499  0.00  0.00    +0.000 OA
ATOM     27  C   UNL     1       0.528  10.862  19.721  0.00  0.00    +0.000 A 
ATOM     28  C   UNL     1      -0.236  11.977  20.308  0.00  0.00    +0.000 C 
ATOM     29  C   UNL     1       0.845   9.584  20.104  0.00  0.00    +0.000 A 
ENDBRANCH  17  21
ENDBRANCH  16  17
ENDBRANCH   1  16
TORSDOF 6
ENDMDL
MODEL 6
REMARK VINA RESULT:      -7.6      4.157      7.584
REMARK  Name = 
REMARK  8 active torsions:
REMARK  status: ('A' for Active; 'I' for Inactive)
REMARK    1  A    between atoms: C_1  and  C_2
REMARK    2  A    between atoms: N_4  and  C_5
REMARK    3  A    between atoms: C_5  and  C_6
REMARK    4  A    between atoms: C_6  and  C_7
REMARK    5  A    between atoms: C_7  and  C_8
REMARK    6  A    between atoms: N_10  and  C_11
REMARK    7  A    between atoms: C_11  and  C_12
REMARK    8  A    between atoms: C_26  and  C_27
REMARK                            x       y       z     vdW  Elec       q    Type
REMARK                         _______ _______ _______ _____ _____    ______ ____
ROOT
ATOM      1  C   UNL     1       7.858   6.374  18.845  0.00  0.00    +0.000 C 
ENDROOT
BRANCH   1   2
ATOM      2  C   UNL     1       7.962   7.511  17.846  0.00  0.00    +0.000 C 
ATOM      3  O   UNL     1       7.771   7.341  16.646  0.00  0.00    +0.000 OA
ATOM      4  N   UNL     1       8.260   8.734  18.398  0.00  0.00    +0.000 N 
ATOM      5  H   UNL     1       8.345   8.815  19.406  0.00  0.00    +0.000 HD
BRANCH   4   6
ATOM      6  C   UNL     1       8.448   9.936  17.589  0.00  0.00    +0.000 C 
BRANCH   6   7
ATOM      7  C   UNL     1       9.051  11.007  18.466  0.00  0.00    +0.000 A 
ATOM      8  C   UNL     1       9.625  10.669  19.719  0.00  0.00    +0.000 A 
ATOM      9  C   UNL     1      10.551  11.518  20.331  0.00  0.00    +0.000 A 
ATOM     10  C   UNL     1      10.902  12.652  19.638  0.00  0.00    +0.000 A 
ATOM     11  C   UNL     1      10.249  13.041  18.486  0.00  0.00    +0.000 A 
ATOM     12  C   UNL     1       9.278  12.270  17.903  0.00  0.00    +0.000 A 
ATOM     13  O   UNL     1      10.853  14.114  17.896  0.00  0.00    +0.000 OA
ATOM     14  C   UNL     1      12.134  14.003  18.543  0.00  0.00    +0.000 C 
ATOM     15  O   UNL     1      12.015  13.413  19.857  0.00  0.00    +0.000 OA
ENDBRANCH   6   7
ENDBRANCH   4   6
ENDBRANCH   1   2
BRANCH   1  16
ATOM     16  C   UNL     1       7.744   5.030  18.131  0.00  0.00    +0.000 C 
BRANCH  16  17
ATOM     17  C   UNL     1       6.422   4.907  17.373  0.00  0.00    +0.000 C 
BRANCH  17  21
ATOM     18  C   UNL     1       4.417   1.751  20.455  0.00  0.00    +0.000 C 
ATOM     19  C   UNL     1       4.359   3.083  19.763  0.00  0.00    +0.000 A 
ATOM     20  N   UNL     1       5.312   3.413  18.934  0.00  0.00    +0.000 NA
ATOM     21  N   UNL     1       5.296   4.649  18.267  0.00  0.00    +0.000 N 
ATOM     22  C   UNL     1       4.271   5.615  18.378  0.00  0.00    +0.000 A 
ATOM     23  O   UNL     1       4.268   6.678  17.750  0.00  0.00    +0.000 OA
ATOM     24  C   UNL     1       3.240   5.232  19.321  0.00  0.00    +0.000 A 
ATOM     25  N   UNL     1       2.164   5.948  19.672  0.00  0.00    +0.000 NA
ATOM     26  O   UNL     1       1.491   5.160  20.598  0.00  0.00    +0.000 OA
ATOM     27  C   UNL     1       2.168   3.988  20.785  0.00  0.00    +0.000 A 
ATOM     28  C   UNL     1       1.574   3.044  21.750  0.00  0.00    +0.000 C 
ATOM     29  C   UNL     1       3.287   4.002  19.992  0.00  0.00    +0.000 A 
ENDBRANCH  17  21
ENDBRANCH  16  17
ENDBRANCH   1  16
TORSDOF 6
ENDMDL
MODEL 7
REMARK VINA RESULT:      -7.6      1.374      1.935
REMARK  Name = 
REMARK  8 active torsions:
REMARK  status: ('A' for Active; 'I' for Inactive)
REMARK    1  A    between atoms: C_1  and  C_2
REMARK    2  A    between atoms: N_4  and  C_5
REMARK    3  A    between atoms: C_5  and  C_6
REMARK    4  A    between atoms: C_6  and  C_7
REMARK    5  A    between atoms: C_7  and  C_8
REMARK    6  A    between atoms: N_10  and  C_11
REMARK    7  A    between atoms: C_11  and  C_12
REMARK    8  A    between atoms: C_26  and  C_27
REMARK                            x       y       z     vdW  Elec       q    Type
REMARK                         _______ _______ _______ _____ _____    ______ ____
ROOT
ATOM      1  C   UNL     1       1.583   3.432  18.969  0.00  0.00    +0.000 C 
ENDROOT
BRANCH   1   2
ATOM      2  C   UNL     1       1.731   4.840  18.421  0.00  0.00    +0.000 C 
ATOM      3  O   UNL     1       1.234   5.176  17.351  0.00  0.00    +0.000 OA
ATOM      4  N   UNL     1       2.440   5.698  19.228  0.00  0.00    +0.000 N 
ATOM      5  H   UNL     1       2.771   5.370  20.129  0.00  0.00    +0.000 HD
BRANCH   4   6
ATOM      6  C   UNL     1       2.726   7.079  18.846  0.00  0.00    +0.000 C 
BRANCH   6   7
ATOM      7  C   UNL     1       1.752   7.980  19.568  0.00  0.00    +0.000 A 
ATOM      8  C   UNL     1       1.487   7.791  20.948  0.00  0.00    +0.000 A 
ATOM      9  C   UNL     1       0.963   8.830  21.723  0.00  0.00    +0.000 A 
ATOM     10  C   UNL     1       0.769  10.035  21.090  0.00  0.00    +0.000 A 
ATOM     11  C   UNL     1       0.905  10.178  19.724  0.00  0.00    +0.000 A 
ATOM     12  C   UNL     1       1.340   9.155  18.923  0.00  0.00    +0.000 A 
ATOM     13  O   UNL     1       0.804  11.484  19.337  0.00  0.00    +0.000 OA
ATOM     14  C   UNL     1       1.060  12.092  20.616  0.00  0.00    +0.000 C 
ATOM     15  O   UNL     1       0.621  11.247  21.703  0.00  0.00    +0.000 OA
ENDBRANCH   6   7
ENDBRANCH   4   6
ENDBRANCH   1   2
BRANCH   1  16
ATOM     16  C   UNL     1       1.938   2.395  17.907  0.00  0.00    +0.000 C 
BRANCH  16  17
ATOM     17  C   UNL     1       3.385   1.922  18.046  0.00  0.00    +0.000 C 
BRANCH  17  21
ATOM     18  C   UNL     1       5.321   5.413  15.298  0.00  0.00    +0.000 C 
ATOM     19  C   UNL     1       5.246   4.719  16.628  0.00  0.00    +0.000 A 
ATOM     20  N   UNL     1       4.435   3.707  16.776  0.00  0.00    +0.000 NA
ATOM     21  N   UNL     1       4.335   3.031  18.003  0.00  0.00    +0.000 N 
ATOM     22  C   UNL     1       5.098   3.328  19.154  0.00  0.00    +0.000 A 
ATOM     23  O   UNL     1       5.012   2.692  20.209  0.00  0.00    +0.000 OA
ATOM     24  C   UNL     1       5.971   4.468  18.969  0.00  0.00    +0.000 A 
ATOM     25  N   UNL     1       6.785   5.015  19.881  0.00  0.00    +0.000 NA
ATOM     26  O   UNL     1       7.402   6.075  19.227  0.00  0.00    +0.000 OA
ATOM     27  C   UNL     1       6.954   6.146  17.937  0.00  0.00    +0.000 A 
ATOM     28  C   UNL     1       7.518   7.230  17.114  0.00  0.00    +0.000 C 
ATOM     29  C   UNL     1       6.040   5.142  17.741  0.00  0.00    +0.000 A 
ENDBRANCH  17  21
ENDBRANCH  16  17
ENDBRANCH   1  16
TORSDOF 6
ENDMDL
MODEL 8
REMARK VINA RESULT:      -7.5      2.168      6.425
REMARK  Name = 
REMARK  8 active torsions:
REMARK  status: ('A' for Active; 'I' for Inactive)
REMARK    1  A    between atoms: C_1  and  C_2
REMARK    2  A    between atoms: N_4  and  C_5
REMARK    3  A    between atoms: C_5  and  C_6
REMARK    4  A    between atoms: C_6  and  C_7
REMARK    5  A    between atoms: C_7  and  C_8
REMARK    6  A    between atoms: N_10  and  C_11
REMARK    7  A    between atoms: C_11  and  C_12
REMARK    8  A    between atoms: C_26  and  C_27
REMARK                            x       y       z     vdW  Elec       q    Type
REMARK                         _______ _______ _______ _____ _____    ______ ____
ROOT
ATOM      1  C   UNL     1       1.637   3.508  20.305  0.00  0.00    +0.000 C 
ENDROOT
BRANCH   1   2
ATOM      2  C   UNL     1       1.814   3.217  18.826  0.00  0.00    +0.000 C 
ATOM      3  O   UNL     1       0.963   2.618  18.176  0.00  0.00    +0.000 OA
ATOM      4  N   UNL     1       2.981   3.695  18.282  0.00  0.00    +0.000 N 
ATOM      5  H   UNL     1       3.613   4.235  18.864  0.00  0.00    +0.000 HD
BRANCH   4   6
ATOM      6  C   UNL     1       3.347   3.470  16.886  0.00  0.00    +0.000 C 
BRANCH   6   7
ATOM      7  C   UNL     1       4.765   3.953  16.685  0.00  0.00    +0.000 A 
ATOM      8  C   UNL     1       5.251   4.231  15.382  0.00  0.00    +0.000 A 
ATOM      9  C   UNL     1       6.354   5.068  15.197  0.00  0.00    +0.000 A 
ATOM     10  C   UNL     1       6.900   5.631  16.326  0.00  0.00    +0.000 A 
ATOM     11  C   UNL     1       6.508   5.259  17.595  0.00  0.00    +0.000 A 
ATOM     12  C   UNL     1       5.482   4.378  17.813  0.00  0.00    +0.000 A 
ATOM     13  O   UNL     1       7.078   6.045  18.555  0.00  0.00    +0.000 OA
ATOM     14  C   UNL     1       7.444   7.154  17.714  0.00  0.00    +0.000 C 
ATOM     15  O   UNL     1       7.717   6.726  16.360  0.00  0.00    +0.000 OA
ENDBRANCH   6   7
ENDBRANCH   4   6
ENDBRANCH   1   2
BRANCH   1  16
ATOM     16  C   UNL     1       1.080   4.911  20.521  0.00  0.00    +0.000 C 
BRANCH  16  17
ATOM     17  C   UNL     1       2.198   5.941  20.686  0.00  0.00    +0.000 C 
BRANCH  17  21
ATOM     18  C   UNL     1      -0.165   9.684  22.656  0.00  0.00    +0.000 C 
ATOM     19  C   UNL     1       0.571   9.105  21.483  0.00  0.00    +0.000 A 
ATOM     20  N   UNL     1       1.030   7.885  21.555  0.00  0.00    +0.000 NA
ATOM     21  N   UNL     1       1.725   7.307  20.480  0.00  0.00    +0.000 N 
ATOM     22  C   UNL     1       1.958   7.935  19.236  0.00  0.00    +0.000 A 
ATOM     23  O   UNL     1       2.541   7.387  18.296  0.00  0.00    +0.000 OA
ATOM     24  C   UNL     1       1.458   9.294  19.192  0.00  0.00    +0.000 A 
ATOM     25  N   UNL     1       1.559  10.156  18.172  0.00  0.00    +0.000 NA
ATOM     26  O   UNL     1       0.934  11.315  18.615  0.00  0.00    +0.000 OA
ATOM     27  C   UNL     1       0.466  11.132  19.886  0.00  0.00    +0.000 A 
ATOM     28  C   UNL     1      -0.222  12.284  20.496  0.00  0.00    +0.000 C 
ATOM     29  C   UNL     1       0.786   9.859  20.285  0.00  0.00    +0.000 A 
ENDBRANCH  17  21
ENDBRANCH  16  17
ENDBRANCH   1  16
TORSDOF 6
ENDMDL
MODEL 9
REMARK VINA RESULT:      -7.5      1.888      6.102
REMARK  Name = 
REMARK  8 active torsions:
REMARK  status: ('A' for Active; 'I' for Inactive)
REMARK    1  A    between atoms: C_1  and  C_2
REMARK    2  A    between atoms: N_4  and  C_5
REMARK    3  A    between atoms: C_5  and  C_6
REMARK    4  A    between atoms: C_6  and  C_7
REMARK    5  A    between atoms: C_7  and  C_8
REMARK    6  A    between atoms: N_10  and  C_11
REMARK    7  A    between atoms: C_11  and  C_12
REMARK    8  A    between atoms: C_26  and  C_27
REMARK                            x       y       z     vdW  Elec       q    Type
REMARK                         _______ _______ _______ _____ _____    ______ ____
ROOT
ATOM      1  C   UNL     1       0.888   4.087  20.266  0.00  0.00    +0.000 C 
ENDROOT
BRANCH   1   2
ATOM      2  C   UNL     1       1.450   3.281  19.109  0.00  0.00    +0.000 C 
ATOM      3  O   UNL     1       1.362   2.059  19.067  0.00  0.00    +0.000 OA
ATOM      4  N   UNL     1       2.036   4.032  18.119  0.00  0.00    +0.000 N 
ATOM      5  H   UNL     1       2.020   5.044  18.190  0.00  0.00    +0.000 HD
BRANCH   4   6
ATOM      6  C   UNL     1       2.674   3.430  16.950  0.00  0.00    +0.000 C 
BRANCH   6   7
ATOM      7  C   UNL     1       4.169   3.573  17.103  0.00  0.00    +0.000 A 
ATOM      8  C   UNL     1       4.987   3.816  15.970  0.00  0.00    +0.000 A 
ATOM      9  C   UNL     1       6.259   4.376  16.115  0.00  0.00    +0.000 A 
ATOM     10  C   UNL     1       6.644   4.714  17.391  0.00  0.00    +0.000 A 
ATOM     11  C   UNL     1       5.903   4.360  18.500  0.00  0.00    +0.000 A 
ATOM     12  C   UNL     1       4.687   3.736  18.396  0.00  0.00    +0.000 A 
ATOM     13  O   UNL     1       6.399   4.918  19.643  0.00  0.00    +0.000 OA
ATOM     14  C   UNL     1       7.178   5.963  19.033  0.00  0.00    +0.000 C 
ATOM     15  O   UNL     1       7.650   5.577  17.722  0.00  0.00    +0.000 OA
ENDBRANCH   6   7
ENDBRANCH   4   6
ENDBRANCH   1   2
BRANCH   1  16
ATOM     16  C   UNL     1       2.010   4.678  21.114  0.00  0.00    +0.000 C 
BRANCH  16  17
ATOM     17  C   UNL     1       2.908   5.602  20.292  0.00  0.00    +0.000 C 
BRANCH  17  21
ATOM     18  C   UNL     1       0.053   9.081  22.088  0.00  0.00    +0.000 C 
ATOM     19  C   UNL     1       0.888   8.565  20.952  0.00  0.00    +0.000 A 
ATOM     20  N   UNL     1       1.489   7.413  21.072  0.00  0.00    +0.000 NA
ATOM     21  N   UNL     1       2.280   6.895  20.033  0.00  0.00    +0.000 N 
ATOM     22  C   UNL     1       2.472   7.515  18.778  0.00  0.00    +0.000 A 
ATOM     23  O   UNL     1       3.145   7.017  17.870  0.00  0.00    +0.000 OA
ATOM     24  C   UNL     1       1.814   8.801  18.681  0.00  0.00    +0.000 A 
ATOM     25  N   UNL     1       1.841   9.642  17.639  0.00  0.00    +0.000 NA
ATOM     26  O   UNL     1       1.067  10.728  18.031  0.00  0.00    +0.000 OA
ATOM     27  C   UNL     1       0.587  10.522  19.294  0.00  0.00    +0.000 A 
ATOM     28  C   UNL     1      -0.252  11.598  19.851  0.00  0.00    +0.000 C 
ATOM     29  C   UNL     1       1.046   9.308  19.738  0.00  0.00    +0.000 A 
ENDBRANCH  17  21
ENDBRANCH  16  17
ENDBRANCH   1  16
TORSDOF 6
ENDMDL
