MODEL 1
REMARK VINA RESULT:      -7.7      0.000      0.000
REMARK  Name = 
REMARK  10 active torsions:
REMARK  status: ('A' for Active; 'I' for Inactive)
REMARK    1  A    between atoms: C_1  and  C_2
REMARK    2  A    between atoms: C_2  and  O_3
REMARK    3  A    between atoms: O_3  and  C_4
REMARK    4  A    between atoms: C_5  and  C_6
REMARK    5  A    between atoms: C_6  and  C_7
REMARK    6  A    between atoms: N_8  and  O_9
REMARK    7  A    between atoms: O_9  and  C_10
REMARK    8  A    between atoms: C_10  and  C_11
REMARK    9  A    between atoms: N_13  and  C_14
REMARK   10  A    between atoms: N_22  and  C_23
REMARK                            x       y       z     vdW  Elec       q    Type
REMARK                         _______ _______ _______ _____ _____    ______ ____
ROOT
ATOM      1  C   UNL     1       0.542  10.216  18.754  0.00  0.00    +0.000 C 
ATOM      2  C   UNL     1      -0.574   9.797  17.789  0.00  0.00    +0.000 C 
ATOM      3  N   UNL     1       1.694   9.596  18.750  0.00  0.00    +0.000 NA
ENDROOT
BRANCH   1   5
ATOM      4  C   UNL     1      -0.417  11.081  20.964  0.00  0.00    +0.000 C 
ATOM      5  C   UNL     1       0.180  11.279  19.764  0.00  0.00    +0.000 C 
ATOM      6  N   UNL     1       0.523  12.625  19.363  0.00  0.00    +0.000 N 
ATOM      7  C   UNL     1      -0.431  13.295  18.457  0.00  0.00    +0.000 C 
ATOM      8  S   UNL     1       1.182  13.563  20.611  0.00  0.00    +0.000 S 
ATOM      9  O   UNL     1       2.341  12.884  21.154  0.00  0.00    +0.000 OA
ATOM     10  O   UNL     1       1.239  14.940  20.169  0.00  0.00    +0.000 OA
ATOM     11  C   UNL     1      -0.095  13.430  21.810  0.00  0.00    +0.000 A 
ATOM     12  C   UNL     1      -0.390  14.515  22.643  0.00  0.00    +0.000 A 
ATOM     13  C   UNL     1      -1.427  14.393  23.563  0.00  0.00    +0.000 A 
ATOM     14  C   UNL     1      -2.183  13.223  23.598  0.00  0.00    +0.000 A 
ATOM     15  C   UNL     1      -1.904  12.171  22.718  0.00  0.00    +0.000 A 
ATOM     16  C   UNL     1      -0.819  12.233  21.831  0.00  0.00    +0.000 A 
BRANCH   4  17
ATOM     17  O   UNL     1      -0.693   9.792  21.413  0.00  0.00    +0.000 OA
BRANCH  17  19
ATOM     18  C   UNL     1       1.438   9.017  22.289  0.00  0.00    +0.000 C 
ATOM     19  C   UNL     1      -0.009   9.344  22.594  0.00  0.00    +0.000 C 
ENDBRANCH  17  19
ENDBRANCH   4  17
ENDBRANCH   1   5
BRANCH   3  20
ATOM     20  O   UNL     1       1.698   8.593  17.772  0.00  0.00    +0.000 OA
BRANCH  20  21
ATOM     21  C   UNL     1       3.018   8.118  17.530  0.00  0.00    +0.000 C 
BRANCH  21  22
ATOM     22  C   UNL     1       3.173   6.745  18.191  0.00  0.00    +0.000 C 
ATOM     23  O   UNL     1       4.273   6.215  18.320  0.00  0.00    +0.000 OA
ATOM     24  N   UNL     1       1.964   6.177  18.572  0.00  0.00    +0.000 N 
ATOM     25  H   UNL     1       1.166   6.504  18.033  0.00  0.00    +0.000 HD
BRANCH  24  26
ATOM     26  C   UNL     1       1.862   4.879  19.117  0.00  0.00    +0.000 A 
ATOM     27  C   UNL     1       1.852   3.715  18.345  0.00  0.00    +0.000 A 
ATOM     28  F   UNL     1       2.062   3.765  17.022  0.00  0.00    +0.000 F 
ATOM     29  C   UNL     1       1.714   2.461  18.945  0.00  0.00    +0.000 A 
ATOM     30  C   UNL     1       1.569   2.359  20.329  0.00  0.00    +0.000 A 
ATOM     31  C   UNL     1       1.606   3.512  21.113  0.00  0.00    +0.000 A 
ATOM     32  C   UNL     1       1.779   4.754  20.505  0.00  0.00    +0.000 A 
ATOM     33  F   UNL     1       1.811   5.855  21.274  0.00  0.00    +0.000 F 
ENDBRANCH  24  26
ENDBRANCH  21  22
ENDBRANCH  20  21
ENDBRANCH   3  20
TORSDOF 7
ENDMDL
MODEL 2
REMARK VINA RESULT:      -7.6      1.362      1.687
REMARK  Name = 
REMARK  10 active torsions:
REMARK  status: ('A' for Active; 'I' for Inactive)
REMARK    1  A    between atoms: C_1  and  C_2
REMARK    2  A    between atoms: C_2  and  O_3
REMARK    3  A    between atoms: O_3  and  C_4
REMARK    4  A    between atoms: C_5  and  C_6
REMARK    5  A    between atoms: C_6  and  C_7
REMARK    6  A    between atoms: N_8  and  O_9
REMARK    7  A    between atoms: O_9  and  C_10
REMARK    8  A    between atoms: C_10  and  C_11
REMARK    9  A    between atoms: N_13  and  C_14
REMARK   10  A    between atoms: N_22  and  C_23
REMARK                            x       y       z     vdW  Elec       q    Type
REMARK                         _______ _______ _______ _____ _____    ______ ____
ROOT
ATOM      1  C   UNL     1       0.386  10.767  19.029  0.00  0.00    +0.000 C 
ATOM      2  C   UNL     1      -0.850  10.233  18.296  0.00  0.00    +0.000 C 
ATOM      3  N   UNL     1       1.556  10.207  18.859  0.00  0.00    +0.000 NA
ENDROOT
BRANCH   1   5
ATOM      4  C   UNL     1      -0.454  11.743  21.242  0.00  0.00    +0.000 C 
ATOM      5  C   UNL     1       0.137  11.871  20.030  0.00  0.00    +0.000 C 
ATOM      6  N   UNL     1       0.590  13.176  19.603  0.00  0.00    +0.000 N 
ATOM      7  C   UNL     1      -0.318  13.916  18.704  0.00  0.00    +0.000 C 
ATOM      8  S   UNL     1       1.352  14.069  20.826  0.00  0.00    +0.000 S 
ATOM      9  O   UNL     1       2.456  13.298  21.360  0.00  0.00    +0.000 OA
ATOM     10  O   UNL     1       1.522  15.430  20.363  0.00  0.00    +0.000 OA
ATOM     11  C   UNL     1       0.089  14.065  22.048  0.00  0.00    +0.000 A 
ATOM     12  C   UNL     1      -0.094  15.182  22.870  0.00  0.00    +0.000 A 
ATOM     13  C   UNL     1      -1.121  15.165  23.808  0.00  0.00    +0.000 A 
ATOM     14  C   UNL     1      -1.976  14.067  23.874  0.00  0.00    +0.000 A 
ATOM     15  C   UNL     1      -1.807  12.982  23.004  0.00  0.00    +0.000 A 
ATOM     16  C   UNL     1      -0.737  12.937  22.099  0.00  0.00    +0.000 A 
BRANCH   4  17
ATOM     17  O   UNL     1      -0.834  10.490  21.715  0.00  0.00    +0.000 OA
BRANCH  17  19
ATOM     18  C   UNL     1       1.089   9.129  22.316  0.00  0.00    +0.000 C 
ATOM     19  C   UNL     1      -0.087   9.944  22.813  0.00  0.00    +0.000 C 
ENDBRANCH  17  19
ENDBRANCH   4  17
ENDBRANCH   1   5
BRANCH   3  20
ATOM     20  O   UNL     1       1.454   9.147  17.949  0.00  0.00    +0.000 OA
BRANCH  20  21
ATOM     21  C   UNL     1       2.696   8.465  17.817  0.00  0.00    +0.000 C 
BRANCH  21  22
ATOM     22  C   UNL     1       2.585   7.107  18.518  0.00  0.00    +0.000 C 
ATOM     23  O   UNL     1       2.159   7.008  19.665  0.00  0.00    +0.000 OA
ATOM     24  N   UNL     1       3.047   6.049  17.744  0.00  0.00    +0.000 N 
ATOM     25  H   UNL     1       3.738   6.317  17.047  0.00  0.00    +0.000 HD
BRANCH  24  26
ATOM     26  C   UNL     1       3.123   4.723  18.222  0.00  0.00    +0.000 A 
ATOM     27  C   UNL     1       4.201   4.226  18.958  0.00  0.00    +0.000 A 
ATOM     28  F   UNL     1       5.191   5.036  19.359  0.00  0.00    +0.000 F 
ATOM     29  C   UNL     1       4.230   2.893  19.373  0.00  0.00    +0.000 A 
ATOM     30  C   UNL     1       3.181   2.034  19.041  0.00  0.00    +0.000 A 
ATOM     31  C   UNL     1       2.086   2.524  18.331  0.00  0.00    +0.000 A 
ATOM     32  C   UNL     1       2.054   3.865  17.954  0.00  0.00    +0.000 A 
ATOM     33  F   UNL     1       0.993   4.323  17.269  0.00  0.00    +0.000 F 
ENDBRANCH  24  26
ENDBRANCH  21  22
ENDBRANCH  20  21
ENDBRANCH   3  20
TORSDOF 7
ENDMDL
MODEL 3
REMARK VINA RESULT:      -7.6      0.331      1.505
REMARK  Name = 
REMARK  10 active torsions:
REMARK  status: ('A' for Active; 'I' for Inactive)
REMARK    1  A    between atoms: C_1  and  C_2
REMARK    2  A    between atoms: C_2  and  O_3
REMARK    3  A    between atoms: O_3  and  C_4
REMARK    4  A    between atoms: C_5  and  C_6
REMARK    5  A    between atoms: C_6  and  C_7
REMARK    6  A    between atoms: N_8  and  O_9
REMARK    7  A    between atoms: O_9  and  C_10
REMARK    8  A    between atoms: C_10  and  C_11
REMARK    9  A    between atoms: N_13  and  C_14
REMARK   10  A    between atoms: N_22  and  C_23
REMARK                            x       y       z     vdW  Elec       q    Type
REMARK                         _______ _______ _______ _____ _____    ______ ____
ROOT
ATOM      1  C   UNL     1       0.703  10.238  18.663  0.00  0.00    +0.000 C 
ATOM      2  C   UNL     1      -0.436   9.714  17.780  0.00  0.00    +0.000 C 
ATOM      3  N   UNL     1       1.894   9.702  18.603  0.00  0.00    +0.000 NA
ENDROOT
BRANCH   1   5
ATOM      4  C   UNL     1      -0.287  11.104  20.860  0.00  0.00    +0.000 C 
ATOM      5  C   UNL     1       0.326  11.301  19.667  0.00  0.00    +0.000 C 
ATOM      6  N   UNL     1       0.672  12.647  19.270  0.00  0.00    +0.000 N 
ATOM      7  C   UNL     1      -0.271  13.316  18.352  0.00  0.00    +0.000 C 
ATOM      8  S   UNL     1       1.314  13.588  20.527  0.00  0.00    +0.000 S 
ATOM      9  O   UNL     1       2.466  12.910  21.086  0.00  0.00    +0.000 OA
ATOM     10  O   UNL     1       1.375  14.964  20.084  0.00  0.00    +0.000 OA
ATOM     11  C   UNL     1       0.021  13.453  21.709  0.00  0.00    +0.000 A 
ATOM     12  C   UNL     1      -0.287  14.538  22.537  0.00  0.00    +0.000 A 
ATOM     13  C   UNL     1      -1.335  14.415  23.443  0.00  0.00    +0.000 A 
ATOM     14  C   UNL     1      -2.090  13.245  23.469  0.00  0.00    +0.000 A 
ATOM     15  C   UNL     1      -1.798  12.192  22.593  0.00  0.00    +0.000 A 
ATOM     16  C   UNL     1      -0.702  12.255  21.720  0.00  0.00    +0.000 A 
BRANCH   4  17
ATOM     17  O   UNL     1      -0.568   9.815  21.305  0.00  0.00    +0.000 OA
BRANCH  17  19
ATOM     18  C   UNL     1       0.173   9.341  23.572  0.00  0.00    +0.000 C 
ATOM     19  C   UNL     1       0.437   9.155  22.092  0.00  0.00    +0.000 C 
ENDBRANCH  17  19
ENDBRANCH   4  17
ENDBRANCH   1   5
BRANCH   3  20
ATOM     20  O   UNL     1       1.911   8.674  17.651  0.00  0.00    +0.000 OA
BRANCH  20  21
ATOM     21  C   UNL     1       3.220   8.134  17.505  0.00  0.00    +0.000 C 
BRANCH  21  22
ATOM     22  C   UNL     1       3.263   6.763  18.188  0.00  0.00    +0.000 C 
ATOM     23  O   UNL     1       4.299   6.107  18.247  0.00  0.00    +0.000 OA
ATOM     24  N   UNL     1       2.029   6.351  18.674  0.00  0.00    +0.000 N 
ATOM     25  H   UNL     1       1.235   6.762  18.188  0.00  0.00    +0.000 HD
BRANCH  24  26
ATOM     26  C   UNL     1       1.817   5.084  19.259  0.00  0.00    +0.000 A 
ATOM     27  C   UNL     1       1.881   4.848  20.634  0.00  0.00    +0.000 A 
ATOM     28  F   UNL     1       2.036   5.860  21.500  0.00  0.00    +0.000 F 
ATOM     29  C   UNL     1       1.694   3.563  21.149  0.00  0.00    +0.000 A 
ATOM     30  C   UNL     1       1.454   2.492  20.286  0.00  0.00    +0.000 A 
ATOM     31  C   UNL     1       1.359   2.720  18.914  0.00  0.00    +0.000 A 
ATOM     32  C   UNL     1       1.513   4.013  18.417  0.00  0.00    +0.000 A 
ATOM     33  F   UNL     1       1.421   4.216  17.093  0.00  0.00    +0.000 F 
ENDBRANCH  24  26
ENDBRANCH  21  22
ENDBRANCH  20  21
ENDBRANCH   3  20
TORSDOF 7
ENDMDL
MODEL 4
REMARK VINA RESULT:      -7.4      1.132      1.167
REMARK  Name = 
REMARK  10 active torsions:
REMARK  status: ('A' for Active; 'I' for Inactive)
REMARK    1  A    between atoms: C_1  and  C_2
REMARK    2  A    between atoms: C_2  and  O_3
REMARK    3  A    between atoms: O_3  and  C_4
REMARK    4  A    between atoms: C_5  and  C_6
REMARK    5  A    between atoms: C_6  and  C_7
REMARK    6  A    between atoms: N_8  and  O_9
REMARK    7  A    between atoms: O_9  and  C_10
REMARK    8  A    between atoms: C_10  and  C_11
REMARK    9  A    between atoms: N_13  and  C_14
REMARK   10  A    between atoms: N_22  and  C_23
REMARK                            x       y       z     vdW  Elec       q    Type
REMARK                         _______ _______ _______ _____ _____    ______ ____
ROOT
ATOM      1  C   UNL     1       0.590  10.307  18.690  0.00  0.00    +0.000 C 
ATOM      2  C   UNL     1      -0.581   9.762  17.863  0.00  0.00    +0.000 C 
ATOM      3  N   UNL     1       1.780   9.775  18.593  0.00  0.00    +0.000 NA
ENDROOT
BRANCH   1   5
ATOM      4  C   UNL     1      -0.368  11.216  20.884  0.00  0.00    +0.000 C 
ATOM      5  C   UNL     1       0.248  11.388  19.689  0.00  0.00    +0.000 C 
ATOM      6  N   UNL     1       0.632  12.720  19.282  0.00  0.00    +0.000 N 
ATOM      7  C   UNL     1      -0.293  13.411  18.362  0.00  0.00    +0.000 C 
ATOM      8  S   UNL     1       1.305  13.649  20.531  0.00  0.00    +0.000 S 
ATOM      9  O   UNL     1       2.438  12.941  21.091  0.00  0.00    +0.000 OA
ATOM     10  O   UNL     1       1.406  15.020  20.079  0.00  0.00    +0.000 OA
ATOM     11  C   UNL     1       0.013  13.561  21.717  0.00  0.00    +0.000 A 
ATOM     12  C   UNL     1      -0.260  14.660  22.539  0.00  0.00    +0.000 A 
ATOM     13  C   UNL     1      -1.309  14.574  23.448  0.00  0.00    +0.000 A 
ATOM     14  C   UNL     1      -2.099  13.427  23.484  0.00  0.00    +0.000 A 
ATOM     15  C   UNL     1      -1.841  12.360  22.614  0.00  0.00    +0.000 A 
ATOM     16  C   UNL     1      -0.746  12.385  21.738  0.00  0.00    +0.000 A 
BRANCH   4  17
ATOM     17  O   UNL     1      -0.685   9.939  21.339  0.00  0.00    +0.000 OA
BRANCH  17  19
ATOM     18  C   UNL     1       0.099   9.379  23.572  0.00  0.00    +0.000 C 
ATOM     19  C   UNL     1       0.323   9.233  22.080  0.00  0.00    +0.000 C 
ENDBRANCH  17  19
ENDBRANCH   4  17
ENDBRANCH   1   5
BRANCH   3  20
ATOM     20  O   UNL     1       1.765   8.729  17.660  0.00  0.00    +0.000 OA
BRANCH  20  21
ATOM     21  C   UNL     1       2.985   7.997  17.694  0.00  0.00    +0.000 C 
BRANCH  21  22
ATOM     22  C   UNL     1       2.684   6.566  18.152  0.00  0.00    +0.000 C 
ATOM     23  O   UNL     1       1.826   5.882  17.601  0.00  0.00    +0.000 OA
ATOM     24  N   UNL     1       3.439   6.169  19.248  0.00  0.00    +0.000 N 
ATOM     25  H   UNL     1       3.756   6.938  19.832  0.00  0.00    +0.000 HD
BRANCH  24  26
ATOM     26  C   UNL     1       3.264   4.925  19.892  0.00  0.00    +0.000 A 
ATOM     27  C   UNL     1       4.009   3.784  19.586  0.00  0.00    +0.000 A 
ATOM     28  F   UNL     1       5.034   3.843  18.724  0.00  0.00    +0.000 F 
ATOM     29  C   UNL     1       3.764   2.574  20.237  0.00  0.00    +0.000 A 
ATOM     30  C   UNL     1       2.755   2.487  21.198  0.00  0.00    +0.000 A 
ATOM     31  C   UNL     1       2.023   3.627  21.534  0.00  0.00    +0.000 A 
ATOM     32  C   UNL     1       2.302   4.836  20.900  0.00  0.00    +0.000 A 
ATOM     33  F   UNL     1       1.588   5.923  21.233  0.00  0.00    +0.000 F 
ENDBRANCH  24  26
ENDBRANCH  21  22
ENDBRANCH  20  21
ENDBRANCH   3  20
TORSDOF 7
ENDMDL
MODEL 5
REMARK VINA RESULT:      -7.1      1.001      1.011
REMARK  Name = 
REMARK  10 active torsions:
REMARK  status: ('A' for Active; 'I' for Inactive)
REMARK    1  A    between atoms: C_1  and  C_2
REMARK    2  A    between atoms: C_2  and  O_3
REMARK    3  A    between atoms: O_3  and  C_4
REMARK    4  A    between atoms: C_5  and  C_6
REMARK    5  A    between atoms: C_6  and  C_7
REMARK    6  A    between atoms: N_8  and  O_9
REMARK    7  A    between atoms: O_9  and  C_10
REMARK    8  A    between atoms: C_10  and  C_11
REMARK    9  A    between atoms: N_13  and  C_14
REMARK   10  A    between atoms: N_22  and  C_23
REMARK                            x       y       z     vdW  Elec       q    Type
REMARK                         _______ _______ _______ _____ _____    ______ ____
ROOT
ATOM      1  C   UNL     1       0.546  10.285  18.902  0.00  0.00    +0.000 C 
ATOM      2  C   UNL     1      -0.504   9.889  17.856  0.00  0.00    +0.000 C 
ATOM      3  N   UNL     1       1.692   9.660  18.966  0.00  0.00    +0.000 NA
ENDROOT
BRANCH   1   5
ATOM      4  C   UNL     1      -0.528  11.113  21.073  0.00  0.00    +0.000 C 
ATOM      5  C   UNL     1       0.120  11.332  19.903  0.00  0.00    +0.000 C 
ATOM      6  N   UNL     1       0.457  12.687  19.530  0.00  0.00    +0.000 N 
ATOM      7  C   UNL     1      -0.466  13.350  18.589  0.00  0.00    +0.000 C 
ATOM      8  S   UNL     1       1.042  13.625  20.816  0.00  0.00    +0.000 S 
ATOM      9  O   UNL     1       2.187  12.960  21.406  0.00  0.00    +0.000 OA
ATOM     10  O   UNL     1       1.096  15.007  20.389  0.00  0.00    +0.000 OA
ATOM     11  C   UNL     1      -0.285  13.459  21.954  0.00  0.00    +0.000 A 
ATOM     12  C   UNL     1      -0.637  14.530  22.783  0.00  0.00    +0.000 A 
ATOM     13  C   UNL     1      -1.712  14.382  23.652  0.00  0.00    +0.000 A 
ATOM     14  C   UNL     1      -2.449  13.199  23.643  0.00  0.00    +0.000 A 
ATOM     15  C   UNL     1      -2.112  12.160  22.767  0.00  0.00    +0.000 A 
ATOM     16  C   UNL     1      -0.989  12.249  21.931  0.00  0.00    +0.000 A 
BRANCH   4  17
ATOM     17  O   UNL     1      -0.803   9.815  21.497  0.00  0.00    +0.000 OA
BRANCH  17  19
ATOM     18  C   UNL     1       1.344   9.179  22.447  0.00  0.00    +0.000 C 
ATOM     19  C   UNL     1      -0.142   9.357  22.687  0.00  0.00    +0.000 C 
ENDBRANCH  17  19
ENDBRANCH   4  17
ENDBRANCH   1   5
BRANCH   3  20
ATOM     20  O   UNL     1       1.759   8.674  17.972  0.00  0.00    +0.000 OA
BRANCH  20  21
ATOM     21  C   UNL     1       3.101   8.471  17.542  0.00  0.00    +0.000 C 
BRANCH  21  22
ATOM     22  C   UNL     1       3.409   6.972  17.592  0.00  0.00    +0.000 C 
ATOM     23  O   UNL     1       4.269   6.468  16.874  0.00  0.00    +0.000 OA
ATOM     24  N   UNL     1       2.603   6.273  18.481  0.00  0.00    +0.000 N 
ATOM     25  H   UNL     1       1.702   6.713  18.655  0.00  0.00    +0.000 HD
BRANCH  24  26
ATOM     26  C   UNL     1       2.651   4.869  18.624  0.00  0.00    +0.000 A 
ATOM     27  C   UNL     1       1.748   3.998  18.011  0.00  0.00    +0.000 A 
ATOM     28  F   UNL     1       0.836   4.453  17.139  0.00  0.00    +0.000 F 
ATOM     29  C   UNL     1       1.830   2.620  18.220  0.00  0.00    +0.000 A 
ATOM     30  C   UNL     1       2.814   2.096  19.060  0.00  0.00    +0.000 A 
ATOM     31  C   UNL     1       3.739   2.953  19.655  0.00  0.00    +0.000 A 
ATOM     32  C   UNL     1       3.667   4.323  19.411  0.00  0.00    +0.000 A 
ATOM     33  F   UNL     1       4.565   5.135  19.992  0.00  0.00    +0.000 F 
ENDBRANCH  24  26
ENDBRANCH  21  22
ENDBRANCH  20  21
ENDBRANCH   3  20
TORSDOF 7
ENDMDL
MODEL 6
REMARK VINA RESULT:      -7.1      1.131      1.536
REMARK  Name = 
REMARK  10 active torsions:
REMARK  status: ('A' for Active; 'I' for Inactive)
REMARK    1  A    between atoms: C_1  and  C_2
REMARK    2  A    between atoms: C_2  and  O_3
REMARK    3  A    between atoms: O_3  and  C_4
REMARK    4  A    between atoms: C_5  and  C_6
REMARK    5  A    between atoms: C_6  and  C_7
REMARK    6  A    between atoms: N_8  and  O_9
REMARK    7  A    between atoms: O_9  and  C_10
REMARK    8  A    between atoms: C_10  and  C_11
REMARK    9  A    between atoms: N_13  and  C_14
REMARK   10  A    between atoms: N_22  and  C_23
REMARK                            x       y       z     vdW  Elec       q    Type
REMARK                         _______ _______ _______ _____ _____    ______ ____
ROOT
ATOM      1  C   UNL     1       0.283  10.542  18.923  0.00  0.00    +0.000 C 
ATOM      2  C   UNL     1      -0.968  10.099  18.156  0.00  0.00    +0.000 C 
ATOM      3  N   UNL     1       1.409   9.888  18.798  0.00  0.00    +0.000 NA
ENDROOT
BRANCH   1   5
ATOM      4  C   UNL     1      -0.474  11.594  21.131  0.00  0.00    +0.000 C 
ATOM      5  C   UNL     1       0.092  11.676  19.903  0.00  0.00    +0.000 C 
ATOM      6  N   UNL     1       0.575  12.956  19.436  0.00  0.00    +0.000 N 
ATOM      7  C   UNL     1      -0.329  13.704  18.541  0.00  0.00    +0.000 C 
ATOM      8  S   UNL     1       1.393  13.852  20.621  0.00  0.00    +0.000 S 
ATOM      9  O   UNL     1       2.484  13.058  21.147  0.00  0.00    +0.000 OA
ATOM     10  O   UNL     1       1.594  15.195  20.122  0.00  0.00    +0.000 OA
ATOM     11  C   UNL     1       0.160  13.916  21.870  0.00  0.00    +0.000 A 
ATOM     12  C   UNL     1       0.030  15.056  22.670  0.00  0.00    +0.000 A 
ATOM     13  C   UNL     1      -0.974  15.092  23.631  0.00  0.00    +0.000 A 
ATOM     14  C   UNL     1      -1.862  14.024  23.742  0.00  0.00    +0.000 A 
ATOM     15  C   UNL     1      -1.747  12.915  22.894  0.00  0.00    +0.000 A 
ATOM     16  C   UNL     1      -0.700  12.815  21.966  0.00  0.00    +0.000 A 
BRANCH   4  17
ATOM     17  O   UNL     1      -0.882  10.364  21.641  0.00  0.00    +0.000 OA
BRANCH  17  19
ATOM     18  C   UNL     1       1.118   9.277  22.495  0.00  0.00    +0.000 C 
ATOM     19  C   UNL     1      -0.226   9.892  22.829  0.00  0.00    +0.000 C 
ENDBRANCH  17  19
ENDBRANCH   4  17
ENDBRANCH   1   5
BRANCH   3  20
ATOM     20  O   UNL     1       1.252   8.827  17.896  0.00  0.00    +0.000 OA
BRANCH  20  21
ATOM     21  C   UNL     1       2.432   8.035  17.826  0.00  0.00    +0.000 C 
BRANCH  21  22
ATOM     22  C   UNL     1       2.410   7.022  18.975  0.00  0.00    +0.000 C 
ATOM     23  O   UNL     1       2.427   7.380  20.149  0.00  0.00    +0.000 OA
ATOM     24  N   UNL     1       2.413   5.701  18.544  0.00  0.00    +0.000 N 
ATOM     25  H   UNL     1       2.827   5.567  17.624  0.00  0.00    +0.000 HD
BRANCH  24  26
ATOM     26  C   UNL     1       2.485   4.603  19.428  0.00  0.00    +0.000 A 
ATOM     27  C   UNL     1       1.479   4.280  20.341  0.00  0.00    +0.000 A 
ATOM     28  F   UNL     1       0.313   4.941  20.345  0.00  0.00    +0.000 F 
ATOM     29  C   UNL     1       1.626   3.199  21.213  0.00  0.00    +0.000 A 
ATOM     30  C   UNL     1       2.794   2.435  21.191  0.00  0.00    +0.000 A 
ATOM     31  C   UNL     1       3.793   2.731  20.264  0.00  0.00    +0.000 A 
ATOM     32  C   UNL     1       3.619   3.791  19.377  0.00  0.00    +0.000 A 
ATOM     33  F   UNL     1       4.591   4.064  18.491  0.00  0.00    +0.000 F 
ENDBRANCH  24  26
ENDBRANCH  21  22
ENDBRANCH  20  21
ENDBRANCH   3  20
TORSDOF 7
ENDMDL
MODEL 7
REMARK VINA RESULT:      -7.0      2.417      3.547
REMARK  Name = 
REMARK  10 active torsions:
REMARK  status: ('A' for Active; 'I' for Inactive)
REMARK    1  A    between atoms: C_1  and  C_2
REMARK    2  A    between atoms: C_2  and  O_3
REMARK    3  A    between atoms: O_3  and  C_4
REMARK    4  A    between atoms: C_5  and  C_6
REMARK    5  A    between atoms: C_6  and  C_7
REMARK    6  A    between atoms: N_8  and  O_9
REMARK    7  A    between atoms: O_9  and  C_10
REMARK    8  A    between atoms: C_10  and  C_11
REMARK    9  A    between atoms: N_13  and  C_14
REMARK   10  A    between atoms: N_22  and  C_23
REMARK                            x       y       z     vdW  Elec       q    Type
REMARK                         _______ _______ _______ _____ _____    ______ ____
ROOT
ATOM      1  C   UNL     1       0.579  11.106  19.738  0.00  0.00    +0.000 C 
ATOM      2  C   UNL     1      -0.279  10.465  18.640  0.00  0.00    +0.000 C 
ATOM      3  N   UNL     1       0.922  10.424  20.800  0.00  0.00    +0.000 NA
ENDROOT
BRANCH   1   5
ATOM      4  C   UNL     1      -0.017  13.590  19.570  0.00  0.00    +0.000 C 
ATOM      5  C   UNL     1       0.882  12.576  19.568  0.00  0.00    +0.000 C 
ATOM      6  N   UNL     1       2.283  12.880  19.385  0.00  0.00    +0.000 N 
ATOM      7  C   UNL     1       2.810  12.711  18.016  0.00  0.00    +0.000 C 
ATOM      8  S   UNL     1       2.805  14.246  20.243  0.00  0.00    +0.000 S 
ATOM      9  O   UNL     1       2.503  14.067  21.648  0.00  0.00    +0.000 OA
ATOM     10  O   UNL     1       4.131  14.598  19.783  0.00  0.00    +0.000 OA
ATOM     11  C   UNL     1       1.681  15.448  19.629  0.00  0.00    +0.000 A 
ATOM     12  C   UNL     1       2.100  16.770  19.442  0.00  0.00    +0.000 A 
ATOM     13  C   UNL     1       1.199  17.694  18.925  0.00  0.00    +0.000 A 
ATOM     14  C   UNL     1      -0.078  17.279  18.554  0.00  0.00    +0.000 A 
ATOM     15  C   UNL     1      -0.459  15.940  18.700  0.00  0.00    +0.000 A 
ATOM     16  C   UNL     1       0.400  14.999  19.286  0.00  0.00    +0.000 A 
BRANCH   4  17
ATOM     17  O   UNL     1      -1.364  13.341  19.818  0.00  0.00    +0.000 OA
BRANCH  17  19
ATOM     18  C   UNL     1      -3.350  13.635  21.191  0.00  0.00    +0.000 C 
ATOM     19  C   UNL     1      -1.837  13.543  21.159  0.00  0.00    +0.000 C 
ENDBRANCH  17  19
ENDBRANCH   4  17
ENDBRANCH   1   5
BRANCH   3  20
ATOM     20  O   UNL     1       0.413   9.121  20.720  0.00  0.00    +0.000 OA
BRANCH  20  21
ATOM     21  C   UNL     1       1.292   8.190  21.341  0.00  0.00    +0.000 C 
BRANCH  21  22
ATOM     22  C   UNL     1       1.860   7.261  20.263  0.00  0.00    +0.000 C 
ATOM     23  O   UNL     1       2.024   7.642  19.107  0.00  0.00    +0.000 OA
ATOM     24  N   UNL     1       2.117   5.976  20.723  0.00  0.00    +0.000 N 
ATOM     25  H   UNL     1       1.550   5.702  21.522  0.00  0.00    +0.000 HD
BRANCH  24  26
ATOM     26  C   UNL     1       2.559   4.931  19.882  0.00  0.00    +0.000 A 
ATOM     27  C   UNL     1       3.856   4.847  19.372  0.00  0.00    +0.000 A 
ATOM     28  F   UNL     1       4.806   5.711  19.758  0.00  0.00    +0.000 F 
ATOM     29  C   UNL     1       4.222   3.805  18.517  0.00  0.00    +0.000 A 
ATOM     30  C   UNL     1       3.283   2.839  18.150  0.00  0.00    +0.000 A 
ATOM     31  C   UNL     1       1.993   2.896  18.675  0.00  0.00    +0.000 A 
ATOM     32  C   UNL     1       1.652   3.922  19.555  0.00  0.00    +0.000 A 
ATOM     33  F   UNL     1       0.405   3.965  20.051  0.00  0.00    +0.000 F 
ENDBRANCH  24  26
ENDBRANCH  21  22
ENDBRANCH  20  21
ENDBRANCH   3  20
TORSDOF 7
ENDMDL
MODEL 8
REMARK VINA RESULT:      -7.0      5.756      9.607
REMARK  Name = 
REMARK  10 active torsions:
REMARK  status: ('A' for Active; 'I' for Inactive)
REMARK    1  A    between atoms: C_1  and  C_2
REMARK    2  A    between atoms: C_2  and  O_3
REMARK    3  A    between atoms: O_3  and  C_4
REMARK    4  A    between atoms: C_5  and  C_6
REMARK    5  A    between atoms: C_6  and  C_7
REMARK    6  A    between atoms: N_8  and  O_9
REMARK    7  A    between atoms: O_9  and  C_10
REMARK    8  A    between atoms: C_10  and  C_11
REMARK    9  A    between atoms: N_13  and  C_14
REMARK   10  A    between atoms: N_22  and  C_23
REMARK                            x       y       z     vdW  Elec       q    Type
REMARK                         _______ _______ _______ _____ _____    ______ ____
ROOT
ATOM      1  C   UNL     1       5.291   6.573  17.405  0.00  0.00    +0.000 C 
ATOM      2  C   UNL     1       5.187   6.708  15.881  0.00  0.00    +0.000 C 
ATOM      3  N   UNL     1       6.204   7.229  18.072  0.00  0.00    +0.000 NA
ENDROOT
BRANCH   1   5
ATOM      4  C   UNL     1       3.260   5.824  18.773  0.00  0.00    +0.000 C 
ATOM      5  C   UNL     1       4.371   5.559  18.044  0.00  0.00    +0.000 C 
ATOM      6  N   UNL     1       4.759   4.183  17.830  0.00  0.00    +0.000 N 
ATOM      7  C   UNL     1       5.806   3.657  18.728  0.00  0.00    +0.000 C 
ATOM      8  S   UNL     1       3.459   3.151  17.484  0.00  0.00    +0.000 S 
ATOM      9  O   UNL     1       2.742   3.662  16.333  0.00  0.00    +0.000 OA
ATOM     10  O   UNL     1       3.929   1.784  17.549  0.00  0.00    +0.000 OA
ATOM     11  C   UNL     1       2.445   3.445  18.888  0.00  0.00    +0.000 A 
ATOM     12  C   UNL     1       1.692   2.403  19.439  0.00  0.00    +0.000 A 
ATOM     13  C   UNL     1       0.921   2.655  20.569  0.00  0.00    +0.000 A 
ATOM     14  C   UNL     1       0.957   3.916  21.160  0.00  0.00    +0.000 A 
ATOM     15  C   UNL     1       1.760   4.929  20.623  0.00  0.00    +0.000 A 
ATOM     16  C   UNL     1       2.490   4.730  19.442  0.00  0.00    +0.000 A 
BRANCH   4  17
ATOM     17  O   UNL     1       2.816   7.134  18.935  0.00  0.00    +0.000 OA
BRANCH  17  19
ATOM     18  C   UNL     1       2.170   9.204  17.836  0.00  0.00    +0.000 C 
ATOM     19  C   UNL     1       2.020   7.697  17.881  0.00  0.00    +0.000 C 
ENDBRANCH  17  19
ENDBRANCH   4  17
ENDBRANCH   1   5
BRANCH   3  20
ATOM     20  O   UNL     1       6.970   8.011  17.197  0.00  0.00    +0.000 OA
BRANCH  20  21
ATOM     21  C   UNL     1       8.300   8.165  17.680  0.00  0.00    +0.000 C 
BRANCH  21  22
ATOM     22  C   UNL     1       8.481   9.606  18.166  0.00  0.00    +0.000 C 
ATOM     23  O   UNL     1       7.884  10.541  17.640  0.00  0.00    +0.000 OA
ATOM     24  N   UNL     1       9.399   9.727  19.201  0.00  0.00    +0.000 N 
ATOM     25  H   UNL     1      10.097   8.987  19.223  0.00  0.00    +0.000 HD
BRANCH  24  26
ATOM     26  C   UNL     1       9.789  10.971  19.743  0.00  0.00    +0.000 A 
ATOM     27  C   UNL     1       9.325  11.460  20.966  0.00  0.00    +0.000 A 
ATOM     28  F   UNL     1       8.558  10.704  21.764  0.00  0.00    +0.000 F 
ATOM     29  C   UNL     1       9.724  12.715  21.431  0.00  0.00    +0.000 A 
ATOM     30  C   UNL     1      10.583  13.505  20.666  0.00  0.00    +0.000 A 
ATOM     31  C   UNL     1      11.076  13.016  19.456  0.00  0.00    +0.000 A 
ATOM     32  C   UNL     1      10.697  11.747  19.021  0.00  0.00    +0.000 A 
ATOM     33  F   UNL     1      11.179  11.291  17.853  0.00  0.00    +0.000 F 
ENDBRANCH  24  26
ENDBRANCH  21  22
ENDBRANCH  20  21
ENDBRANCH   3  20
TORSDOF 7
ENDMDL
MODEL 9
REMARK VINA RESULT:      -7.0      2.746      3.923
REMARK  Name = 
REMARK  10 active torsions:
REMARK  status: ('A' for Active; 'I' for Inactive)
REMARK    1  A    between atoms: C_1  and  C_2
REMARK    2  A    between atoms: C_2  and  O_3
REMARK    3  A    between atoms: O_3  and  C_4
REMARK    4  A    between atoms: C_5  and  C_6
REMARK    5  A    between atoms: C_6  and  C_7
REMARK    6  A    between atoms: N_8  and  O_9
REMARK    7  A    between atoms: O_9  and  C_10
REMARK    8  A    between atoms: C_10  and  C_11
REMARK    9  A    between atoms: N_13  and  C_14
REMARK   10  A    between atoms: N_22  and  C_23
REMARK                            x       y       z     vdW  Elec       q    Type
REMARK                         _______ _______ _______ _____ _____    ______ ____
ROOT
ATOM      1  C   UNL     1       1.008   9.800  19.551  0.00  0.00    +0.000 C 
ATOM      2  C   UNL     1       1.639  10.164  18.202  0.00  0.00    +0.000 C 
ATOM      3  N   UNL     1       1.329   8.687  20.158  0.00  0.00    +0.000 NA
ENDROOT
BRANCH   1   5
ATOM      4  C   UNL     1      -1.359  10.771  19.627  0.00  0.00    +0.000 C 
ATOM      5  C   UNL     1      -0.073  10.729  20.050  0.00  0.00    +0.000 C 
ATOM      6  N   UNL     1       0.359  11.649  21.078  0.00  0.00    +0.000 N 
ATOM      7  C   UNL     1       1.056  12.864  20.611  0.00  0.00    +0.000 C 
ATOM      8  S   UNL     1      -0.762  11.845  22.335  0.00  0.00    +0.000 S 
ATOM      9  O   UNL     1      -1.065  10.549  22.906  0.00  0.00    +0.000 OA
ATOM     10  O   UNL     1      -0.344  12.964  23.152  0.00  0.00    +0.000 OA
ATOM     11  C   UNL     1      -2.176  12.340  21.418  0.00  0.00    +0.000 A 
ATOM     12  C   UNL     1      -3.071  13.270  21.957  0.00  0.00    +0.000 A 
ATOM     13  C   UNL     1      -4.166  13.668  21.197  0.00  0.00    +0.000 A 
ATOM     14  C   UNL     1      -4.320  13.181  19.901  0.00  0.00    +0.000 A 
ATOM     15  C   UNL     1      -3.382  12.292  19.361  0.00  0.00    +0.000 A 
ATOM     16  C   UNL     1      -2.309  11.813  20.127  0.00  0.00    +0.000 A 
BRANCH   4  17
ATOM     17  O   UNL     1      -1.827   9.851  18.692  0.00  0.00    +0.000 OA
BRANCH  17  19
ATOM     18  C   UNL     1      -3.038   9.860  16.583  0.00  0.00    +0.000 C 
ATOM     19  C   UNL     1      -1.757  10.225  17.307  0.00  0.00    +0.000 C 
ENDBRANCH  17  19
ENDBRANCH   4  17
ENDBRANCH   1   5
BRANCH   3  20
ATOM     20  O   UNL     1       2.282   7.986  19.406  0.00  0.00    +0.000 OA
BRANCH  20  21
ATOM     21  C   UNL     1       2.235   6.592  19.691  0.00  0.00    +0.000 C 
BRANCH  21  22
ATOM     22  C   UNL     1       2.692   5.823  18.449  0.00  0.00    +0.000 C 
ATOM     23  O   UNL     1       1.926   5.091  17.828  0.00  0.00    +0.000 OA
ATOM     24  N   UNL     1       4.035   6.011  18.147  0.00  0.00    +0.000 N 
ATOM     25  H   UNL     1       4.608   6.263  18.949  0.00  0.00    +0.000 HD
BRANCH  24  26
ATOM     26  C   UNL     1       4.691   5.330  17.099  0.00  0.00    +0.000 A 
ATOM     27  C   UNL     1       5.017   3.973  17.144  0.00  0.00    +0.000 A 
ATOM     28  F   UNL     1       4.609   3.200  18.161  0.00  0.00    +0.000 F 
ATOM     29  C   UNL     1       5.697   3.366  16.087  0.00  0.00    +0.000 A 
ATOM     30  C   UNL     1       6.074   4.118  14.973  0.00  0.00    +0.000 A 
ATOM     31  C   UNL     1       5.729   5.467  14.903  0.00  0.00    +0.000 A 
ATOM     32  C   UNL     1       5.020   6.052  15.950  0.00  0.00    +0.000 A 
ATOM     33  F   UNL     1       4.697   7.353  15.869  0.00  0.00    +0.000 F 
ENDBRANCH  24  26
ENDBRANCH  21  22
ENDBRANCH  20  21
ENDBRANCH   3  20
TORSDOF 7
ENDMDL
