MODEL 1
REMARK VINA RESULT:      -7.1      0.000      0.000
REMARK  Name = 
REMARK  11 active torsions:
REMARK  status: ('A' for Active; 'I' for Inactive)
REMARK    1  A    between atoms: C_1  and  O_2
REMARK    2  A    between atoms: O_2  and  C_3
REMARK    3  A    between atoms: C_6  and  C_7
REMARK    4  A    between atoms: C_12  and  C_13
REMARK    5  A    between atoms: C_15  and  O_16
REMARK    6  A    between atoms: O_16  and  C_17
REMARK    7  A    between atoms: C_18  and  O_19
REMARK    8  A    between atoms: O_19  and  C_20
REMARK    9  A    between atoms: C_21  and  O_22
REMARK   10  A    between atoms: O_22  and  C_23
REMARK   11  A    between atoms: C_26  and  N_27
REMARK                            x       y       z     vdW  Elec       q    Type
REMARK                         _______ _______ _______ _____ _____    ______ ____
ROOT
ATOM      1  C   UNL     1       2.141   4.671  19.383  0.00  0.00    +0.000 A 
ATOM      2  S   UNL     1       0.789   3.809  20.040  0.00  0.00    +0.000 S 
ATOM      3  S   UNL     1       1.461   1.986  19.445  0.00  0.00    +0.000 S 
ATOM      4  C   UNL     1       3.047   2.503  18.879  0.00  0.00    +0.000 A 
ATOM      5  S   UNL     1       4.197   1.378  18.404  0.00  0.00    +0.000 S 
ATOM      6  C   UNL     1       3.180   3.994  18.860  0.00  0.00    +0.000 A 
ENDROOT
BRANCH   1  10
ATOM      7  C   UNL     1       1.619   8.935  19.452  0.00  0.00    +0.000 A 
ATOM      8  C   UNL     1       2.074   8.285  18.302  0.00  0.00    +0.000 A 
ATOM      9  C   UNL     1       2.265   6.898  18.295  0.00  0.00    +0.000 A 
ATOM     10  C   UNL     1       2.022   6.134  19.446  0.00  0.00    +0.000 A 
ATOM     11  C   UNL     1       1.637   6.781  20.624  0.00  0.00    +0.000 A 
ATOM     12  C   UNL     1       1.447   8.172  20.613  0.00  0.00    +0.000 A 
BRANCH  12  13
ATOM     13  N   UNL     1       0.983   8.802  21.840  0.00  0.00    +0.000 N 
ATOM     14  O   UNL     1      -0.234   8.800  22.062  0.00  0.00    +0.000 OA
ATOM     15  O   UNL     1       1.846   9.350  22.539  0.00  0.00    +0.000 OA
ENDBRANCH  12  13
BRANCH   7  17
ATOM     16  C   UNL     1       0.222  10.689  18.702  0.00  0.00    +0.000 C 
ATOM     17  O   UNL     1       1.335  10.272  19.491  0.00  0.00    +0.000 OA
ENDBRANCH   7  17
ENDBRANCH   1  10
BRANCH   6  18
ATOM     18  C   UNL     1       4.372   4.668  18.317  0.00  0.00    +0.000 A 
ATOM     19  C   UNL     1       5.360   5.122  19.186  0.00  0.00    +0.000 A 
ATOM     20  C   UNL     1       6.494   5.772  18.690  0.00  0.00    +0.000 A 
ATOM     21  C   UNL     1       6.627   6.000  17.301  0.00  0.00    +0.000 A 
ATOM     22  C   UNL     1       5.620   5.554  16.420  0.00  0.00    +0.000 A 
ATOM     23  C   UNL     1       4.507   4.876  16.940  0.00  0.00    +0.000 A 
BRANCH  20  24
ATOM     24  O   UNL     1       7.504   6.235  19.502  0.00  0.00    +0.000 OA
ATOM     25  C   UNL     1       8.346   5.249  20.090  0.00  0.00    +0.000 C 
ENDBRANCH  20  24
BRANCH  21  26
ATOM     26  O   UNL     1       7.742   6.722  16.938  0.00  0.00    +0.000 OA
ATOM     27  C   UNL     1       7.782   8.094  17.308  0.00  0.00    +0.000 C 
ENDBRANCH  21  26
BRANCH  22  28
ATOM     28  O   UNL     1       5.759   5.835  15.085  0.00  0.00    +0.000 OA
ATOM     29  C   UNL     1       6.414   4.885  14.255  0.00  0.00    +0.000 C 
ENDBRANCH  22  28
ENDBRANCH   6  18
TORSDOF 7
ENDMDL
MODEL 2
REMARK VINA RESULT:      -6.8      0.192      2.311
REMARK  Name = 
REMARK  11 active torsions:
REMARK  status: ('A' for Active; 'I' for Inactive)
REMARK    1  A    between atoms: C_1  and  O_2
REMARK    2  A    between atoms: O_2  and  C_3
REMARK    3  A    between atoms: C_6  and  C_7
REMARK    4  A    between atoms: C_12  and  C_13
REMARK    5  A    between atoms: C_15  and  O_16
REMARK    6  A    between atoms: O_16  and  C_17
REMARK    7  A    between atoms: C_18  and  O_19
REMARK    8  A    between atoms: O_19  and  C_20
REMARK    9  A    between atoms: C_21  and  O_22
REMARK   10  A    between atoms: O_22  and  C_23
REMARK   11  A    between atoms: C_26  and  N_27
REMARK                            x       y       z     vdW  Elec       q    Type
REMARK                         _______ _______ _______ _____ _____    ______ ____
ROOT
ATOM      1  C   UNL     1       2.063   4.781  19.448  0.00  0.00    +0.000 A 
ATOM      2  S   UNL     1       0.705   3.899  20.066  0.00  0.00    +0.000 S 
ATOM      3  S   UNL     1       1.410   2.089  19.470  0.00  0.00    +0.000 S 
ATOM      4  C   UNL     1       3.003   2.627  18.946  0.00  0.00    +0.000 A 
ATOM      5  S   UNL     1       4.176   1.518  18.489  0.00  0.00    +0.000 S 
ATOM      6  C   UNL     1       3.122   4.119  18.943  0.00  0.00    +0.000 A 
ENDROOT
BRANCH   1  10
ATOM      7  C   UNL     1       1.490   9.038  19.550  0.00  0.00    +0.000 A 
ATOM      8  C   UNL     1       1.929   8.398  18.387  0.00  0.00    +0.000 A 
ATOM      9  C   UNL     1       2.137   7.014  18.369  0.00  0.00    +0.000 A 
ATOM     10  C   UNL     1       1.928   6.242  19.521  0.00  0.00    +0.000 A 
ATOM     11  C   UNL     1       1.560   6.878  20.710  0.00  0.00    +0.000 A 
ATOM     12  C   UNL     1       1.352   8.267  20.711  0.00  0.00    +0.000 A 
BRANCH  12  13
ATOM     13  N   UNL     1       0.907   8.885  21.950  0.00  0.00    +0.000 N 
ATOM     14  O   UNL     1       1.770   9.361  22.697  0.00  0.00    +0.000 OA
ATOM     15  O   UNL     1      -0.307   8.825  22.190  0.00  0.00    +0.000 OA
ENDBRANCH  12  13
BRANCH   7  17
ATOM     16  C   UNL     1      -0.019  10.756  18.952  0.00  0.00    +0.000 C 
ATOM     17  O   UNL     1       1.191  10.371  19.601  0.00  0.00    +0.000 OA
ENDBRANCH   7  17
ENDBRANCH   1  10
BRANCH   6  18
ATOM     18  C   UNL     1       4.318   4.810  18.434  0.00  0.00    +0.000 A 
ATOM     19  C   UNL     1       4.446   5.044  17.067  0.00  0.00    +0.000 A 
ATOM     20  C   UNL     1       5.579   5.691  16.564  0.00  0.00    +0.000 A 
ATOM     21  C   UNL     1       6.616   6.083  17.440  0.00  0.00    +0.000 A 
ATOM     22  C   UNL     1       6.495   5.834  18.823  0.00  0.00    +0.000 A 
ATOM     23  C   UNL     1       5.334   5.212  19.307  0.00  0.00    +0.000 A 
BRANCH  20  24
ATOM     24  O   UNL     1       5.755   5.953  15.225  0.00  0.00    +0.000 OA
ATOM     25  C   UNL     1       6.124   4.847  14.406  0.00  0.00    +0.000 C 
ENDBRANCH  20  24
BRANCH  21  26
ATOM     26  O   UNL     1       7.717   6.635  16.823  0.00  0.00    +0.000 OA
ATOM     27  C   UNL     1       8.028   7.988  17.128  0.00  0.00    +0.000 C 
ENDBRANCH  21  26
BRANCH  22  28
ATOM     28  O   UNL     1       7.542   6.185  19.637  0.00  0.00    +0.000 OA
ATOM     29  C   UNL     1       8.447   5.171  20.054  0.00  0.00    +0.000 C 
ENDBRANCH  22  28
ENDBRANCH   6  18
TORSDOF 7
ENDMDL
MODEL 3
REMARK VINA RESULT:      -6.1      6.960     11.966
REMARK  Name = 
REMARK  11 active torsions:
REMARK  status: ('A' for Active; 'I' for Inactive)
REMARK    1  A    between atoms: C_1  and  O_2
REMARK    2  A    between atoms: O_2  and  C_3
REMARK    3  A    between atoms: C_6  and  C_7
REMARK    4  A    between atoms: C_12  and  C_13
REMARK    5  A    between atoms: C_15  and  O_16
REMARK    6  A    between atoms: O_16  and  C_17
REMARK    7  A    between atoms: C_18  and  O_19
REMARK    8  A    between atoms: O_19  and  C_20
REMARK    9  A    between atoms: C_21  and  O_22
REMARK   10  A    between atoms: O_22  and  C_23
REMARK   11  A    between atoms: C_26  and  N_27
REMARK                            x       y       z     vdW  Elec       q    Type
REMARK                         _______ _______ _______ _____ _____    ______ ____
ROOT
ATOM      1  C   UNL     1      -1.672  14.209  22.190  0.00  0.00    +0.000 A 
ATOM      2  S   UNL     1      -0.439  15.285  22.760  0.00  0.00    +0.000 S 
ATOM      3  S   UNL     1      -1.615  16.939  22.656  0.00  0.00    +0.000 S 
ATOM      4  C   UNL     1      -3.128  16.119  22.283  0.00  0.00    +0.000 A 
ATOM      5  S   UNL     1      -4.575  16.966  22.242  0.00  0.00    +0.000 S 
ATOM      6  C   UNL     1      -2.925  14.664  21.996  0.00  0.00    +0.000 A 
ENDROOT
BRANCH   1  10
ATOM      7  C   UNL     1      -0.545  10.123  21.490  0.00  0.00    +0.000 A 
ATOM      8  C   UNL     1      -0.892  10.564  22.770  0.00  0.00    +0.000 A 
ATOM      9  C   UNL     1      -1.234  11.904  22.994  0.00  0.00    +0.000 A 
ATOM     10  C   UNL     1      -1.218  12.833  21.945  0.00  0.00    +0.000 A 
ATOM     11  C   UNL     1      -0.804  12.421  20.675  0.00  0.00    +0.000 A 
ATOM     12  C   UNL     1      -0.467  11.074  20.466  0.00  0.00    +0.000 A 
BRANCH  12  13
ATOM     13  N   UNL     1      -0.103  10.669  19.118  0.00  0.00    +0.000 N 
ATOM     14  O   UNL     1      -1.006  10.263  18.376  0.00  0.00    +0.000 OA
ATOM     15  O   UNL     1       1.104  10.702  18.838  0.00  0.00    +0.000 OA
ENDBRANCH  12  13
BRANCH   7  17
ATOM     16  C   UNL     1       1.033   8.363  21.505  0.00  0.00    +0.000 C 
ATOM     17  O   UNL     1      -0.285   8.813  21.198  0.00  0.00    +0.000 OA
ENDBRANCH   7  17
ENDBRANCH   1  10
BRANCH   6  18
ATOM     18  C   UNL     1      -4.023  13.792  21.546  0.00  0.00    +0.000 A 
ATOM     19  C   UNL     1      -4.184  13.538  20.186  0.00  0.00    +0.000 A 
ATOM     20  C   UNL     1      -5.226  12.720  19.739  0.00  0.00    +0.000 A 
ATOM     21  C   UNL     1      -6.141  12.171  20.665  0.00  0.00    +0.000 A 
ATOM     22  C   UNL     1      -5.988  12.439  22.042  0.00  0.00    +0.000 A 
ATOM     23  C   UNL     1      -4.916  13.237  22.468  0.00  0.00    +0.000 A 
BRANCH  20  24
ATOM     24  O   UNL     1      -5.429  12.431  18.409  0.00  0.00    +0.000 OA
ATOM     25  C   UNL     1      -4.446  11.613  17.782  0.00  0.00    +0.000 C 
ENDBRANCH  20  24
BRANCH  21  26
ATOM     26  O   UNL     1      -7.172  11.452  20.103  0.00  0.00    +0.000 OA
ATOM     27  C   UNL     1      -7.057  10.035  20.102  0.00  0.00    +0.000 C 
ENDBRANCH  21  26
BRANCH  22  28
ATOM     28  O   UNL     1      -6.922  11.929  22.907  0.00  0.00    +0.000 OA
ATOM     29  C   UNL     1      -7.774  12.834  23.597  0.00  0.00    +0.000 C 
ENDBRANCH  22  28
ENDBRANCH   6  18
TORSDOF 7
ENDMDL
MODEL 4
REMARK VINA RESULT:      -6.0      6.895     10.281
REMARK  Name = 
REMARK  11 active torsions:
REMARK  status: ('A' for Active; 'I' for Inactive)
REMARK    1  A    between atoms: C_1  and  O_2
REMARK    2  A    between atoms: O_2  and  C_3
REMARK    3  A    between atoms: C_6  and  C_7
REMARK    4  A    between atoms: C_12  and  C_13
REMARK    5  A    between atoms: C_15  and  O_16
REMARK    6  A    between atoms: O_16  and  C_17
REMARK    7  A    between atoms: C_18  and  O_19
REMARK    8  A    between atoms: O_19  and  C_20
REMARK    9  A    between atoms: C_21  and  O_22
REMARK   10  A    between atoms: O_22  and  C_23
REMARK   11  A    between atoms: C_26  and  N_27
REMARK                            x       y       z     vdW  Elec       q    Type
REMARK                         _______ _______ _______ _____ _____    ______ ____
ROOT
ATOM      1  C   UNL     1      -2.905  15.109  20.860  0.00  0.00    +0.000 A 
ATOM      2  S   UNL     1      -3.292  16.794  20.986  0.00  0.00    +0.000 S 
ATOM      3  S   UNL     1      -1.368  17.413  20.778  0.00  0.00    +0.000 S 
ATOM      4  C   UNL     1      -0.666  15.845  20.389  0.00  0.00    +0.000 A 
ATOM      5  S   UNL     1       0.939  15.717  19.918  0.00  0.00    +0.000 S 
ATOM      6  C   UNL     1      -1.647  14.729  20.564  0.00  0.00    +0.000 A 
ENDROOT
BRANCH   1  10
ATOM      7  C   UNL     1      -6.076  12.294  21.549  0.00  0.00    +0.000 A 
ATOM      8  C   UNL     1      -5.670  12.617  20.251  0.00  0.00    +0.000 A 
ATOM      9  C   UNL     1      -4.652  13.554  20.035  0.00  0.00    +0.000 A 
ATOM     10  C   UNL     1      -4.032  14.202  21.112  0.00  0.00    +0.000 A 
ATOM     11  C   UNL     1      -4.478  13.942  22.412  0.00  0.00    +0.000 A 
ATOM     12  C   UNL     1      -5.498  12.997  22.612  0.00  0.00    +0.000 A 
BRANCH  12  13
ATOM     13  N   UNL     1      -5.890  12.705  23.982  0.00  0.00    +0.000 N 
ATOM     14  O   UNL     1      -5.158  11.960  24.643  0.00  0.00    +0.000 OA
ATOM     15  O   UNL     1      -6.971  13.180  24.359  0.00  0.00    +0.000 OA
ENDBRANCH  12  13
BRANCH   7  17
ATOM     16  C   UNL     1      -7.656  10.761  20.687  0.00  0.00    +0.000 C 
ATOM     17  O   UNL     1      -7.004  11.327  21.822  0.00  0.00    +0.000 OA
ENDBRANCH   7  17
ENDBRANCH   1  10
BRANCH   6  18
ATOM     18  C   UNL     1      -1.263  13.315  20.411  0.00  0.00    +0.000 A 
ATOM     19  C   UNL     1      -0.689  12.640  21.485  0.00  0.00    +0.000 A 
ATOM     20  C   UNL     1      -0.310  11.300  21.356  0.00  0.00    +0.000 A 
ATOM     21  C   UNL     1      -0.480  10.633  20.122  0.00  0.00    +0.000 A 
ATOM     22  C   UNL     1      -1.049  11.320  19.029  0.00  0.00    +0.000 A 
ATOM     23  C   UNL     1      -1.450  12.654  19.193  0.00  0.00    +0.000 A 
BRANCH  20  24
ATOM     24  O   UNL     1       0.256  10.582  22.385  0.00  0.00    +0.000 OA
ATOM     25  C   UNL     1      -0.645  10.023  23.337  0.00  0.00    +0.000 C 
ENDBRANCH  20  24
BRANCH  21  26
ATOM     26  O   UNL     1       0.005   9.344  20.089  0.00  0.00    +0.000 OA
ATOM     27  C   UNL     1       1.278   9.140  19.490  0.00  0.00    +0.000 C 
ENDBRANCH  21  26
BRANCH  22  28
ATOM     28  O   UNL     1      -1.154  10.656  17.833  0.00  0.00    +0.000 OA
ATOM     29  C   UNL     1      -2.381  10.009  17.521  0.00  0.00    +0.000 C 
ENDBRANCH  22  28
ENDBRANCH   6  18
TORSDOF 7
ENDMDL
MODEL 5
REMARK VINA RESULT:      -6.0      6.560     10.037
REMARK  Name = 
REMARK  11 active torsions:
REMARK  status: ('A' for Active; 'I' for Inactive)
REMARK    1  A    between atoms: C_1  and  O_2
REMARK    2  A    between atoms: O_2  and  C_3
REMARK    3  A    between atoms: C_6  and  C_7
REMARK    4  A    between atoms: C_12  and  C_13
REMARK    5  A    between atoms: C_15  and  O_16
REMARK    6  A    between atoms: O_16  and  C_17
REMARK    7  A    between atoms: C_18  and  O_19
REMARK    8  A    between atoms: O_19  and  C_20
REMARK    9  A    between atoms: C_21  and  O_22
REMARK   10  A    between atoms: O_22  and  C_23
REMARK   11  A    between atoms: C_26  and  N_27
REMARK                            x       y       z     vdW  Elec       q    Type
REMARK                         _______ _______ _______ _____ _____    ______ ____
ROOT
ATOM      1  C   UNL     1      -2.155  14.927  20.954  0.00  0.00    +0.000 A 
ATOM      2  S   UNL     1      -2.452  16.634  20.929  0.00  0.00    +0.000 S 
ATOM      3  S   UNL     1      -0.653  17.093  20.104  0.00  0.00    +0.000 S 
ATOM      4  C   UNL     1      -0.127  15.445  19.774  0.00  0.00    +0.000 A 
ATOM      5  S   UNL     1       1.274  15.149  18.900  0.00  0.00    +0.000 S 
ATOM      6  C   UNL     1      -1.044  14.428  20.380  0.00  0.00    +0.000 A 
ENDROOT
BRANCH   1  10
ATOM      7  C   UNL     1      -5.243  12.796  23.049  0.00  0.00    +0.000 A 
ATOM      8  C   UNL     1      -4.129  13.300  23.727  0.00  0.00    +0.000 A 
ATOM      9  C   UNL     1      -3.116  13.972  23.033  0.00  0.00    +0.000 A 
ATOM     10  C   UNL     1      -3.186  14.137  21.643  0.00  0.00    +0.000 A 
ATOM     11  C   UNL     1      -4.257  13.574  20.943  0.00  0.00    +0.000 A 
ATOM     12  C   UNL     1      -5.267  12.906  21.654  0.00  0.00    +0.000 A 
BRANCH  12  13
ATOM     13  N   UNL     1      -6.399  12.391  20.899  0.00  0.00    +0.000 N 
ATOM     14  O   UNL     1      -6.404  11.186  20.623  0.00  0.00    +0.000 OA
ATOM     15  O   UNL     1      -7.243  13.222  20.534  0.00  0.00    +0.000 OA
ENDBRANCH  12  13
BRANCH   7  17
ATOM     16  C   UNL     1      -7.303  13.100  24.169  0.00  0.00    +0.000 C 
ATOM     17  O   UNL     1      -6.301  12.208  23.685  0.00  0.00    +0.000 OA
ENDBRANCH   7  17
ENDBRANCH   1  10
BRANCH   6  18
ATOM     18  C   UNL     1      -0.752  12.986  20.340  0.00  0.00    +0.000 A 
ATOM     19  C   UNL     1      -0.159  12.374  21.441  0.00  0.00    +0.000 A 
ATOM     20  C   UNL     1       0.134  11.006  21.417  0.00  0.00    +0.000 A 
ATOM     21  C   UNL     1      -0.145  10.244  20.261  0.00  0.00    +0.000 A 
ATOM     22  C   UNL     1      -0.732  10.865  19.139  0.00  0.00    +0.000 A 
ATOM     23  C   UNL     1      -1.045  12.231  19.199  0.00  0.00    +0.000 A 
BRANCH  20  24
ATOM     24  O   UNL     1       0.713  10.349  22.478  0.00  0.00    +0.000 OA
ATOM     25  C   UNL     1      -0.176   9.711  23.390  0.00  0.00    +0.000 C 
ENDBRANCH  20  24
BRANCH  21  26
ATOM     26  O   UNL     1       0.262   8.930  20.323  0.00  0.00    +0.000 OA
ATOM     27  C   UNL     1       1.550   8.619  19.808  0.00  0.00    +0.000 C 
ENDBRANCH  21  26
BRANCH  22  28
ATOM     28  O   UNL     1      -0.944  10.105  18.017  0.00  0.00    +0.000 OA
ATOM     29  C   UNL     1      -2.138  10.308  17.274  0.00  0.00    +0.000 C 
ENDBRANCH  22  28
ENDBRANCH   6  18
TORSDOF 7
ENDMDL
MODEL 6
REMARK VINA RESULT:      -6.0      6.136     11.184
REMARK  Name = 
REMARK  11 active torsions:
REMARK  status: ('A' for Active; 'I' for Inactive)
REMARK    1  A    between atoms: C_1  and  O_2
REMARK    2  A    between atoms: O_2  and  C_3
REMARK    3  A    between atoms: C_6  and  C_7
REMARK    4  A    between atoms: C_12  and  C_13
REMARK    5  A    between atoms: C_15  and  O_16
REMARK    6  A    between atoms: O_16  and  C_17
REMARK    7  A    between atoms: C_18  and  O_19
REMARK    8  A    between atoms: O_19  and  C_20
REMARK    9  A    between atoms: C_21  and  O_22
REMARK   10  A    between atoms: O_22  and  C_23
REMARK   11  A    between atoms: C_26  and  N_27
REMARK                            x       y       z     vdW  Elec       q    Type
REMARK                         _______ _______ _______ _____ _____    ______ ____
ROOT
ATOM      1  C   UNL     1      -0.434  13.764  19.953  0.00  0.00    +0.000 A 
ATOM      2  S   UNL     1       0.808  14.501  18.996  0.00  0.00    +0.000 S 
ATOM      3  S   UNL     1      -0.100  16.318  18.934  0.00  0.00    +0.000 S 
ATOM      4  C   UNL     1      -1.395  15.964  20.073  0.00  0.00    +0.000 A 
ATOM      5  S   UNL     1      -2.431  17.174  20.599  0.00  0.00    +0.000 S 
ATOM      6  C   UNL     1      -1.441  14.514  20.442  0.00  0.00    +0.000 A 
ENDROOT
BRANCH   1  10
ATOM      7  C   UNL     1       0.205   9.542  20.420  0.00  0.00    +0.000 A 
ATOM      8  C   UNL     1      -0.162  10.081  19.184  0.00  0.00    +0.000 A 
ATOM      9  C   UNL     1      -0.393  11.455  19.047  0.00  0.00    +0.000 A 
ATOM     10  C   UNL     1      -0.279  12.316  20.147  0.00  0.00    +0.000 A 
ATOM     11  C   UNL     1       0.016  11.780  21.404  0.00  0.00    +0.000 A 
ATOM     12  C   UNL     1       0.247  10.400  21.525  0.00  0.00    +0.000 A 
BRANCH  12  13
ATOM     13  N   UNL     1       0.615   9.888  22.836  0.00  0.00    +0.000 N 
ATOM     14  O   UNL     1      -0.254   9.883  23.716  0.00  0.00    +0.000 OA
ATOM     15  O   UNL     1       1.799   9.554  22.985  0.00  0.00    +0.000 OA
ENDBRANCH  12  13
BRANCH   7  17
ATOM     16  C   UNL     1       1.772   7.813  20.041  0.00  0.00    +0.000 C 
ATOM     17  O   UNL     1       0.523   8.223  20.594  0.00  0.00    +0.000 OA
ENDBRANCH   7  17
ENDBRANCH   1  10
BRANCH   6  18
ATOM     18  C   UNL     1      -2.507  13.953  21.289  0.00  0.00    +0.000 A 
ATOM     19  C   UNL     1      -2.441  14.111  22.671  0.00  0.00    +0.000 A 
ATOM     20  C   UNL     1      -3.439  13.577  23.492  0.00  0.00    +0.000 A 
ATOM     21  C   UNL     1      -4.506  12.846  22.923  0.00  0.00    +0.000 A 
ATOM     22  C   UNL     1      -4.567  12.672  21.524  0.00  0.00    +0.000 A 
ATOM     23  C   UNL     1      -3.570  13.245  20.720  0.00  0.00    +0.000 A 
BRANCH  20  24
ATOM     24  O   UNL     1      -3.428  13.709  24.861  0.00  0.00    +0.000 OA
ATOM     25  C   UNL     1      -2.915  14.934  25.376  0.00  0.00    +0.000 C 
ENDBRANCH  20  24
BRANCH  21  26
ATOM     26  O   UNL     1      -5.382  12.298  23.834  0.00  0.00    +0.000 OA
ATOM     27  C   UNL     1      -6.636  12.946  24.007  0.00  0.00    +0.000 C 
ENDBRANCH  21  26
BRANCH  22  28
ATOM     28  O   UNL     1      -5.590  11.916  21.011  0.00  0.00    +0.000 OA
ATOM     29  C   UNL     1      -6.119  12.263  19.738  0.00  0.00    +0.000 C 
ENDBRANCH  22  28
ENDBRANCH   6  18
TORSDOF 7
ENDMDL
MODEL 7
REMARK VINA RESULT:      -5.9      7.939     10.323
REMARK  Name = 
REMARK  11 active torsions:
REMARK  status: ('A' for Active; 'I' for Inactive)
REMARK    1  A    between atoms: C_1  and  O_2
REMARK    2  A    between atoms: O_2  and  C_3
REMARK    3  A    between atoms: C_6  and  C_7
REMARK    4  A    between atoms: C_12  and  C_13
REMARK    5  A    between atoms: C_15  and  O_16
REMARK    6  A    between atoms: O_16  and  C_17
REMARK    7  A    between atoms: C_18  and  O_19
REMARK    8  A    between atoms: O_19  and  C_20
REMARK    9  A    between atoms: C_21  and  O_22
REMARK   10  A    between atoms: O_22  and  C_23
REMARK   11  A    between atoms: C_26  and  N_27
REMARK                            x       y       z     vdW  Elec       q    Type
REMARK                         _______ _______ _______ _____ _____    ______ ____
ROOT
ATOM      1  C   UNL     1      -4.505  12.430  19.484  0.00  0.00    +0.000 A 
ATOM      2  S   UNL     1      -5.909  11.938  18.595  0.00  0.00    +0.000 S 
ATOM      3  S   UNL     1      -4.851  11.185  17.033  0.00  0.00    +0.000 S 
ATOM      4  C   UNL     1      -3.249  11.339  17.750  0.00  0.00    +0.000 A 
ATOM      5  S   UNL     1      -1.901  10.698  16.984  0.00  0.00    +0.000 S 
ATOM      6  C   UNL     1      -3.278  12.104  19.036  0.00  0.00    +0.000 A 
ENDROOT
BRANCH   1  10
ATOM      7  C   UNL     1      -5.519  14.763  22.946  0.00  0.00    +0.000 A 
ATOM      8  C   UNL     1      -5.053  15.374  21.778  0.00  0.00    +0.000 A 
ATOM      9  C   UNL     1      -4.702  14.604  20.663  0.00  0.00    +0.000 A 
ATOM     10  C   UNL     1      -4.791  13.206  20.699  0.00  0.00    +0.000 A 
ATOM     11  C   UNL     1      -5.185  12.578  21.885  0.00  0.00    +0.000 A 
ATOM     12  C   UNL     1      -5.537  13.364  22.994  0.00  0.00    +0.000 A 
BRANCH  12  13
ATOM     13  N   UNL     1      -6.004  12.678  24.188  0.00  0.00    +0.000 N 
ATOM     14  O   UNL     1      -5.156  12.142  24.911  0.00  0.00    +0.000 OA
ATOM     15  O   UNL     1      -7.231  12.632  24.353  0.00  0.00    +0.000 OA
ENDBRANCH  12  13
BRANCH   7  17
ATOM     16  C   UNL     1      -5.050  16.449  24.536  0.00  0.00    +0.000 C 
ATOM     17  O   UNL     1      -5.955  15.468  24.034  0.00  0.00    +0.000 OA
ENDBRANCH   7  17
ENDBRANCH   1  10
BRANCH   6  18
ATOM     18  C   UNL     1      -2.049  12.463  19.763  0.00  0.00    +0.000 A 
ATOM     19  C   UNL     1      -1.406  13.664  19.473  0.00  0.00    +0.000 A 
ATOM     20  C   UNL     1      -0.232  14.018  20.147  0.00  0.00    +0.000 A 
ATOM     21  C   UNL     1       0.324  13.142  21.106  0.00  0.00    +0.000 A 
ATOM     22  C   UNL     1      -0.318  11.919  21.391  0.00  0.00    +0.000 A 
ATOM     23  C   UNL     1      -1.511  11.601  20.724  0.00  0.00    +0.000 A 
BRANCH  20  24
ATOM     24  O   UNL     1       0.441  15.194  19.905  0.00  0.00    +0.000 OA
ATOM     25  C   UNL     1      -0.241  16.163  19.114  0.00  0.00    +0.000 C 
ENDBRANCH  20  24
BRANCH  21  26
ATOM     26  O   UNL     1       1.522  13.558  21.642  0.00  0.00    +0.000 OA
ATOM     27  C   UNL     1       2.684  13.413  20.836  0.00  0.00    +0.000 C 
ENDBRANCH  21  26
BRANCH  22  28
ATOM     28  O   UNL     1       0.276  11.072  22.291  0.00  0.00    +0.000 OA
ATOM     29  C   UNL     1      -0.543  10.149  22.998  0.00  0.00    +0.000 C 
ENDBRANCH  22  28
ENDBRANCH   6  18
TORSDOF 7
ENDMDL
MODEL 8
REMARK VINA RESULT:      -5.9      6.671     11.540
REMARK  Name = 
REMARK  11 active torsions:
REMARK  status: ('A' for Active; 'I' for Inactive)
REMARK    1  A    between atoms: C_1  and  O_2
REMARK    2  A    between atoms: O_2  and  C_3
REMARK    3  A    between atoms: C_6  and  C_7
REMARK    4  A    between atoms: C_12  and  C_13
REMARK    5  A    between atoms: C_15  and  O_16
REMARK    6  A    between atoms: O_16  and  C_17
REMARK    7  A    between atoms: C_18  and  O_19
REMARK    8  A    between atoms: O_19  and  C_20
REMARK    9  A    between atoms: C_21  and  O_22
REMARK   10  A    between atoms: O_22  and  C_23
REMARK   11  A    between atoms: C_26  and  N_27
REMARK                            x       y       z     vdW  Elec       q    Type
REMARK                         _______ _______ _______ _____ _____    ______ ____
ROOT
ATOM      1  C   UNL     1      -2.187  14.049  21.257  0.00  0.00    +0.000 A 
ATOM      2  S   UNL     1      -1.052  15.229  21.824  0.00  0.00    +0.000 S 
ATOM      3  S   UNL     1      -2.419  16.729  21.919  0.00  0.00    +0.000 S 
ATOM      4  C   UNL     1      -3.848  15.755  21.584  0.00  0.00    +0.000 A 
ATOM      5  S   UNL     1      -5.385  16.417  21.699  0.00  0.00    +0.000 S 
ATOM      6  C   UNL     1      -3.496  14.358  21.179  0.00  0.00    +0.000 A 
ENDROOT
BRANCH   1  10
ATOM      7  C   UNL     1      -0.265  10.374  20.135  0.00  0.00    +0.000 A 
ATOM      8  C   UNL     1      -0.596  11.335  19.175  0.00  0.00    +0.000 A 
ATOM      9  C   UNL     1      -1.245  12.519  19.546  0.00  0.00    +0.000 A 
ATOM     10  C   UNL     1      -1.592  12.758  20.883  0.00  0.00    +0.000 A 
ATOM     11  C   UNL     1      -1.332  11.774  21.842  0.00  0.00    +0.000 A 
ATOM     12  C   UNL     1      -0.678  10.593  21.454  0.00  0.00    +0.000 A 
BRANCH  12  13
ATOM     13  N   UNL     1      -0.366   9.621  22.490  0.00  0.00    +0.000 N 
ATOM     14  O   UNL     1       0.371   9.983  23.414  0.00  0.00    +0.000 OA
ATOM     15  O   UNL     1      -0.817   8.478  22.327  0.00  0.00    +0.000 OA
ENDBRANCH  12  13
BRANCH   7  17
ATOM     16  C   UNL     1       1.355   9.347  18.751  0.00  0.00    +0.000 C 
ATOM     17  O   UNL     1       0.442   9.241  19.843  0.00  0.00    +0.000 OA
ENDBRANCH   7  17
ENDBRANCH   1  10
BRANCH   6  18
ATOM     18  C   UNL     1      -4.512  13.388  20.737  0.00  0.00    +0.000 A 
ATOM     19  C   UNL     1      -5.389  12.840  21.670  0.00  0.00    +0.000 A 
ATOM     20  C   UNL     1      -6.356  11.911  21.270  0.00  0.00    +0.000 A 
ATOM     21  C   UNL     1      -6.426  11.501  19.920  0.00  0.00    +0.000 A 
ATOM     22  C   UNL     1      -5.530  12.044  18.977  0.00  0.00    +0.000 A 
ATOM     23  C   UNL     1      -4.590  12.998  19.396  0.00  0.00    +0.000 A 
BRANCH  20  24
ATOM     24  O   UNL     1      -7.251  11.343  22.147  0.00  0.00    +0.000 OA
ATOM     25  C   UNL     1      -7.914  12.232  23.041  0.00  0.00    +0.000 C 
ENDBRANCH  20  24
BRANCH  21  26
ATOM     26  O   UNL     1      -7.360  10.522  19.661  0.00  0.00    +0.000 OA
ATOM     27  C   UNL     1      -6.917   9.172  19.688  0.00  0.00    +0.000 C 
ENDBRANCH  21  26
BRANCH  22  28
ATOM     28  O   UNL     1      -5.595  11.587  17.685  0.00  0.00    +0.000 OA
ATOM     29  C   UNL     1      -4.384  11.251  17.021  0.00  0.00    +0.000 C 
ENDBRANCH  22  28
ENDBRANCH   6  18
TORSDOF 7
ENDMDL
MODEL 9
REMARK VINA RESULT:      -5.9      8.302     12.182
REMARK  Name = 
REMARK  11 active torsions:
REMARK  status: ('A' for Active; 'I' for Inactive)
REMARK    1  A    between atoms: C_1  and  O_2
REMARK    2  A    between atoms: O_2  and  C_3
REMARK    3  A    between atoms: C_6  and  C_7
REMARK    4  A    between atoms: C_12  and  C_13
REMARK    5  A    between atoms: C_15  and  O_16
REMARK    6  A    between atoms: O_16  and  C_17
REMARK    7  A    between atoms: C_18  and  O_19
REMARK    8  A    between atoms: O_19  and  C_20
REMARK    9  A    between atoms: C_21  and  O_22
REMARK   10  A    between atoms: O_22  and  C_23
REMARK   11  A    between atoms: C_26  and  N_27
REMARK                            x       y       z     vdW  Elec       q    Type
REMARK                         _______ _______ _______ _____ _____    ______ ____
ROOT
ATOM      1  C   UNL     1      -3.026  14.788  21.263  0.00  0.00    +0.000 A 
ATOM      2  S   UNL     1      -2.067  16.199  21.565  0.00  0.00    +0.000 S 
ATOM      3  S   UNL     1      -3.465  17.493  20.859  0.00  0.00    +0.000 S 
ATOM      4  C   UNL     1      -4.765  16.325  20.640  0.00  0.00    +0.000 A 
ATOM      5  S   UNL     1      -6.310  16.829  20.223  0.00  0.00    +0.000 S 
ATOM      6  C   UNL     1      -4.298  14.917  20.839  0.00  0.00    +0.000 A 
ENDROOT
BRANCH   1  10
ATOM      7  C   UNL     1      -1.183  10.970  21.961  0.00  0.00    +0.000 A 
ATOM      8  C   UNL     1      -1.776  11.685  23.006  0.00  0.00    +0.000 A 
ATOM      9  C   UNL     1      -2.353  12.939  22.775  0.00  0.00    +0.000 A 
ATOM     10  C   UNL     1      -2.332  13.514  21.496  0.00  0.00    +0.000 A 
ATOM     11  C   UNL     1      -1.678  12.844  20.458  0.00  0.00    +0.000 A 
ATOM     12  C   UNL     1      -1.107  11.585  20.705  0.00  0.00    +0.000 A 
BRANCH  12  13
ATOM     13  N   UNL     1      -0.493  10.888  19.586  0.00  0.00    +0.000 N 
ATOM     14  O   UNL     1      -1.225  10.195  18.869  0.00  0.00    +0.000 OA
ATOM     15  O   UNL     1       0.737  10.996  19.477  0.00  0.00    +0.000 OA
ENDBRANCH  12  13
BRANCH   7  17
ATOM     16  C   UNL     1       0.170   9.512  23.239  0.00  0.00    +0.000 C 
ATOM     17  O   UNL     1      -0.681   9.707  22.111  0.00  0.00    +0.000 OA
ENDBRANCH   7  17
ENDBRANCH   1  10
BRANCH   6  18
ATOM     18  C   UNL     1      -5.173  13.758  20.597  0.00  0.00    +0.000 A 
ATOM     19  C   UNL     1      -5.896  13.211  21.655  0.00  0.00    +0.000 A 
ATOM     20  C   UNL     1      -6.726  12.105  21.446  0.00  0.00    +0.000 A 
ATOM     21  C   UNL     1      -6.811  11.517  20.164  0.00  0.00    +0.000 A 
ATOM     22  C   UNL     1      -6.068  12.060  19.095  0.00  0.00    +0.000 A 
ATOM     23  C   UNL     1      -5.268  13.190  19.323  0.00  0.00    +0.000 A 
BRANCH  20  24
ATOM     24  O   UNL     1      -7.466  11.528  22.452  0.00  0.00    +0.000 OA
ATOM     25  C   UNL     1      -7.582  12.274  23.660  0.00  0.00    +0.000 C 
ENDBRANCH  20  24
BRANCH  21  26
ATOM     26  O   UNL     1      -7.592  10.385  20.098  0.00  0.00    +0.000 OA
ATOM     27  C   UNL     1      -6.929   9.143  19.903  0.00  0.00    +0.000 C 
ENDBRANCH  21  26
BRANCH  22  28
ATOM     28  O   UNL     1      -6.137  11.435  17.877  0.00  0.00    +0.000 OA
ATOM     29  C   UNL     1      -4.949  11.314  17.106  0.00  0.00    +0.000 C 
ENDBRANCH  22  28
ENDBRANCH   6  18
TORSDOF 7
ENDMDL
