MODEL 1
REMARK VINA RESULT:      -7.4      0.000      0.000
REMARK  Name = 
REMARK  14 active torsions:
REMARK  status: ('A' for Active; 'I' for Inactive)
REMARK    1  A    between atoms: C_1  and  C_2
REMARK    2  A    between atoms: C_2  and  C_3
REMARK    3  A    between atoms: C_3  and  C_4
REMARK    4  A    between atoms: N_6  and  C_7
REMARK    5  A    between atoms: C_9  and  O_10
REMARK    6  A    between atoms: C_12  and  C_13
REMARK    7  A    between atoms: C_15  and  S_16
REMARK    8  A    between atoms: S_16  and  N_19
REMARK    9  A    between atoms: N_19  and  C_20
REMARK   10  A    between atoms: C_20  and  C_21
REMARK   11  A    between atoms: C_21  and  O_22
REMARK   12  A    between atoms: C_25  and  O_26
REMARK   13  A    between atoms: O_26  and  C_27
REMARK   14  A    between atoms: C_27  and  C_28
REMARK                            x       y       z     vdW  Elec       q    Type
REMARK                         _______ _______ _______ _____ _____    ______ ____
ROOT
ATOM      1  C   UNL     1       2.515   6.714  19.224  0.00  0.00    +0.000 A 
ATOM      2  C   UNL     1       3.605   7.004  18.354  0.00  0.00    +0.000 A 
ATOM      3  C   UNL     1       4.316   6.021  17.652  0.00  0.00    +0.000 A 
ATOM      4  C   UNL     1       3.950   4.692  17.797  0.00  0.00    +0.000 A 
ATOM      5  C   UNL     1       2.891   4.372  18.653  0.00  0.00    +0.000 A 
ATOM      6  C   UNL     1       2.171   5.353  19.378  0.00  0.00    +0.000 A 
ENDROOT
BRANCH   1  14
ATOM      7  C   UNL     1      -0.591  10.441  18.974  0.00  0.00    +0.000 A 
ATOM      8  N   UNL     1      -1.104  11.269  19.897  0.00  0.00    +0.000 NA
ATOM      9  N   UNL     1      -0.464  10.919  21.037  0.00  0.00    +0.000 N 
ATOM     10  C   UNL     1      -0.790  11.623  22.254  0.00  0.00    +0.000 C 
ATOM     11  C   UNL     1       0.408   9.877  20.888  0.00  0.00    +0.000 A 
ATOM     12  C   UNL     1       1.236   9.122  21.691  0.00  0.00    +0.000 A 
ATOM     13  N   UNL     1       1.910   8.096  21.146  0.00  0.00    +0.000 NA
ATOM     14  C   UNL     1       1.854   7.897  19.820  0.00  0.00    +0.000 A 
ATOM     15  N   UNL     1       1.122   8.627  18.965  0.00  0.00    +0.000 NA
ATOM     16  C   UNL     1       0.377   9.584  19.538  0.00  0.00    +0.000 A 
BRANCH  12  17
ATOM     17  O   UNL     1       1.444   9.303  23.031  0.00  0.00    +0.000 OA
ATOM     18  H   UNL     1       1.887  10.146  23.176  0.00  0.00    +0.000 HD
ENDBRANCH  12  17
BRANCH   7  19
ATOM     19  C   UNL     1      -1.033  10.460  17.550  0.00  0.00    +0.000 C 
BRANCH  19  21
ATOM     20  C   UNL     1      -2.870   9.849  15.860  0.00  0.00    +0.000 C 
ATOM     21  C   UNL     1      -2.430   9.874  17.318  0.00  0.00    +0.000 C 
ENDBRANCH  19  21
ENDBRANCH   7  19
ENDBRANCH   1  14
BRANCH   3  22
ATOM     22  S   UNL     1       5.534   6.519  16.468  0.00  0.00    +0.000 S 
ATOM     23  O   UNL     1       4.824   6.977  15.294  0.00  0.00    +0.000 OA
ATOM     24  O   UNL     1       6.528   7.341  17.117  0.00  0.00    +0.000 OA
BRANCH  22  25
ATOM     25  N   UNL     1       6.284   5.076  16.005  0.00  0.00    +0.000 NA
ATOM     26  H   UNL     1       6.247   4.442  16.807  0.00  0.00    +0.000 HD
BRANCH  25  27
ATOM     27  C   UNL     1       5.861   4.484  14.716  0.00  0.00    +0.000 C 
BRANCH  27  28
ATOM     28  C   UNL     1       6.997   4.593  13.695  0.00  0.00    +0.000 C 
BRANCH  28  29
ATOM     29  O   UNL     1       7.959   5.562  14.111  0.00  0.00    +0.000 OA
ATOM     30  H   UNL     1       8.755   5.429  13.570  0.00  0.00    +0.000 HD
ENDBRANCH  28  29
ENDBRANCH  27  28
ENDBRANCH  25  27
ENDBRANCH  22  25
ENDBRANCH   3  22
BRANCH   6  31
ATOM     31  O   UNL     1       1.194   4.756  20.132  0.00  0.00    +0.000 OA
BRANCH  31  32
ATOM     32  C   UNL     1       1.112   3.339  20.217  0.00  0.00    +0.000 C 
ATOM     33  C   UNL     1       1.611   2.888  21.580  0.00  0.00    +0.000 C 
ENDBRANCH  31  32
ENDBRANCH   6  31
TORSDOF 11
ENDMDL
MODEL 2
REMARK VINA RESULT:      -7.4      2.344      3.440
REMARK  Name = 
REMARK  14 active torsions:
REMARK  status: ('A' for Active; 'I' for Inactive)
REMARK    1  A    between atoms: C_1  and  C_2
REMARK    2  A    between atoms: C_2  and  C_3
REMARK    3  A    between atoms: C_3  and  C_4
REMARK    4  A    between atoms: N_6  and  C_7
REMARK    5  A    between atoms: C_9  and  O_10
REMARK    6  A    between atoms: C_12  and  C_13
REMARK    7  A    between atoms: C_15  and  S_16
REMARK    8  A    between atoms: S_16  and  N_19
REMARK    9  A    between atoms: N_19  and  C_20
REMARK   10  A    between atoms: C_20  and  C_21
REMARK   11  A    between atoms: C_21  and  O_22
REMARK   12  A    between atoms: C_25  and  O_26
REMARK   13  A    between atoms: O_26  and  C_27
REMARK   14  A    between atoms: C_27  and  C_28
REMARK                            x       y       z     vdW  Elec       q    Type
REMARK                         _______ _______ _______ _____ _____    ______ ____
ROOT
ATOM      1  C   UNL     1       2.860   6.372  18.083  0.00  0.00    +0.000 A 
ATOM      2  C   UNL     1       4.062   6.335  17.320  0.00  0.00    +0.000 A 
ATOM      3  C   UNL     1       4.679   5.146  16.909  0.00  0.00    +0.000 A 
ATOM      4  C   UNL     1       4.102   3.934  17.250  0.00  0.00    +0.000 A 
ATOM      5  C   UNL     1       2.926   3.935  18.008  0.00  0.00    +0.000 A 
ATOM      6  C   UNL     1       2.297   5.127  18.441  0.00  0.00    +0.000 A 
ENDROOT
BRANCH   1  14
ATOM      7  C   UNL     1       0.619   9.565  20.978  0.00  0.00    +0.000 A 
ATOM      8  N   UNL     1       0.482  10.899  20.937  0.00  0.00    +0.000 NA
ATOM      9  N   UNL     1       1.055  11.248  19.762  0.00  0.00    +0.000 N 
ATOM     10  C   UNL     1       1.087  12.644  19.398  0.00  0.00    +0.000 C 
ATOM     11  C   UNL     1       1.586  10.196  19.069  0.00  0.00    +0.000 A 
ATOM     12  C   UNL     1       2.298  10.002  17.904  0.00  0.00    +0.000 A 
ATOM     13  N   UNL     1       2.711   8.762  17.595  0.00  0.00    +0.000 NA
ATOM     14  C   UNL     1       2.332   7.727  18.360  0.00  0.00    +0.000 A 
ATOM     15  N   UNL     1       1.588   7.828  19.472  0.00  0.00    +0.000 NA
ATOM     16  C   UNL     1       1.268   9.083  19.823  0.00  0.00    +0.000 A 
BRANCH  12  17
ATOM     17  O   UNL     1       2.649  10.969  17.003  0.00  0.00    +0.000 OA
ATOM     18  H   UNL     1       1.871  11.488  16.768  0.00  0.00    +0.000 HD
ENDBRANCH  12  17
BRANCH   7  19
ATOM     19  C   UNL     1       0.139   8.748  22.130  0.00  0.00    +0.000 C 
BRANCH  19  21
ATOM     20  C   UNL     1      -1.244  10.605  23.246  0.00  0.00    +0.000 C 
ATOM     21  C   UNL     1      -0.147   9.558  23.399  0.00  0.00    +0.000 C 
ENDBRANCH  19  21
ENDBRANCH   7  19
ENDBRANCH   1  14
BRANCH   3  22
ATOM     22  S   UNL     1       6.072   5.230  15.818  0.00  0.00    +0.000 S 
ATOM     23  O   UNL     1       6.415   3.871  15.462  0.00  0.00    +0.000 OA
ATOM     24  O   UNL     1       5.834   6.238  14.811  0.00  0.00    +0.000 OA
BRANCH  22  25
ATOM     25  N   UNL     1       7.340   5.771  16.797  0.00  0.00    +0.000 NA
ATOM     26  H   UNL     1       7.251   6.787  16.876  0.00  0.00    +0.000 HD
BRANCH  25  27
ATOM     27  C   UNL     1       7.552   5.057  18.076  0.00  0.00    +0.000 C 
BRANCH  27  28
ATOM     28  C   UNL     1       7.907   6.057  19.179  0.00  0.00    +0.000 C 
BRANCH  28  29
ATOM     29  O   UNL     1       7.950   5.410  20.452  0.00  0.00    +0.000 OA
ATOM     30  H   UNL     1       8.886   5.325  20.700  0.00  0.00    +0.000 HD
ENDBRANCH  28  29
ENDBRANCH  27  28
ENDBRANCH  25  27
ENDBRANCH  22  25
ENDBRANCH   3  22
BRANCH   6  31
ATOM     31  O   UNL     1       1.169   4.828  19.162  0.00  0.00    +0.000 OA
BRANCH  31  32
ATOM     32  C   UNL     1       1.234   3.932  20.264  0.00  0.00    +0.000 C 
ATOM     33  C   UNL     1       2.198   4.482  21.302  0.00  0.00    +0.000 C 
ENDBRANCH  31  32
ENDBRANCH   6  31
TORSDOF 11
ENDMDL
MODEL 3
REMARK VINA RESULT:      -7.4      1.324      1.421
REMARK  Name = 
REMARK  14 active torsions:
REMARK  status: ('A' for Active; 'I' for Inactive)
REMARK    1  A    between atoms: C_1  and  C_2
REMARK    2  A    between atoms: C_2  and  C_3
REMARK    3  A    between atoms: C_3  and  C_4
REMARK    4  A    between atoms: N_6  and  C_7
REMARK    5  A    between atoms: C_9  and  O_10
REMARK    6  A    between atoms: C_12  and  C_13
REMARK    7  A    between atoms: C_15  and  S_16
REMARK    8  A    between atoms: S_16  and  N_19
REMARK    9  A    between atoms: N_19  and  C_20
REMARK   10  A    between atoms: C_20  and  C_21
REMARK   11  A    between atoms: C_21  and  O_22
REMARK   12  A    between atoms: C_25  and  O_26
REMARK   13  A    between atoms: O_26  and  C_27
REMARK   14  A    between atoms: C_27  and  C_28
REMARK                            x       y       z     vdW  Elec       q    Type
REMARK                         _______ _______ _______ _____ _____    ______ ____
ROOT
ATOM      1  C   UNL     1       2.515   6.517  19.017  0.00  0.00    +0.000 A 
ATOM      2  C   UNL     1       3.501   6.761  18.018  0.00  0.00    +0.000 A 
ATOM      3  C   UNL     1       4.134   5.742  17.293  0.00  0.00    +0.000 A 
ATOM      4  C   UNL     1       3.793   4.423  17.545  0.00  0.00    +0.000 A 
ATOM      5  C   UNL     1       2.836   4.148  18.528  0.00  0.00    +0.000 A 
ATOM      6  C   UNL     1       2.196   5.166  19.277  0.00  0.00    +0.000 A 
ENDROOT
BRANCH   1  14
ATOM      7  C   UNL     1      -0.502  10.321  18.851  0.00  0.00    +0.000 A 
ATOM      8  N   UNL     1      -0.943  11.181  19.781  0.00  0.00    +0.000 NA
ATOM      9  N   UNL     1      -0.252  10.838  20.893  0.00  0.00    +0.000 N 
ATOM     10  C   UNL     1      -0.493  11.575  22.110  0.00  0.00    +0.000 C 
ATOM     11  C   UNL     1       0.584   9.770  20.720  0.00  0.00    +0.000 A 
ATOM     12  C   UNL     1       1.433   9.009  21.495  0.00  0.00    +0.000 A 
ATOM     13  N   UNL     1       2.050   7.954  20.937  0.00  0.00    +0.000 NA
ATOM     14  C   UNL     1       1.918   7.729  19.621  0.00  0.00    +0.000 A 
ATOM     15  N   UNL     1       1.160   8.461  18.790  0.00  0.00    +0.000 NA
ATOM     16  C   UNL     1       0.472   9.450  19.381  0.00  0.00    +0.000 A 
BRANCH  12  17
ATOM     17  O   UNL     1       1.718   9.212  22.817  0.00  0.00    +0.000 OA
ATOM     18  H   UNL     1       1.667   8.373  23.290  0.00  0.00    +0.000 HD
ENDBRANCH  12  17
BRANCH   7  19
ATOM     19  C   UNL     1      -1.019  10.323  17.452  0.00  0.00    +0.000 C 
BRANCH  19  21
ATOM     20  C   UNL     1      -2.985  10.924  15.910  0.00  0.00    +0.000 C 
ATOM     21  C   UNL     1      -2.312  11.123  17.262  0.00  0.00    +0.000 C 
ENDBRANCH  19  21
ENDBRANCH   7  19
ENDBRANCH   1  14
BRANCH   3  22
ATOM     22  S   UNL     1       5.213   6.178  15.958  0.00  0.00    +0.000 S 
ATOM     23  O   UNL     1       5.490   4.963  15.222  0.00  0.00    +0.000 OA
ATOM     24  O   UNL     1       4.711   7.361  15.300  0.00  0.00    +0.000 OA
BRANCH  22  25
ATOM     25  N   UNL     1       6.670   6.588  16.712  0.00  0.00    +0.000 NA
ATOM     26  H   UNL     1       6.789   7.598  16.614  0.00  0.00    +0.000 HD
BRANCH  25  27
ATOM     27  C   UNL     1       6.892   6.057  18.075  0.00  0.00    +0.000 C 
BRANCH  27  28
ATOM     28  C   UNL     1       7.665   4.738  18.002  0.00  0.00    +0.000 C 
BRANCH  28  29
ATOM     29  O   UNL     1       7.987   4.416  16.649  0.00  0.00    +0.000 OA
ATOM     30  H   UNL     1       8.684   5.029  16.364  0.00  0.00    +0.000 HD
ENDBRANCH  28  29
ENDBRANCH  27  28
ENDBRANCH  25  27
ENDBRANCH  22  25
ENDBRANCH   3  22
BRANCH   6  31
ATOM     31  O   UNL     1       1.311   4.609  20.164  0.00  0.00    +0.000 OA
BRANCH  31  32
ATOM     32  C   UNL     1       1.162   3.197  20.245  0.00  0.00    +0.000 C 
ATOM     33  C   UNL     1       1.552   2.730  21.637  0.00  0.00    +0.000 C 
ENDBRANCH  31  32
ENDBRANCH   6  31
TORSDOF 11
ENDMDL
MODEL 4
REMARK VINA RESULT:      -7.4      2.320      3.539
REMARK  Name = 
REMARK  14 active torsions:
REMARK  status: ('A' for Active; 'I' for Inactive)
REMARK    1  A    between atoms: C_1  and  C_2
REMARK    2  A    between atoms: C_2  and  C_3
REMARK    3  A    between atoms: C_3  and  C_4
REMARK    4  A    between atoms: N_6  and  C_7
REMARK    5  A    between atoms: C_9  and  O_10
REMARK    6  A    between atoms: C_12  and  C_13
REMARK    7  A    between atoms: C_15  and  S_16
REMARK    8  A    between atoms: S_16  and  N_19
REMARK    9  A    between atoms: N_19  and  C_20
REMARK   10  A    between atoms: C_20  and  C_21
REMARK   11  A    between atoms: C_21  and  O_22
REMARK   12  A    between atoms: C_25  and  O_26
REMARK   13  A    between atoms: O_26  and  C_27
REMARK   14  A    between atoms: C_27  and  C_28
REMARK                            x       y       z     vdW  Elec       q    Type
REMARK                         _______ _______ _______ _____ _____    ______ ____
ROOT
ATOM      1  C   UNL     1       3.141   6.663  18.259  0.00  0.00    +0.000 A 
ATOM      2  C   UNL     1       4.434   6.733  17.665  0.00  0.00    +0.000 A 
ATOM      3  C   UNL     1       5.209   5.605  17.368  0.00  0.00    +0.000 A 
ATOM      4  C   UNL     1       4.706   4.346  17.656  0.00  0.00    +0.000 A 
ATOM      5  C   UNL     1       3.444   4.243  18.250  0.00  0.00    +0.000 A 
ATOM      6  C   UNL     1       2.654   5.375  18.568  0.00  0.00    +0.000 A 
ENDROOT
BRANCH   1  14
ATOM      7  C   UNL     1       0.310   9.688  20.796  0.00  0.00    +0.000 A 
ATOM      8  N   UNL     1       0.047  11.000  20.693  0.00  0.00    +0.000 NA
ATOM      9  N   UNL     1       0.702  11.374  19.569  0.00  0.00    +0.000 N 
ATOM     10  C   UNL     1       0.635  12.755  19.159  0.00  0.00    +0.000 C 
ATOM     11  C   UNL     1       1.403  10.363  18.972  0.00  0.00    +0.000 A 
ATOM     12  C   UNL     1       2.247  10.212  17.892  0.00  0.00    +0.000 A 
ATOM     13  N   UNL     1       2.810   9.012  17.672  0.00  0.00    +0.000 NA
ATOM     14  C   UNL     1       2.457   7.965  18.433  0.00  0.00    +0.000 A 
ATOM     15  N   UNL     1       1.596   8.019  19.460  0.00  0.00    +0.000 NA
ATOM     16  C   UNL     1       1.119   9.244  19.730  0.00  0.00    +0.000 A 
BRANCH  12  17
ATOM     17  O   UNL     1       2.593  11.186  16.997  0.00  0.00    +0.000 OA
ATOM     18  H   UNL     1       2.699  12.025  17.459  0.00  0.00    +0.000 HD
ENDBRANCH  12  17
BRANCH   7  19
ATOM     19  C   UNL     1      -0.205   8.857  21.922  0.00  0.00    +0.000 C 
BRANCH  19  21
ATOM     20  C   UNL     1      -1.339  10.722  23.280  0.00  0.00    +0.000 C 
ATOM     21  C   UNL     1      -0.305   9.602  23.258  0.00  0.00    +0.000 C 
ENDBRANCH  19  21
ENDBRANCH   7  19
ENDBRANCH   1  14
BRANCH   3  22
ATOM     22  S   UNL     1       6.722   5.810  16.472  0.00  0.00    +0.000 S 
ATOM     23  O   UNL     1       7.715   4.979  17.118  0.00  0.00    +0.000 OA
ATOM     24  O   UNL     1       6.460   5.710  15.055  0.00  0.00    +0.000 OA
BRANCH  22  25
ATOM     25  N   UNL     1       7.190   7.402  16.796  0.00  0.00    +0.000 NA
ATOM     26  H   UNL     1       6.353   7.985  16.728  0.00  0.00    +0.000 HD
BRANCH  25  27
ATOM     27  C   UNL     1       8.015   7.626  18.004  0.00  0.00    +0.000 C 
BRANCH  27  28
ATOM     28  C   UNL     1       8.334   9.116  18.149  0.00  0.00    +0.000 C 
BRANCH  28  29
ATOM     29  O   UNL     1       9.108   9.355  19.325  0.00  0.00    +0.000 OA
ATOM     30  H   UNL     1      10.039   9.193  19.096  0.00  0.00    +0.000 HD
ENDBRANCH  28  29
ENDBRANCH  27  28
ENDBRANCH  25  27
ENDBRANCH  22  25
ENDBRANCH   3  22
BRANCH   6  31
ATOM     31  O   UNL     1       1.472   4.977  19.138  0.00  0.00    +0.000 OA
BRANCH  31  32
ATOM     32  C   UNL     1       1.418   4.622  20.514  0.00  0.00    +0.000 C 
ATOM     33  C   UNL     1       1.068   3.149  20.639  0.00  0.00    +0.000 C 
ENDBRANCH  31  32
ENDBRANCH   6  31
TORSDOF 11
ENDMDL
MODEL 5
REMARK VINA RESULT:      -7.4      2.046      2.960
REMARK  Name = 
REMARK  14 active torsions:
REMARK  status: ('A' for Active; 'I' for Inactive)
REMARK    1  A    between atoms: C_1  and  C_2
REMARK    2  A    between atoms: C_2  and  C_3
REMARK    3  A    between atoms: C_3  and  C_4
REMARK    4  A    between atoms: N_6  and  C_7
REMARK    5  A    between atoms: C_9  and  O_10
REMARK    6  A    between atoms: C_12  and  C_13
REMARK    7  A    between atoms: C_15  and  S_16
REMARK    8  A    between atoms: S_16  and  N_19
REMARK    9  A    between atoms: N_19  and  C_20
REMARK   10  A    between atoms: C_20  and  C_21
REMARK   11  A    between atoms: C_21  and  O_22
REMARK   12  A    between atoms: C_25  and  O_26
REMARK   13  A    between atoms: O_26  and  C_27
REMARK   14  A    between atoms: C_27  and  C_28
REMARK                            x       y       z     vdW  Elec       q    Type
REMARK                         _______ _______ _______ _____ _____    ______ ____
ROOT
ATOM      1  C   UNL     1       3.235   6.606  18.559  0.00  0.00    +0.000 A 
ATOM      2  C   UNL     1       4.485   6.671  17.878  0.00  0.00    +0.000 A 
ATOM      3  C   UNL     1       5.306   5.556  17.663  0.00  0.00    +0.000 A 
ATOM      4  C   UNL     1       4.895   4.317  18.128  0.00  0.00    +0.000 A 
ATOM      5  C   UNL     1       3.678   4.221  18.810  0.00  0.00    +0.000 A 
ATOM      6  C   UNL     1       2.843   5.340  19.045  0.00  0.00    +0.000 A 
ENDROOT
BRANCH   1  14
ATOM      7  C   UNL     1       0.141   9.626  20.774  0.00  0.00    +0.000 A 
ATOM      8  N   UNL     1      -0.172  10.917  20.585  0.00  0.00    +0.000 NA
ATOM      9  N   UNL     1       0.527  11.261  19.478  0.00  0.00    +0.000 N 
ATOM     10  C   UNL     1       0.422  12.615  18.991  0.00  0.00    +0.000 C 
ATOM     11  C   UNL     1       1.303  10.254  18.976  0.00  0.00    +0.000 A 
ATOM     12  C   UNL     1       2.210  10.085  17.951  0.00  0.00    +0.000 A 
ATOM     13  N   UNL     1       2.836   8.903  17.827  0.00  0.00    +0.000 NA
ATOM     14  C   UNL     1       2.487   7.882  18.624  0.00  0.00    +0.000 A 
ATOM     15  N   UNL     1       1.569   7.950  19.601  0.00  0.00    +0.000 NA
ATOM     16  C   UNL     1       1.026   9.164  19.778  0.00  0.00    +0.000 A 
BRANCH  12  17
ATOM     17  O   UNL     1       2.563  11.026  17.023  0.00  0.00    +0.000 OA
ATOM     18  H   UNL     1       3.047  10.603  16.305  0.00  0.00    +0.000 HD
ENDBRANCH  12  17
BRANCH   7  19
ATOM     19  C   UNL     1      -0.398   8.832  21.916  0.00  0.00    +0.000 C 
BRANCH  19  21
ATOM     20  C   UNL     1      -1.317  10.744  23.368  0.00  0.00    +0.000 C 
ATOM     21  C   UNL     1      -0.360   9.563  23.262  0.00  0.00    +0.000 C 
ENDBRANCH  19  21
ENDBRANCH   7  19
ENDBRANCH   1  14
BRANCH   3  22
ATOM     22  S   UNL     1       6.750   5.731  16.653  0.00  0.00    +0.000 S 
ATOM     23  O   UNL     1       7.208   7.096  16.800  0.00  0.00    +0.000 OA
ATOM     24  O   UNL     1       7.632   4.610  16.877  0.00  0.00    +0.000 OA
BRANCH  22  25
ATOM     25  N   UNL     1       6.170   5.621  15.069  0.00  0.00    +0.000 NA
ATOM     26  H   UNL     1       6.059   6.575  14.718  0.00  0.00    +0.000 HD
BRANCH  25  27
ATOM     27  C   UNL     1       6.877   4.694  14.158  0.00  0.00    +0.000 C 
BRANCH  27  28
ATOM     28  C   UNL     1       5.868   3.787  13.449  0.00  0.00    +0.000 C 
BRANCH  28  29
ATOM     29  O   UNL     1       6.524   2.951  12.495  0.00  0.00    +0.000 OA
ATOM     30  H   UNL     1       6.610   2.070  12.895  0.00  0.00    +0.000 HD
ENDBRANCH  28  29
ENDBRANCH  27  28
ENDBRANCH  25  27
ENDBRANCH  22  25
ENDBRANCH   3  22
BRANCH   6  31
ATOM     31  O   UNL     1       1.722   4.952  19.734  0.00  0.00    +0.000 OA
BRANCH  31  32
ATOM     32  C   UNL     1       1.223   3.627  19.613  0.00  0.00    +0.000 C 
ATOM     33  C   UNL     1       1.162   2.985  20.988  0.00  0.00    +0.000 C 
ENDBRANCH  31  32
ENDBRANCH   6  31
TORSDOF 11
ENDMDL
MODEL 6
REMARK VINA RESULT:      -7.3      1.450      1.899
REMARK  Name = 
REMARK  14 active torsions:
REMARK  status: ('A' for Active; 'I' for Inactive)
REMARK    1  A    between atoms: C_1  and  C_2
REMARK    2  A    between atoms: C_2  and  C_3
REMARK    3  A    between atoms: C_3  and  C_4
REMARK    4  A    between atoms: N_6  and  C_7
REMARK    5  A    between atoms: C_9  and  O_10
REMARK    6  A    between atoms: C_12  and  C_13
REMARK    7  A    between atoms: C_15  and  S_16
REMARK    8  A    between atoms: S_16  and  N_19
REMARK    9  A    between atoms: N_19  and  C_20
REMARK   10  A    between atoms: C_20  and  C_21
REMARK   11  A    between atoms: C_21  and  O_22
REMARK   12  A    between atoms: C_25  and  O_26
REMARK   13  A    between atoms: O_26  and  C_27
REMARK   14  A    between atoms: C_27  and  C_28
REMARK                            x       y       z     vdW  Elec       q    Type
REMARK                         _______ _______ _______ _____ _____    ______ ____
ROOT
ATOM      1  C   UNL     1       2.748   6.321  18.581  0.00  0.00    +0.000 A 
ATOM      2  C   UNL     1       3.984   6.609  17.935  0.00  0.00    +0.000 A 
ATOM      3  C   UNL     1       4.707   5.665  17.194  0.00  0.00    +0.000 A 
ATOM      4  C   UNL     1       4.206   4.379  17.070  0.00  0.00    +0.000 A 
ATOM      5  C   UNL     1       2.999   4.060  17.702  0.00  0.00    +0.000 A 
ATOM      6  C   UNL     1       2.264   5.000  18.464  0.00  0.00    +0.000 A 
ENDROOT
BRANCH   1  14
ATOM      7  C   UNL     1      -0.394  10.025  18.641  0.00  0.00    +0.000 A 
ATOM      8  N   UNL     1      -0.868  10.809  19.622  0.00  0.00    +0.000 NA
ATOM      9  N   UNL     1      -0.170  10.418  20.714  0.00  0.00    +0.000 N 
ATOM     10  C   UNL     1      -0.441  11.067  21.974  0.00  0.00    +0.000 C 
ATOM     11  C   UNL     1       0.702   9.392  20.478  0.00  0.00    +0.000 A 
ATOM     12  C   UNL     1       1.574   8.612  21.208  0.00  0.00    +0.000 A 
ATOM     13  N   UNL     1       2.228   7.616  20.587  0.00  0.00    +0.000 NA
ATOM     14  C   UNL     1       2.108   7.471  19.259  0.00  0.00    +0.000 A 
ATOM     15  N   UNL     1       1.330   8.230  18.472  0.00  0.00    +0.000 NA
ATOM     16  C   UNL     1       0.606   9.155  19.121  0.00  0.00    +0.000 A 
BRANCH  12  17
ATOM     17  O   UNL     1       1.846   8.739  22.542  0.00  0.00    +0.000 OA
ATOM     18  H   UNL     1       2.037   7.871  22.915  0.00  0.00    +0.000 HD
ENDBRANCH  12  17
BRANCH   7  19
ATOM     19  C   UNL     1      -0.906  10.100  17.242  0.00  0.00    +0.000 C 
BRANCH  19  21
ATOM     20  C   UNL     1      -3.009  10.740  15.910  0.00  0.00    +0.000 C 
ATOM     21  C   UNL     1      -2.433  10.028  17.128  0.00  0.00    +0.000 C 
ENDBRANCH  19  21
ENDBRANCH   7  19
ENDBRANCH   1  14
BRANCH   3  22
ATOM     22  S   UNL     1       6.138   6.189  16.294  0.00  0.00    +0.000 S 
ATOM     23  O   UNL     1       5.941   5.794  14.915  0.00  0.00    +0.000 OA
ATOM     24  O   UNL     1       6.459   7.551  16.650  0.00  0.00    +0.000 OA
BRANCH  22  25
ATOM     25  N   UNL     1       7.382   5.200  16.870  0.00  0.00    +0.000 NA
ATOM     26  H   UNL     1       8.267   5.626  16.584  0.00  0.00    +0.000 HD
BRANCH  25  27
ATOM     27  C   UNL     1       7.311   4.791  18.291  0.00  0.00    +0.000 C 
BRANCH  27  28
ATOM     28  C   UNL     1       7.930   5.875  19.177  0.00  0.00    +0.000 C 
BRANCH  28  29
ATOM     29  O   UNL     1       8.048   5.419  20.525  0.00  0.00    +0.000 OA
ATOM     30  H   UNL     1       7.155   5.190  20.831  0.00  0.00    +0.000 HD
ENDBRANCH  28  29
ENDBRANCH  27  28
ENDBRANCH  25  27
ENDBRANCH  22  25
ENDBRANCH   3  22
BRANCH   6  31
ATOM     31  O   UNL     1       1.129   4.413  18.964  0.00  0.00    +0.000 OA
BRANCH  31  32
ATOM     32  C   UNL     1       0.986   4.193  20.361  0.00  0.00    +0.000 C 
ATOM     33  C   UNL     1       1.421   2.776  20.693  0.00  0.00    +0.000 C 
ENDBRANCH  31  32
ENDBRANCH   6  31
TORSDOF 11
ENDMDL
MODEL 7
REMARK VINA RESULT:      -7.2      2.067      3.049
REMARK  Name = 
REMARK  14 active torsions:
REMARK  status: ('A' for Active; 'I' for Inactive)
REMARK    1  A    between atoms: C_1  and  C_2
REMARK    2  A    between atoms: C_2  and  C_3
REMARK    3  A    between atoms: C_3  and  C_4
REMARK    4  A    between atoms: N_6  and  C_7
REMARK    5  A    between atoms: C_9  and  O_10
REMARK    6  A    between atoms: C_12  and  C_13
REMARK    7  A    between atoms: C_15  and  S_16
REMARK    8  A    between atoms: S_16  and  N_19
REMARK    9  A    between atoms: N_19  and  C_20
REMARK   10  A    between atoms: C_20  and  C_21
REMARK   11  A    between atoms: C_21  and  O_22
REMARK   12  A    between atoms: C_25  and  O_26
REMARK   13  A    between atoms: O_26  and  C_27
REMARK   14  A    between atoms: C_27  and  C_28
REMARK                            x       y       z     vdW  Elec       q    Type
REMARK                         _______ _______ _______ _____ _____    ______ ____
ROOT
ATOM      1  C   UNL     1       3.250   6.165  19.123  0.00  0.00    +0.000 A 
ATOM      2  C   UNL     1       4.633   6.296  18.806  0.00  0.00    +0.000 A 
ATOM      3  C   UNL     1       5.526   5.217  18.785  0.00  0.00    +0.000 A 
ATOM      4  C   UNL     1       5.056   3.948  19.082  0.00  0.00    +0.000 A 
ATOM      5  C   UNL     1       3.705   3.786  19.408  0.00  0.00    +0.000 A 
ATOM      6  C   UNL     1       2.794   4.869  19.445  0.00  0.00    +0.000 A 
ENDROOT
BRANCH   1  14
ATOM      7  C   UNL     1       0.120   9.387  20.974  0.00  0.00    +0.000 A 
ATOM      8  N   UNL     1      -0.242  10.626  20.608  0.00  0.00    +0.000 NA
ATOM      9  N   UNL     1       0.412  10.823  19.440  0.00  0.00    +0.000 N 
ATOM     10  C   UNL     1       0.247  12.086  18.762  0.00  0.00    +0.000 C 
ATOM     11  C   UNL     1       1.207   9.776  19.065  0.00  0.00    +0.000 A 
ATOM     12  C   UNL     1       2.089   9.485  18.046  0.00  0.00    +0.000 A 
ATOM     13  N   UNL     1       2.751   8.316  18.076  0.00  0.00    +0.000 NA
ATOM     14  C   UNL     1       2.461   7.414  19.026  0.00  0.00    +0.000 A 
ATOM     15  N   UNL     1       1.570   7.599  20.012  0.00  0.00    +0.000 NA
ATOM     16  C   UNL     1       0.991   8.809  20.027  0.00  0.00    +0.000 A 
BRANCH  12  17
ATOM     17  O   UNL     1       2.382  10.288  16.979  0.00  0.00    +0.000 OA
ATOM     18  H   UNL     1       2.609   9.741  16.218  0.00  0.00    +0.000 HD
ENDBRANCH  12  17
BRANCH   7  19
ATOM     19  C   UNL     1      -0.359   8.755  22.237  0.00  0.00    +0.000 C 
BRANCH  19  21
ATOM     20  C   UNL     1      -1.375  10.836  23.352  0.00  0.00    +0.000 C 
ATOM     21  C   UNL     1      -0.368   9.697  23.446  0.00  0.00    +0.000 C 
ENDBRANCH  19  21
ENDBRANCH   7  19
ENDBRANCH   1  14
BRANCH   3  22
ATOM     22  S   UNL     1       7.179   5.478  18.207  0.00  0.00    +0.000 S 
ATOM     23  O   UNL     1       7.198   6.762  17.541  0.00  0.00    +0.000 OA
ATOM     24  O   UNL     1       8.113   5.161  19.262  0.00  0.00    +0.000 OA
BRANCH  22  25
ATOM     25  N   UNL     1       7.380   4.332  16.980  0.00  0.00    +0.000 NA
ATOM     26  H   UNL     1       7.725   3.475  17.418  0.00  0.00    +0.000 HD
BRANCH  25  27
ATOM     27  C   UNL     1       6.252   4.149  16.041  0.00  0.00    +0.000 C 
BRANCH  27  28
ATOM     28  C   UNL     1       6.568   4.830  14.707  0.00  0.00    +0.000 C 
BRANCH  28  29
ATOM     29  O   UNL     1       7.859   5.439  14.744  0.00  0.00    +0.000 OA
ATOM     30  H   UNL     1       8.258   5.324  13.865  0.00  0.00    +0.000 HD
ENDBRANCH  28  29
ENDBRANCH  27  28
ENDBRANCH  25  27
ENDBRANCH  22  25
ENDBRANCH   3  22
BRANCH   6  31
ATOM     31  O   UNL     1       1.545   4.419  19.793  0.00  0.00    +0.000 OA
BRANCH  31  32
ATOM     32  C   UNL     1       1.321   3.038  20.048  0.00  0.00    +0.000 C 
ATOM     33  C   UNL     1       0.610   2.417  18.857  0.00  0.00    +0.000 C 
ENDBRANCH  31  32
ENDBRANCH   6  31
TORSDOF 11
ENDMDL
MODEL 8
REMARK VINA RESULT:      -7.1      1.482      2.024
REMARK  Name = 
REMARK  14 active torsions:
REMARK  status: ('A' for Active; 'I' for Inactive)
REMARK    1  A    between atoms: C_1  and  C_2
REMARK    2  A    between atoms: C_2  and  C_3
REMARK    3  A    between atoms: C_3  and  C_4
REMARK    4  A    between atoms: N_6  and  C_7
REMARK    5  A    between atoms: C_9  and  O_10
REMARK    6  A    between atoms: C_12  and  C_13
REMARK    7  A    between atoms: C_15  and  S_16
REMARK    8  A    between atoms: S_16  and  N_19
REMARK    9  A    between atoms: N_19  and  C_20
REMARK   10  A    between atoms: C_20  and  C_21
REMARK   11  A    between atoms: C_21  and  O_22
REMARK   12  A    between atoms: C_25  and  O_26
REMARK   13  A    between atoms: O_26  and  C_27
REMARK   14  A    between atoms: C_27  and  C_28
REMARK                            x       y       z     vdW  Elec       q    Type
REMARK                         _______ _______ _______ _____ _____    ______ ____
ROOT
ATOM      1  C   UNL     1       2.572   6.504  18.992  0.00  0.00    +0.000 A 
ATOM      2  C   UNL     1       3.720   6.760  18.189  0.00  0.00    +0.000 A 
ATOM      3  C   UNL     1       4.401   5.765  17.476  0.00  0.00    +0.000 A 
ATOM      4  C   UNL     1       3.947   4.457  17.542  0.00  0.00    +0.000 A 
ATOM      5  C   UNL     1       2.828   4.170  18.331  0.00  0.00    +0.000 A 
ATOM      6  C   UNL     1       2.137   5.163  19.067  0.00  0.00    +0.000 A 
ENDROOT
BRANCH   1  14
ATOM      7  C   UNL     1      -0.485  10.277  18.865  0.00  0.00    +0.000 A 
ATOM      8  N   UNL     1      -0.942  11.118  19.806  0.00  0.00    +0.000 NA
ATOM      9  N   UNL     1      -0.255  10.764  20.917  0.00  0.00    +0.000 N 
ATOM     10  C   UNL     1      -0.513  11.479  22.144  0.00  0.00    +0.000 C 
ATOM     11  C   UNL     1       0.594   9.708  20.734  0.00  0.00    +0.000 A 
ATOM     12  C   UNL     1       1.446   8.945  21.502  0.00  0.00    +0.000 A 
ATOM     13  N   UNL     1       2.079   7.905  20.932  0.00  0.00    +0.000 NA
ATOM     14  C   UNL     1       1.957   7.700  19.612  0.00  0.00    +0.000 A 
ATOM     15  N   UNL     1       1.198   8.437  18.788  0.00  0.00    +0.000 NA
ATOM     16  C   UNL     1       0.495   9.408  19.389  0.00  0.00    +0.000 A 
BRANCH  12  17
ATOM     17  O   UNL     1       1.720   9.129  22.830  0.00  0.00    +0.000 OA
ATOM     18  H   UNL     1       2.643   8.914  23.001  0.00  0.00    +0.000 HD
ENDBRANCH  12  17
BRANCH   7  19
ATOM     19  C   UNL     1      -0.993  10.295  17.463  0.00  0.00    +0.000 C 
BRANCH  19  21
ATOM     20  C   UNL     1      -2.981   9.803  15.911  0.00  0.00    +0.000 C 
ATOM     21  C   UNL     1      -2.498  10.035  17.337  0.00  0.00    +0.000 C 
ENDBRANCH  19  21
ENDBRANCH   7  19
ENDBRANCH   1  14
BRANCH   3  22
ATOM     22  S   UNL     1       5.706   6.233  16.375  0.00  0.00    +0.000 S 
ATOM     23  O   UNL     1       6.747   5.236  16.500  0.00  0.00    +0.000 OA
ATOM     24  O   UNL     1       5.149   6.585  15.089  0.00  0.00    +0.000 OA
BRANCH  22  25
ATOM     25  N   UNL     1       6.348   7.640  17.059  0.00  0.00    +0.000 NA
ATOM     26  H   UNL     1       5.667   7.986  17.739  0.00  0.00    +0.000 HD
BRANCH  25  27
ATOM     27  C   UNL     1       7.744   7.573  17.545  0.00  0.00    +0.000 C 
BRANCH  27  28
ATOM     28  C   UNL     1       8.202   8.959  18.008  0.00  0.00    +0.000 C 
BRANCH  28  29
ATOM     29  O   UNL     1       8.975   8.861  19.204  0.00  0.00    +0.000 OA
ATOM     30  H   UNL     1       9.834   8.474  18.963  0.00  0.00    +0.000 HD
ENDBRANCH  28  29
ENDBRANCH  27  28
ENDBRANCH  25  27
ENDBRANCH  22  25
ENDBRANCH   3  22
BRANCH   6  31
ATOM     31  O   UNL     1       1.087   4.598  19.746  0.00  0.00    +0.000 OA
BRANCH  31  32
ATOM     32  C   UNL     1       1.183   3.272  20.249  0.00  0.00    +0.000 C 
ATOM     33  C   UNL     1       1.905   3.292  21.586  0.00  0.00    +0.000 C 
ENDBRANCH  31  32
ENDBRANCH   6  31
TORSDOF 11
ENDMDL
MODEL 9
REMARK VINA RESULT:      -7.1      3.203      7.793
REMARK  Name = 
REMARK  14 active torsions:
REMARK  status: ('A' for Active; 'I' for Inactive)
REMARK    1  A    between atoms: C_1  and  C_2
REMARK    2  A    between atoms: C_2  and  C_3
REMARK    3  A    between atoms: C_3  and  C_4
REMARK    4  A    between atoms: N_6  and  C_7
REMARK    5  A    between atoms: C_9  and  O_10
REMARK    6  A    between atoms: C_12  and  C_13
REMARK    7  A    between atoms: C_15  and  S_16
REMARK    8  A    between atoms: S_16  and  N_19
REMARK    9  A    between atoms: N_19  and  C_20
REMARK   10  A    between atoms: C_20  and  C_21
REMARK   11  A    between atoms: C_21  and  O_22
REMARK   12  A    between atoms: C_25  and  O_26
REMARK   13  A    between atoms: O_26  and  C_27
REMARK   14  A    between atoms: C_27  and  C_28
REMARK                            x       y       z     vdW  Elec       q    Type
REMARK                         _______ _______ _______ _____ _____    ______ ____
ROOT
ATOM      1  C   UNL     1       2.384   7.254  19.144  0.00  0.00    +0.000 A 
ATOM      2  C   UNL     1       1.929   8.545  18.752  0.00  0.00    +0.000 A 
ATOM      3  C   UNL     1       1.058   9.324  19.526  0.00  0.00    +0.000 A 
ATOM      4  C   UNL     1       0.610   8.830  20.740  0.00  0.00    +0.000 A 
ATOM      5  C   UNL     1       1.029   7.560  21.149  0.00  0.00    +0.000 A 
ATOM      6  C   UNL     1       1.899   6.756  20.373  0.00  0.00    +0.000 A 
ENDROOT
BRANCH   1  14
ATOM      7  C   UNL     1       6.720   7.099  16.959  0.00  0.00    +0.000 A 
ATOM      8  N   UNL     1       7.356   6.153  16.251  0.00  0.00    +0.000 NA
ATOM      9  N   UNL     1       6.442   5.160  16.144  0.00  0.00    +0.000 N 
ATOM     10  C   UNL     1       6.809   3.961  15.431  0.00  0.00    +0.000 C 
ATOM     11  C   UNL     1       5.265   5.418  16.789  0.00  0.00    +0.000 A 
ATOM     12  C   UNL     1       4.078   4.761  17.036  0.00  0.00    +0.000 A 
ATOM     13  N   UNL     1       3.153   5.360  17.804  0.00  0.00    +0.000 NA
ATOM     14  C   UNL     1       3.352   6.620  18.220  0.00  0.00    +0.000 A 
ATOM     15  N   UNL     1       4.452   7.346  17.967  0.00  0.00    +0.000 NA
ATOM     16  C   UNL     1       5.408   6.699  17.284  0.00  0.00    +0.000 A 
BRANCH  12  17
ATOM     17  O   UNL     1       3.732   3.520  16.577  0.00  0.00    +0.000 OA
ATOM     18  H   UNL     1       4.509   3.085  16.207  0.00  0.00    +0.000 HD
ENDBRANCH  12  17
BRANCH   7  19
ATOM     19  C   UNL     1       7.372   8.386  17.337  0.00  0.00    +0.000 C 
BRANCH  19  21
ATOM     20  C   UNL     1       8.993   9.584  18.932  0.00  0.00    +0.000 C 
ATOM     21  C   UNL     1       8.413   8.259  18.455  0.00  0.00    +0.000 C 
ENDBRANCH  19  21
ENDBRANCH   7  19
ENDBRANCH   1  14
BRANCH   3  22
ATOM     22  S   UNL     1       0.703  10.982  19.016  0.00  0.00    +0.000 S 
ATOM     23  O   UNL     1      -0.042  11.606  20.089  0.00  0.00    +0.000 OA
ATOM     24  O   UNL     1       1.899  11.587  18.477  0.00  0.00    +0.000 OA
BRANCH  22  25
ATOM     25  N   UNL     1      -0.401  10.805  17.748  0.00  0.00    +0.000 NA
ATOM     26  H   UNL     1      -0.313   9.847  17.400  0.00  0.00    +0.000 HD
BRANCH  25  27
ATOM     27  C   UNL     1      -1.786  11.261  17.995  0.00  0.00    +0.000 C 
BRANCH  27  28
ATOM     28  C   UNL     1      -2.762  10.099  17.792  0.00  0.00    +0.000 C 
BRANCH  28  29
ATOM     29  O   UNL     1      -3.735  10.424  16.800  0.00  0.00    +0.000 OA
ATOM     30  H   UNL     1      -3.844   9.641  16.234  0.00  0.00    +0.000 HD
ENDBRANCH  28  29
ENDBRANCH  27  28
ENDBRANCH  25  27
ENDBRANCH  22  25
ENDBRANCH   3  22
BRANCH   6  31
ATOM     31  O   UNL     1       2.139   5.568  21.016  0.00  0.00    +0.000 OA
BRANCH  31  32
ATOM     32  C   UNL     1       1.375   4.411  20.703  0.00  0.00    +0.000 C 
ATOM     33  C   UNL     1       1.864   3.243  21.542  0.00  0.00    +0.000 C 
ENDBRANCH  31  32
ENDBRANCH   6  31
TORSDOF 11
ENDMDL
