MODEL 1
REMARK VINA RESULT:      -8.6      0.000      0.000
REMARK  Name = 
REMARK  5 active torsions:
REMARK  status: ('A' for Active; 'I' for Inactive)
REMARK    1  A    between atoms: C_1  and  C_2
REMARK    2  A    between atoms: N_4  and  C_5
REMARK    3  A    between atoms: C_13  and  N_14
REMARK    4  A    between atoms: N_15  and  C_16
REMARK    5  A    between atoms: C_21  and  C_22
REMARK                            x       y       z     vdW  Elec       q    Type
REMARK                         _______ _______ _______ _____ _____    ______ ____
ROOT
ATOM      1  N   UNL     1       2.425   6.612  20.080  0.00  0.00    +0.000 NA
ATOM      2  N   UNL     1       1.950   5.613  19.485  0.00  0.00    +0.000 NA
ENDROOT
BRANCH   1   9
ATOM      3  C   UNL     1       3.117   8.110  17.432  0.00  0.00    +0.000 C 
ATOM      4  C   UNL     1       2.149   8.479  18.505  0.00  0.00    +0.000 A 
ATOM      5  N   UNL     1       1.388   9.644  18.404  0.00  0.00    +0.000 N 
ATOM      6  N   UNL     1       0.752   9.799  19.642  0.00  0.00    +0.000 N 
ATOM      7  C   UNL     1       1.071   8.716  20.465  0.00  0.00    +0.000 A 
ATOM      8  O   UNL     1       0.757   8.519  21.631  0.00  0.00    +0.000 OA
ATOM      9  C   UNL     1       1.928   7.807  19.650  0.00  0.00    +0.000 A 
ATOM     10  H   UNL     1       1.944  10.456  18.132  0.00  0.00    +0.000 HD
BRANCH   6  11
ATOM     11  C   UNL     1      -0.221  10.794  19.863  0.00  0.00    +0.000 A 
ATOM     12  C   UNL     1      -1.365  10.876  19.056  0.00  0.00    +0.000 A 
ATOM     13  C   UNL     1      -2.298  11.901  19.226  0.00  0.00    +0.000 A 
ATOM     14  C   UNL     1      -2.094  12.869  20.202  0.00  0.00    +0.000 A 
ATOM     15  C   UNL     1      -0.971  12.798  21.022  0.00  0.00    +0.000 A 
ATOM     16  C   UNL     1      -0.045  11.760  20.864  0.00  0.00    +0.000 A 
ENDBRANCH   6  11
ENDBRANCH   1   9
BRANCH   2  17
ATOM     17  C   UNL     1       2.420   4.387  20.013  0.00  0.00    +0.000 A 
ATOM     18  C   UNL     1       1.841   3.873  21.196  0.00  0.00    +0.000 A 
ATOM     19  C   UNL     1       2.272   2.677  21.765  0.00  0.00    +0.000 A 
ATOM     20  C   UNL     1       3.333   1.995  21.194  0.00  0.00    +0.000 A 
ATOM     21  C   UNL     1       3.930   2.493  20.037  0.00  0.00    +0.000 A 
ATOM     22  C   UNL     1       3.421   3.621  19.369  0.00  0.00    +0.000 A 
BRANCH  22  23
ATOM     23  C   UNL     1       4.000   4.020  18.036  0.00  0.00    +0.000 C 
ATOM     24  O   UNL     1       3.422   3.620  17.024  0.00  0.00    +0.000 OA
ATOM     25  N   UNL     1       5.155   4.851  17.943  0.00  0.00    +0.000 N 
ATOM     26  C   UNL     1       5.451   5.416  16.621  0.00  0.00    +0.000 C 
ATOM     27  C   UNL     1       6.942   5.663  16.397  0.00  0.00    +0.000 C 
ATOM     28  C   UNL     1       7.544   6.513  17.507  0.00  0.00    +0.000 C 
ATOM     29  C   UNL     1       7.278   5.877  18.860  0.00  0.00    +0.000 C 
ATOM     30  C   UNL     1       5.809   5.525  19.068  0.00  0.00    +0.000 C 
ENDBRANCH  22  23
ENDBRANCH   2  17
TORSDOF 4
ENDMDL
MODEL 2
REMARK VINA RESULT:      -8.5      1.010      1.049
REMARK  Name = 
REMARK  5 active torsions:
REMARK  status: ('A' for Active; 'I' for Inactive)
REMARK    1  A    between atoms: C_1  and  C_2
REMARK    2  A    between atoms: N_4  and  C_5
REMARK    3  A    between atoms: C_13  and  N_14
REMARK    4  A    between atoms: N_15  and  C_16
REMARK    5  A    between atoms: C_21  and  C_22
REMARK                            x       y       z     vdW  Elec       q    Type
REMARK                         _______ _______ _______ _____ _____    ______ ____
ROOT
ATOM      1  N   UNL     1       2.467   6.490  19.870  0.00  0.00    +0.000 NA
ATOM      2  N   UNL     1       2.152   5.467  19.211  0.00  0.00    +0.000 NA
ENDROOT
BRANCH   1   9
ATOM      3  C   UNL     1       3.680   7.488  17.175  0.00  0.00    +0.000 C 
ATOM      4  C   UNL     1       2.662   8.133  18.053  0.00  0.00    +0.000 A 
ATOM      5  N   UNL     1       2.104   9.364  17.706  0.00  0.00    +0.000 N 
ATOM      6  N   UNL     1       1.360   9.778  18.818  0.00  0.00    +0.000 N 
ATOM      7  C   UNL     1       1.413   8.790  19.805  0.00  0.00    +0.000 A 
ATOM      8  O   UNL     1       0.940   8.806  20.933  0.00  0.00    +0.000 OA
ATOM      9  C   UNL     1       2.210   7.668  19.232  0.00  0.00    +0.000 A 
ATOM     10  H   UNL     1       2.805  10.046  17.413  0.00  0.00    +0.000 HD
BRANCH   6  11
ATOM     11  C   UNL     1       0.531  10.917  18.780  0.00  0.00    +0.000 A 
ATOM     12  C   UNL     1      -0.866  10.793  18.783  0.00  0.00    +0.000 A 
ATOM     13  C   UNL     1      -1.692  11.914  18.676  0.00  0.00    +0.000 A 
ATOM     14  C   UNL     1      -1.131  13.179  18.553  0.00  0.00    +0.000 A 
ATOM     15  C   UNL     1       0.254  13.325  18.561  0.00  0.00    +0.000 A 
ATOM     16  C   UNL     1       1.081  12.203  18.687  0.00  0.00    +0.000 A 
ENDBRANCH   6  11
ENDBRANCH   1   9
BRANCH   2  17
ATOM     17  C   UNL     1       2.348   4.267  19.935  0.00  0.00    +0.000 A 
ATOM     18  C   UNL     1       1.524   3.984  21.048  0.00  0.00    +0.000 A 
ATOM     19  C   UNL     1       1.680   2.824  21.802  0.00  0.00    +0.000 A 
ATOM     20  C   UNL     1       2.705   1.945  21.493  0.00  0.00    +0.000 A 
ATOM     21  C   UNL     1       3.541   2.214  20.411  0.00  0.00    +0.000 A 
ATOM     22  C   UNL     1       3.313   3.305  19.554  0.00  0.00    +0.000 A 
BRANCH  22  23
ATOM     23  C   UNL     1       4.144   3.456  18.305  0.00  0.00    +0.000 C 
ATOM     24  O   UNL     1       3.784   2.832  17.306  0.00  0.00    +0.000 OA
ATOM     25  N   UNL     1       5.287   4.307  18.269  0.00  0.00    +0.000 N 
ATOM     26  C   UNL     1       5.838   4.608  16.942  0.00  0.00    +0.000 C 
ATOM     27  C   UNL     1       7.341   4.879  16.966  0.00  0.00    +0.000 C 
ATOM     28  C   UNL     1       7.701   5.964  17.971  0.00  0.00    +0.000 C 
ATOM     29  C   UNL     1       7.175   5.601  19.348  0.00  0.00    +0.000 C 
ATOM     30  C   UNL     1       5.697   5.225  19.335  0.00  0.00    +0.000 C 
ENDBRANCH  22  23
ENDBRANCH   2  17
TORSDOF 4
ENDMDL
MODEL 3
REMARK VINA RESULT:      -8.3      1.933      4.300
REMARK  Name = 
REMARK  5 active torsions:
REMARK  status: ('A' for Active; 'I' for Inactive)
REMARK    1  A    between atoms: C_1  and  C_2
REMARK    2  A    between atoms: N_4  and  C_5
REMARK    3  A    between atoms: C_13  and  N_14
REMARK    4  A    between atoms: N_15  and  C_16
REMARK    5  A    between atoms: C_21  and  C_22
REMARK                            x       y       z     vdW  Elec       q    Type
REMARK                         _______ _______ _______ _____ _____    ______ ____
ROOT
ATOM      1  N   UNL     1       2.796   6.996  17.877  0.00  0.00    +0.000 NA
ATOM      2  N   UNL     1       4.030   6.856  18.069  0.00  0.00    +0.000 NA
ENDROOT
BRANCH   1   9
ATOM      3  C   UNL     1       1.719   6.479  20.759  0.00  0.00    +0.000 C 
ATOM      4  C   UNL     1       1.757   7.747  19.974  0.00  0.00    +0.000 A 
ATOM      5  N   UNL     1       1.268   8.934  20.520  0.00  0.00    +0.000 N 
ATOM      6  N   UNL     1       1.260   9.866  19.475  0.00  0.00    +0.000 N 
ATOM      7  C   UNL     1       1.791   9.275  18.325  0.00  0.00    +0.000 A 
ATOM      8  O   UNL     1       1.898   9.746  17.201  0.00  0.00    +0.000 OA
ATOM      9  C   UNL     1       2.198   7.894  18.712  0.00  0.00    +0.000 A 
ATOM     10  H   UNL     1       0.356   8.818  20.964  0.00  0.00    +0.000 HD
BRANCH   6  11
ATOM     11  C   UNL     1       0.964  11.226  19.689  0.00  0.00    +0.000 A 
ATOM     12  C   UNL     1      -0.164  11.612  20.429  0.00  0.00    +0.000 A 
ATOM     13  C   UNL     1      -0.501  12.957  20.586  0.00  0.00    +0.000 A 
ATOM     14  C   UNL     1       0.283  13.942  19.995  0.00  0.00    +0.000 A 
ATOM     15  C   UNL     1       1.415  13.580  19.268  0.00  0.00    +0.000 A 
ATOM     16  C   UNL     1       1.762  12.232  19.126  0.00  0.00    +0.000 A 
ENDBRANCH   6  11
ENDBRANCH   1   9
BRANCH   2  17
ATOM     17  C   UNL     1       4.634   5.985  17.131  0.00  0.00    +0.000 A 
ATOM     18  C   UNL     1       5.055   6.495  15.881  0.00  0.00    +0.000 A 
ATOM     19  C   UNL     1       5.646   5.681  14.918  0.00  0.00    +0.000 A 
ATOM     20  C   UNL     1       5.778   4.324  15.162  0.00  0.00    +0.000 A 
ATOM     21  C   UNL     1       5.354   3.798  16.381  0.00  0.00    +0.000 A 
ATOM     22  C   UNL     1       4.885   4.623  17.419  0.00  0.00    +0.000 A 
BRANCH  22  23
ATOM     23  C   UNL     1       4.595   4.024  18.771  0.00  0.00    +0.000 C 
ATOM     24  O   UNL     1       5.532   3.942  19.567  0.00  0.00    +0.000 OA
ATOM     25  N   UNL     1       3.285   3.592  19.131  0.00  0.00    +0.000 N 
ATOM     26  C   UNL     1       3.056   3.308  20.552  0.00  0.00    +0.000 C 
ATOM     27  C   UNL     1       1.983   2.246  20.784  0.00  0.00    +0.000 C 
ATOM     28  C   UNL     1       0.682   2.596  20.076  0.00  0.00    +0.000 C 
ATOM     29  C   UNL     1       0.934   2.825  18.596  0.00  0.00    +0.000 C 
ATOM     30  C   UNL     1       2.072   3.805  18.336  0.00  0.00    +0.000 C 
ENDBRANCH  22  23
ENDBRANCH   2  17
TORSDOF 4
ENDMDL
MODEL 4
REMARK VINA RESULT:      -8.0      1.252      1.445
REMARK  Name = 
REMARK  5 active torsions:
REMARK  status: ('A' for Active; 'I' for Inactive)
REMARK    1  A    between atoms: C_1  and  C_2
REMARK    2  A    between atoms: N_4  and  C_5
REMARK    3  A    between atoms: C_13  and  N_14
REMARK    4  A    between atoms: N_15  and  C_16
REMARK    5  A    between atoms: C_21  and  C_22
REMARK                            x       y       z     vdW  Elec       q    Type
REMARK                         _______ _______ _______ _____ _____    ______ ____
ROOT
ATOM      1  N   UNL     1       2.377   6.906  20.336  0.00  0.00    +0.000 NA
ATOM      2  N   UNL     1       1.611   5.949  20.059  0.00  0.00    +0.000 NA
ENDROOT
BRANCH   1   9
ATOM      3  C   UNL     1       1.998   8.567  17.722  0.00  0.00    +0.000 C 
ATOM      4  C   UNL     1       1.567   8.880  19.115  0.00  0.00    +0.000 A 
ATOM      5  N   UNL     1       0.883  10.063  19.397  0.00  0.00    +0.000 N 
ATOM      6  N   UNL     1       0.812  10.145  20.793  0.00  0.00    +0.000 N 
ATOM      7  C   UNL     1       1.390   9.003  21.354  0.00  0.00    +0.000 A 
ATOM      8  O   UNL     1       1.568   8.734  22.534  0.00  0.00    +0.000 OA
ATOM      9  C   UNL     1       1.801   8.137  20.212  0.00  0.00    +0.000 A 
ATOM     10  H   UNL     1       1.315  10.881  18.966  0.00  0.00    +0.000 HD
BRANCH   6  11
ATOM     11  C   UNL     1       0.058  11.140  21.445  0.00  0.00    +0.000 A 
ATOM     12  C   UNL     1       0.322  12.501  21.233  0.00  0.00    +0.000 A 
ATOM     13  C   UNL     1      -0.376  13.491  21.928  0.00  0.00    +0.000 A 
ATOM     14  C   UNL     1      -1.345  13.133  22.858  0.00  0.00    +0.000 A 
ATOM     15  C   UNL     1      -1.631  11.786  23.074  0.00  0.00    +0.000 A 
ATOM     16  C   UNL     1      -0.944  10.796  22.364  0.00  0.00    +0.000 A 
ENDBRANCH   6  11
ENDBRANCH   1   9
BRANCH   2  17
ATOM     17  C   UNL     1       2.211   4.687  20.282  0.00  0.00    +0.000 A 
ATOM     18  C   UNL     1       1.715   3.854  21.311  0.00  0.00    +0.000 A 
ATOM     19  C   UNL     1       2.273   2.607  21.580  0.00  0.00    +0.000 A 
ATOM     20  C   UNL     1       3.381   2.188  20.861  0.00  0.00    +0.000 A 
ATOM     21  C   UNL     1       3.897   3.001  19.854  0.00  0.00    +0.000 A 
ATOM     22  C   UNL     1       3.264   4.198  19.473  0.00  0.00    +0.000 A 
BRANCH  22  23
ATOM     23  C   UNL     1       3.768   4.955  18.271  0.00  0.00    +0.000 C 
ATOM     24  O   UNL     1       3.000   5.080  17.316  0.00  0.00    +0.000 OA
ATOM     25  N   UNL     1       5.072   5.530  18.244  0.00  0.00    +0.000 N 
ATOM     26  C   UNL     1       5.345   6.486  17.164  0.00  0.00    +0.000 C 
ATOM     27  C   UNL     1       6.816   6.519  16.753  0.00  0.00    +0.000 C 
ATOM     28  C   UNL     1       7.729   6.761  17.946  0.00  0.00    +0.000 C 
ATOM     29  C   UNL     1       7.471   5.724  19.025  0.00  0.00    +0.000 C 
ATOM     30  C   UNL     1       5.994   5.597  19.382  0.00  0.00    +0.000 C 
ENDBRANCH  22  23
ENDBRANCH   2  17
TORSDOF 4
ENDMDL
MODEL 5
REMARK VINA RESULT:      -7.8      1.704      4.003
REMARK  Name = 
REMARK  5 active torsions:
REMARK  status: ('A' for Active; 'I' for Inactive)
REMARK    1  A    between atoms: C_1  and  C_2
REMARK    2  A    between atoms: N_4  and  C_5
REMARK    3  A    between atoms: C_13  and  N_14
REMARK    4  A    between atoms: N_15  and  C_16
REMARK    5  A    between atoms: C_21  and  C_22
REMARK                            x       y       z     vdW  Elec       q    Type
REMARK                         _______ _______ _______ _____ _____    ______ ____
ROOT
ATOM      1  N   UNL     1       2.967   7.022  18.018  0.00  0.00    +0.000 NA
ATOM      2  N   UNL     1       3.920   6.480  18.632  0.00  0.00    +0.000 NA
ENDROOT
BRANCH   1   9
ATOM      3  C   UNL     1       1.595   6.449  20.761  0.00  0.00    +0.000 C 
ATOM      4  C   UNL     1       1.660   7.718  19.980  0.00  0.00    +0.000 A 
ATOM      5  N   UNL     1       1.053   8.878  20.461  0.00  0.00    +0.000 N 
ATOM      6  N   UNL     1       1.118   9.809  19.417  0.00  0.00    +0.000 N 
ATOM      7  C   UNL     1       1.805   9.248  18.338  0.00  0.00    +0.000 A 
ATOM      8  O   UNL     1       2.016   9.724  17.231  0.00  0.00    +0.000 OA
ATOM      9  C   UNL     1       2.234   7.888  18.775  0.00  0.00    +0.000 A 
ATOM     10  H   UNL     1       0.104   8.716  20.798  0.00  0.00    +0.000 HD
BRANCH   6  11
ATOM     11  C   UNL     1       0.732  11.153  19.590  0.00  0.00    +0.000 A 
ATOM     12  C   UNL     1      -0.213  11.747  18.741  0.00  0.00    +0.000 A 
ATOM     13  C   UNL     1      -0.549  13.097  18.864  0.00  0.00    +0.000 A 
ATOM     14  C   UNL     1       0.067  13.879  19.835  0.00  0.00    +0.000 A 
ATOM     15  C   UNL     1       0.999  13.305  20.696  0.00  0.00    +0.000 A 
ATOM     16  C   UNL     1       1.321  11.947  20.584  0.00  0.00    +0.000 A 
ENDBRANCH   6  11
ENDBRANCH   1   9
BRANCH   2  17
ATOM     17  C   UNL     1       4.711   5.656  17.797  0.00  0.00    +0.000 A 
ATOM     18  C   UNL     1       6.051   6.020  17.530  0.00  0.00    +0.000 A 
ATOM     19  C   UNL     1       6.871   5.252  16.708  0.00  0.00    +0.000 A 
ATOM     20  C   UNL     1       6.351   4.129  16.086  0.00  0.00    +0.000 A 
ATOM     21  C   UNL     1       5.027   3.762  16.321  0.00  0.00    +0.000 A 
ATOM     22  C   UNL     1       4.226   4.442  17.256  0.00  0.00    +0.000 A 
BRANCH  22  23
ATOM     23  C   UNL     1       2.859   3.904  17.593  0.00  0.00    +0.000 C 
ATOM     24  O   UNL     1       2.024   3.869  16.688  0.00  0.00    +0.000 OA
ATOM     25  N   UNL     1       2.546   3.428  18.900  0.00  0.00    +0.000 N 
ATOM     26  C   UNL     1       1.302   2.661  19.038  0.00  0.00    +0.000 C 
ATOM     27  C   UNL     1       0.673   2.788  20.424  0.00  0.00    +0.000 C 
ATOM     28  C   UNL     1       1.662   2.436  21.526  0.00  0.00    +0.000 C 
ATOM     29  C   UNL     1       2.914   3.285  21.399  0.00  0.00    +0.000 C 
ATOM     30  C   UNL     1       3.506   3.258  19.994  0.00  0.00    +0.000 C 
ENDBRANCH  22  23
ENDBRANCH   2  17
TORSDOF 4
ENDMDL
MODEL 6
REMARK VINA RESULT:      -7.8      1.688      4.038
REMARK  Name = 
REMARK  5 active torsions:
REMARK  status: ('A' for Active; 'I' for Inactive)
REMARK    1  A    between atoms: C_1  and  C_2
REMARK    2  A    between atoms: N_4  and  C_5
REMARK    3  A    between atoms: C_13  and  N_14
REMARK    4  A    between atoms: N_15  and  C_16
REMARK    5  A    between atoms: C_21  and  C_22
REMARK                            x       y       z     vdW  Elec       q    Type
REMARK                         _______ _______ _______ _____ _____    ______ ____
ROOT
ATOM      1  N   UNL     1       3.424   7.333  18.560  0.00  0.00    +0.000 NA
ATOM      2  N   UNL     1       3.127   6.630  17.562  0.00  0.00    +0.000 NA
ENDROOT
BRANCH   1   9
ATOM      3  C   UNL     1       1.570   6.615  20.963  0.00  0.00    +0.000 C 
ATOM      4  C   UNL     1       1.585   7.838  20.110  0.00  0.00    +0.000 A 
ATOM      5  N   UNL     1       0.681   8.874  20.341  0.00  0.00    +0.000 N 
ATOM      6  N   UNL     1       0.820   9.756  19.262  0.00  0.00    +0.000 N 
ATOM      7  C   UNL     1       1.834   9.297  18.417  0.00  0.00    +0.000 A 
ATOM      8  O   UNL     1       2.211   9.760  17.349  0.00  0.00    +0.000 OA
ATOM      9  C   UNL     1       2.388   8.068  19.055  0.00  0.00    +0.000 A 
ATOM     10  H   UNL     1      -0.276   8.542  20.469  0.00  0.00    +0.000 HD
BRANCH   6  11
ATOM     11  C   UNL     1       0.166  11.003  19.227  0.00  0.00    +0.000 A 
ATOM     12  C   UNL     1       0.882  12.199  19.384  0.00  0.00    +0.000 A 
ATOM     13  C   UNL     1       0.231  13.434  19.419  0.00  0.00    +0.000 A 
ATOM     14  C   UNL     1      -1.154  13.490  19.308  0.00  0.00    +0.000 A 
ATOM     15  C   UNL     1      -1.882  12.315  19.138  0.00  0.00    +0.000 A 
ATOM     16  C   UNL     1      -1.227  11.080  19.084  0.00  0.00    +0.000 A 
ENDBRANCH   6  11
ENDBRANCH   1   9
BRANCH   2  17
ATOM     17  C   UNL     1       4.199   5.815  17.127  0.00  0.00    +0.000 A 
ATOM     18  C   UNL     1       5.450   6.409  16.841  0.00  0.00    +0.000 A 
ATOM     19  C   UNL     1       6.536   5.657  16.400  0.00  0.00    +0.000 A 
ATOM     20  C   UNL     1       6.378   4.298  16.180  0.00  0.00    +0.000 A 
ATOM     21  C   UNL     1       5.148   3.696  16.439  0.00  0.00    +0.000 A 
ATOM     22  C   UNL     1       4.083   4.410  17.017  0.00  0.00    +0.000 A 
BRANCH  22  23
ATOM     23  C   UNL     1       2.833   3.675  17.428  0.00  0.00    +0.000 C 
ATOM     24  O   UNL     1       2.050   3.344  16.536  0.00  0.00    +0.000 OA
ATOM     25  N   UNL     1       2.574   3.348  18.791  0.00  0.00    +0.000 N 
ATOM     26  C   UNL     1       1.495   2.385  19.041  0.00  0.00    +0.000 C 
ATOM     27  C   UNL     1       0.808   2.594  20.390  0.00  0.00    +0.000 C 
ATOM     28  C   UNL     1       1.810   2.608  21.535  0.00  0.00    +0.000 C 
ATOM     29  C   UNL     1       2.882   3.654  21.284  0.00  0.00    +0.000 C 
ATOM     30  C   UNL     1       3.513   3.532  19.902  0.00  0.00    +0.000 C 
ENDBRANCH  22  23
ENDBRANCH   2  17
TORSDOF 4
ENDMDL
MODEL 7
REMARK VINA RESULT:      -7.7      1.394      1.969
REMARK  Name = 
REMARK  5 active torsions:
REMARK  status: ('A' for Active; 'I' for Inactive)
REMARK    1  A    between atoms: C_1  and  C_2
REMARK    2  A    between atoms: N_4  and  C_5
REMARK    3  A    between atoms: C_13  and  N_14
REMARK    4  A    between atoms: N_15  and  C_16
REMARK    5  A    between atoms: C_21  and  C_22
REMARK                            x       y       z     vdW  Elec       q    Type
REMARK                         _______ _______ _______ _____ _____    ______ ____
ROOT
ATOM      1  N   UNL     1       2.381   6.595  19.589  0.00  0.00    +0.000 NA
ATOM      2  N   UNL     1       2.483   5.684  18.729  0.00  0.00    +0.000 NA
ENDROOT
BRANCH   1   9
ATOM      3  C   UNL     1       3.747   7.854  17.083  0.00  0.00    +0.000 C 
ATOM      4  C   UNL     1       2.688   8.417  17.969  0.00  0.00    +0.000 A 
ATOM      5  N   UNL     1       2.160   9.685  17.724  0.00  0.00    +0.000 N 
ATOM      6  N   UNL     1       1.359   9.991  18.833  0.00  0.00    +0.000 N 
ATOM      7  C   UNL     1       1.351   8.904  19.711  0.00  0.00    +0.000 A 
ATOM      8  O   UNL     1       0.817   8.808  20.807  0.00  0.00    +0.000 OA
ATOM      9  C   UNL     1       2.170   7.837  19.066  0.00  0.00    +0.000 A 
ATOM     10  H   UNL     1       2.881  10.385  17.543  0.00  0.00    +0.000 HD
BRANCH   6  11
ATOM     11  C   UNL     1       0.543  11.138  18.871  0.00  0.00    +0.000 A 
ATOM     12  C   UNL     1       1.072  12.389  19.220  0.00  0.00    +0.000 A 
ATOM     13  C   UNL     1       0.255  13.516  19.327  0.00  0.00    +0.000 A 
ATOM     14  C   UNL     1      -1.111  13.407  19.095  0.00  0.00    +0.000 A 
ATOM     15  C   UNL     1      -1.654  12.176  18.734  0.00  0.00    +0.000 A 
ATOM     16  C   UNL     1      -0.832  11.050  18.609  0.00  0.00    +0.000 A 
ENDBRANCH   6  11
ENDBRANCH   1   9
BRANCH   2  17
ATOM     17  C   UNL     1       2.614   4.399  19.307  0.00  0.00    +0.000 A 
ATOM     18  C   UNL     1       1.452   3.670  19.651  0.00  0.00    +0.000 A 
ATOM     19  C   UNL     1       1.523   2.406  20.231  0.00  0.00    +0.000 A 
ATOM     20  C   UNL     1       2.761   1.864  20.532  0.00  0.00    +0.000 A 
ATOM     21  C   UNL     1       3.919   2.574  20.218  0.00  0.00    +0.000 A 
ATOM     22  C   UNL     1       3.874   3.786  19.507  0.00  0.00    +0.000 A 
BRANCH  22  23
ATOM     23  C   UNL     1       5.158   4.428  19.049  0.00  0.00    +0.000 C 
ATOM     24  O   UNL     1       5.878   4.934  19.911  0.00  0.00    +0.000 OA
ATOM     25  N   UNL     1       5.544   4.428  17.676  0.00  0.00    +0.000 N 
ATOM     26  C   UNL     1       6.932   4.807  17.386  0.00  0.00    +0.000 C 
ATOM     27  C   UNL     1       7.099   5.457  16.013  0.00  0.00    +0.000 C 
ATOM     28  C   UNL     1       6.521   4.589  14.905  0.00  0.00    +0.000 C 
ATOM     29  C   UNL     1       5.068   4.260  15.197  0.00  0.00    +0.000 C 
ATOM     30  C   UNL     1       4.858   3.705  16.601  0.00  0.00    +0.000 C 
ENDBRANCH  22  23
ENDBRANCH   2  17
TORSDOF 4
ENDMDL
MODEL 8
REMARK VINA RESULT:      -7.7      1.223      1.616
REMARK  Name = 
REMARK  5 active torsions:
REMARK  status: ('A' for Active; 'I' for Inactive)
REMARK    1  A    between atoms: C_1  and  C_2
REMARK    2  A    between atoms: N_4  and  C_5
REMARK    3  A    between atoms: C_13  and  N_14
REMARK    4  A    between atoms: N_15  and  C_16
REMARK    5  A    between atoms: C_21  and  C_22
REMARK                            x       y       z     vdW  Elec       q    Type
REMARK                         _______ _______ _______ _____ _____    ______ ____
ROOT
ATOM      1  N   UNL     1       2.342   6.245  19.584  0.00  0.00    +0.000 NA
ATOM      2  N   UNL     1       2.042   5.614  18.540  0.00  0.00    +0.000 NA
ENDROOT
BRANCH   1   9
ATOM      3  C   UNL     1       2.877   8.460  17.454  0.00  0.00    +0.000 C 
ATOM      4  C   UNL     1       2.057   8.520  18.699  0.00  0.00    +0.000 A 
ATOM      5  N   UNL     1       1.387   9.692  19.051  0.00  0.00    +0.000 N 
ATOM      6  N   UNL     1       0.897   9.482  20.346  0.00  0.00    +0.000 N 
ATOM      7  C   UNL     1       1.210   8.183  20.755  0.00  0.00    +0.000 A 
ATOM      8  O   UNL     1       1.002   7.648  21.835  0.00  0.00    +0.000 OA
ATOM      9  C   UNL     1       1.902   7.536  19.603  0.00  0.00    +0.000 A 
ATOM     10  H   UNL     1       1.977  10.522  18.973  0.00  0.00    +0.000 HD
BRANCH   6  11
ATOM     11  C   UNL     1       0.036  10.402  20.977  0.00  0.00    +0.000 A 
ATOM     12  C   UNL     1      -0.211  10.330  22.356  0.00  0.00    +0.000 A 
ATOM     13  C   UNL     1      -1.115  11.195  22.975  0.00  0.00    +0.000 A 
ATOM     14  C   UNL     1      -1.798  12.142  22.219  0.00  0.00    +0.000 A 
ATOM     15  C   UNL     1      -1.557  12.237  20.850  0.00  0.00    +0.000 A 
ATOM     16  C   UNL     1      -0.636  11.382  20.234  0.00  0.00    +0.000 A 
ENDBRANCH   6  11
ENDBRANCH   1   9
BRANCH   2  17
ATOM     17  C   UNL     1       2.436   4.255  18.590  0.00  0.00    +0.000 A 
ATOM     18  C   UNL     1       1.600   3.312  19.231  0.00  0.00    +0.000 A 
ATOM     19  C   UNL     1       1.943   1.966  19.318  0.00  0.00    +0.000 A 
ATOM     20  C   UNL     1       3.160   1.540  18.814  0.00  0.00    +0.000 A 
ATOM     21  C   UNL     1       4.008   2.456  18.194  0.00  0.00    +0.000 A 
ATOM     22  C   UNL     1       3.620   3.789  17.972  0.00  0.00    +0.000 A 
BRANCH  22  23
ATOM     23  C   UNL     1       4.505   4.694  17.152  0.00  0.00    +0.000 C 
ATOM     24  O   UNL     1       4.219   4.840  15.962  0.00  0.00    +0.000 OA
ATOM     25  N   UNL     1       5.613   5.378  17.731  0.00  0.00    +0.000 N 
ATOM     26  C   UNL     1       6.215   6.449  16.927  0.00  0.00    +0.000 C 
ATOM     27  C   UNL     1       7.703   6.645  17.211  0.00  0.00    +0.000 C 
ATOM     28  C   UNL     1       7.971   6.853  18.695  0.00  0.00    +0.000 C 
ATOM     29  C   UNL     1       7.393   5.703  19.500  0.00  0.00    +0.000 C 
ATOM     30  C   UNL     1       5.934   5.419  19.161  0.00  0.00    +0.000 C 
ENDBRANCH  22  23
ENDBRANCH   2  17
TORSDOF 4
ENDMDL
MODEL 9
REMARK VINA RESULT:      -7.6      1.604      2.080
REMARK  Name = 
REMARK  5 active torsions:
REMARK  status: ('A' for Active; 'I' for Inactive)
REMARK    1  A    between atoms: C_1  and  C_2
REMARK    2  A    between atoms: N_4  and  C_5
REMARK    3  A    between atoms: C_13  and  N_14
REMARK    4  A    between atoms: N_15  and  C_16
REMARK    5  A    between atoms: C_21  and  C_22
REMARK                            x       y       z     vdW  Elec       q    Type
REMARK                         _______ _______ _______ _____ _____    ______ ____
ROOT
ATOM      1  N   UNL     1       1.661   6.828  20.359  0.00  0.00    +0.000 NA
ATOM      2  N   UNL     1       2.385   6.281  19.490  0.00  0.00    +0.000 NA
ENDROOT
BRANCH   1   9
ATOM      3  C   UNL     1       2.114   8.453  17.735  0.00  0.00    +0.000 C 
ATOM      4  C   UNL     1       1.605   8.913  19.059  0.00  0.00    +0.000 A 
ATOM      5  N   UNL     1       1.248  10.247  19.256  0.00  0.00    +0.000 N 
ATOM      6  N   UNL     1       1.017  10.386  20.631  0.00  0.00    +0.000 N 
ATOM      7  C   UNL     1       1.173   9.145  21.254  0.00  0.00    +0.000 A 
ATOM      8  O   UNL     1       1.110   8.871  22.445  0.00  0.00    +0.000 OA
ATOM      9  C   UNL     1       1.474   8.166  20.170  0.00  0.00    +0.000 A 
ATOM     10  H   UNL     1       1.946  10.900  18.897  0.00  0.00    +0.000 HD
BRANCH   6  11
ATOM     11  C   UNL     1       0.492  11.570  21.184  0.00  0.00    +0.000 A 
ATOM     12  C   UNL     1       1.083  12.814  20.921  0.00  0.00    +0.000 A 
ATOM     13  C   UNL     1       0.608  13.982  21.521  0.00  0.00    +0.000 A 
ATOM     14  C   UNL     1      -0.463  13.922  22.405  0.00  0.00    +0.000 A 
ATOM     15  C   UNL     1      -1.072  12.698  22.670  0.00  0.00    +0.000 A 
ATOM     16  C   UNL     1      -0.607  11.530  22.054  0.00  0.00    +0.000 A 
ENDBRANCH   6  11
ENDBRANCH   1   9
BRANCH   2  17
ATOM     17  C   UNL     1       2.487   4.880  19.665  0.00  0.00    +0.000 A 
ATOM     18  C   UNL     1       1.326   4.132  19.968  0.00  0.00    +0.000 A 
ATOM     19  C   UNL     1       1.371   2.754  20.161  0.00  0.00    +0.000 A 
ATOM     20  C   UNL     1       2.590   2.099  20.111  0.00  0.00    +0.000 A 
ATOM     21  C   UNL     1       3.749   2.820  19.832  0.00  0.00    +0.000 A 
ATOM     22  C   UNL     1       3.707   4.185  19.496  0.00  0.00    +0.000 A 
BRANCH  22  23
ATOM     23  C   UNL     1       4.967   4.878  19.042  0.00  0.00    +0.000 C 
ATOM     24  O   UNL     1       5.592   5.526  19.883  0.00  0.00    +0.000 OA
ATOM     25  N   UNL     1       5.436   4.769  17.700  0.00  0.00    +0.000 N 
ATOM     26  C   UNL     1       6.807   5.227  17.446  0.00  0.00    +0.000 C 
ATOM     27  C   UNL     1       7.011   5.744  16.024  0.00  0.00    +0.000 C 
ATOM     28  C   UNL     1       6.570   4.722  14.985  0.00  0.00    +0.000 C 
ATOM     29  C   UNL     1       5.129   4.310  15.231  0.00  0.00    +0.000 C 
ATOM     30  C   UNL     1       4.875   3.886  16.673  0.00  0.00    +0.000 C 
ENDBRANCH  22  23
ENDBRANCH   2  17
TORSDOF 4
ENDMDL
