MODEL 1
REMARK VINA RESULT:      -7.0      0.000      0.000
REMARK  Name = 
REMARK  14 active torsions:
REMARK  status: ('A' for Active; 'I' for Inactive)
REMARK    1  A    between atoms: C_1  and  C_2
REMARK    2  A    between atoms: C_2  and  N_3
REMARK    3  A    between atoms: N_3  and  C_4
REMARK    4  A    between atoms: N_3  and  C_6
REMARK    5  A    between atoms: C_4  and  C_5
REMARK    6  A    between atoms: C_6  and  C_7
REMARK    7  A    between atoms: C_7  and  C_8
REMARK    8  A    between atoms: C_8  and  N_9
REMARK    9  A    between atoms: C_10  and  C_12
REMARK   10  A    between atoms: C_12  and  C_13
REMARK   11  A    between atoms: C_13  and  C_14
REMARK   12  A    between atoms: N_16  and  C_17
REMARK   13  A    between atoms: C_26  and  C_27
REMARK   14  A    between atoms: C_31  and  C_32
REMARK                            x       y       z     vdW  Elec       q    Type
REMARK                         _______ _______ _______ _____ _____    ______ ____
ROOT
ATOM      1  C   UNL     1       2.397   5.636  20.108  0.00  0.00    +0.000 C 
ATOM      2  O   UNL     1       1.287   5.241  20.452  0.00  0.00    +0.000 OA
ATOM      3  N   UNL     1       2.717   6.922  19.706  0.00  0.00    +0.000 N 
ATOM      4  H   UNL     1       3.591   7.056  19.215  0.00  0.00    +0.000 HD
ENDROOT
BRANCH   3   5
ATOM      5  C   UNL     1       1.859   8.045  19.793  0.00  0.00    +0.000 A 
ATOM      6  C   UNL     1       1.461   8.780  18.682  0.00  0.00    +0.000 A 
ATOM      7  C   UNL     1       0.562   9.841  18.815  0.00  0.00    +0.000 A 
ATOM      8  C   UNL     1       0.037  10.206  20.040  0.00  0.00    +0.000 A 
ATOM      9  N   UNL     1      -0.868  11.199  20.072  0.00  0.00    +0.000 NA
ATOM     10  C   UNL     1      -1.400  11.594  21.244  0.00  0.00    +0.000 A 
ATOM     11  N   UNL     1      -2.416  12.524  21.240  0.00  0.00    +0.000 N 
ATOM     12  C   UNL     1      -2.616  13.493  22.307  0.00  0.00    +0.000 C 
ATOM     13  C   UNL     1      -4.088  13.471  22.719  0.00  0.00    +0.000 C 
ATOM     14  C   UNL     1      -5.017  13.678  21.510  0.00  0.00    +0.000 C 
ATOM     15  C   UNL     1      -6.477  13.520  21.928  0.00  0.00    +0.000 C 
ATOM     16  C   UNL     1      -4.668  12.700  20.375  0.00  0.00    +0.000 C 
ATOM     17  C   UNL     1      -3.177  12.754  20.016  0.00  0.00    +0.000 C 
ATOM     18  C   UNL     1      -0.982  10.998  22.428  0.00  0.00    +0.000 A 
ATOM     19  C   UNL     1      -0.058   9.944  22.420  0.00  0.00    +0.000 A 
ATOM     20  C   UNL     1       0.308   9.311  23.733  0.00  0.00    +0.000 C 
ATOM     21  C   UNL     1       0.460   9.506  21.190  0.00  0.00    +0.000 A 
ATOM     22  C   UNL     1       1.358   8.414  21.044  0.00  0.00    +0.000 A 
ENDBRANCH   3   5
BRANCH   1  23
ATOM     23  C   UNL     1       3.560   4.666  20.066  0.00  0.00    +0.000 C 
BRANCH  23  24
ATOM     24  C   UNL     1       3.154   3.248  19.702  0.00  0.00    +0.000 C 
BRANCH  24  26
ATOM     25  N   UNL     1       3.905   3.975  17.515  0.00  0.00    +0.000 N 
ATOM     26  C   UNL     1       3.480   2.903  18.263  0.00  0.00    +0.000 C 
ATOM     27  O   UNL     1       3.365   1.762  17.829  0.00  0.00    +0.000 OA
ATOM     28  H   UNL     1       3.971   4.897  17.925  0.00  0.00    +0.000 HD
BRANCH  25  29
ATOM     29  C   UNL     1       4.252   3.861  16.112  0.00  0.00    +0.000 C 
BRANCH  29  30
ATOM     30  C   UNL     1       5.719   3.492  15.898  0.00  0.00    +0.000 C 
BRANCH  30  31
ATOM     31  C   UNL     1       6.708   4.656  16.102  0.00  0.00    +0.000 C 
BRANCH  31  32
ATOM     32  N   UNL     1       6.607   5.362  17.396  0.00  0.00    +0.000 NA
BRANCH  32  34
ATOM     33  C   UNL     1       7.753   5.758  19.622  0.00  0.00    +0.000 C 
ATOM     34  C   UNL     1       7.734   5.024  18.284  0.00  0.00    +0.000 C 
ENDBRANCH  32  34
BRANCH  32  35
ATOM     35  C   UNL     1       6.420   6.814  17.206  0.00  0.00    +0.000 C 
ATOM     36  C   UNL     1       4.983   7.298  17.015  0.00  0.00    +0.000 C 
ENDBRANCH  32  35
ENDBRANCH  31  32
ENDBRANCH  30  31
ENDBRANCH  29  30
ENDBRANCH  25  29
ENDBRANCH  24  26
ENDBRANCH  23  24
ENDBRANCH   1  23
TORSDOF 10
ENDMDL
MODEL 2
REMARK VINA RESULT:      -7.0      2.291      3.182
REMARK  Name = 
REMARK  14 active torsions:
REMARK  status: ('A' for Active; 'I' for Inactive)
REMARK    1  A    between atoms: C_1  and  C_2
REMARK    2  A    between atoms: C_2  and  N_3
REMARK    3  A    between atoms: N_3  and  C_4
REMARK    4  A    between atoms: N_3  and  C_6
REMARK    5  A    between atoms: C_4  and  C_5
REMARK    6  A    between atoms: C_6  and  C_7
REMARK    7  A    between atoms: C_7  and  C_8
REMARK    8  A    between atoms: C_8  and  N_9
REMARK    9  A    between atoms: C_10  and  C_12
REMARK   10  A    between atoms: C_12  and  C_13
REMARK   11  A    between atoms: C_13  and  C_14
REMARK   12  A    between atoms: N_16  and  C_17
REMARK   13  A    between atoms: C_26  and  C_27
REMARK   14  A    between atoms: C_31  and  C_32
REMARK                            x       y       z     vdW  Elec       q    Type
REMARK                         _______ _______ _______ _____ _____    ______ ____
ROOT
ATOM      1  C   UNL     1       2.945   5.261  19.079  0.00  0.00    +0.000 C 
ATOM      2  O   UNL     1       1.804   4.811  19.035  0.00  0.00    +0.000 OA
ATOM      3  N   UNL     1       3.298   6.597  18.978  0.00  0.00    +0.000 N 
ATOM      4  H   UNL     1       4.267   6.811  18.778  0.00  0.00    +0.000 HD
ENDROOT
BRANCH   3   5
ATOM      5  C   UNL     1       2.395   7.687  18.983  0.00  0.00    +0.000 A 
ATOM      6  C   UNL     1       1.989   8.337  17.824  0.00  0.00    +0.000 A 
ATOM      7  C   UNL     1       1.046   9.367  17.879  0.00  0.00    +0.000 A 
ATOM      8  C   UNL     1       0.484   9.782  19.071  0.00  0.00    +0.000 A 
ATOM      9  N   UNL     1      -0.460  10.737  19.028  0.00  0.00    +0.000 NA
ATOM     10  C   UNL     1      -1.029  11.180  20.166  0.00  0.00    +0.000 A 
ATOM     11  N   UNL     1      -2.081  12.065  20.090  0.00  0.00    +0.000 N 
ATOM     12  C   UNL     1      -2.339  13.087  21.093  0.00  0.00    +0.000 C 
ATOM     13  C   UNL     1      -3.817  13.030  21.482  0.00  0.00    +0.000 C 
ATOM     14  C   UNL     1      -4.730  13.126  20.249  0.00  0.00    +0.000 C 
ATOM     15  C   UNL     1      -6.190  12.933  20.652  0.00  0.00    +0.000 C 
ATOM     16  C   UNL     1      -4.322  12.097  19.180  0.00  0.00    +0.000 C 
ATOM     17  C   UNL     1      -2.828  12.191  18.843  0.00  0.00    +0.000 C 
ATOM     18  C   UNL     1      -0.609  10.673  21.390  0.00  0.00    +0.000 A 
ATOM     19  C   UNL     1       0.356   9.659  21.460  0.00  0.00    +0.000 A 
ATOM     20  C   UNL     1       0.723   9.120  22.815  0.00  0.00    +0.000 C 
ATOM     21  C   UNL     1       0.914   9.170  20.267  0.00  0.00    +0.000 A 
ATOM     22  C   UNL     1       1.857   8.108  20.202  0.00  0.00    +0.000 A 
ENDBRANCH   3   5
BRANCH   1  23
ATOM     23  C   UNL     1       4.121   4.318  19.226  0.00  0.00    +0.000 C 
BRANCH  23  24
ATOM     24  C   UNL     1       5.426   5.024  19.555  0.00  0.00    +0.000 C 
BRANCH  24  26
ATOM     25  N   UNL     1       6.174   4.334  17.354  0.00  0.00    +0.000 N 
ATOM     26  C   UNL     1       6.258   5.308  18.320  0.00  0.00    +0.000 C 
ATOM     27  O   UNL     1       6.939   6.323  18.218  0.00  0.00    +0.000 OA
ATOM     28  H   UNL     1       5.602   3.513  17.497  0.00  0.00    +0.000 HD
BRANCH  25  29
ATOM     29  C   UNL     1       6.904   4.408  16.103  0.00  0.00    +0.000 C 
BRANCH  29  30
ATOM     30  C   UNL     1       5.998   4.710  14.912  0.00  0.00    +0.000 C 
BRANCH  30  31
ATOM     31  C   UNL     1       5.838   3.545  13.916  0.00  0.00    +0.000 C 
BRANCH  31  32
ATOM     32  N   UNL     1       5.923   3.908  12.487  0.00  0.00    +0.000 NA
BRANCH  32  34
ATOM     33  C   UNL     1       7.867   5.503  12.162  0.00  0.00    +0.000 C 
ATOM     34  C   UNL     1       7.323   4.081  12.057  0.00  0.00    +0.000 C 
ENDBRANCH  32  34
BRANCH  32  35
ATOM     35  C   UNL     1       5.159   2.968  11.644  0.00  0.00    +0.000 C 
ATOM     36  C   UNL     1       5.793   1.598  11.402  0.00  0.00    +0.000 C 
ENDBRANCH  32  35
ENDBRANCH  31  32
ENDBRANCH  30  31
ENDBRANCH  29  30
ENDBRANCH  25  29
ENDBRANCH  24  26
ENDBRANCH  23  24
ENDBRANCH   1  23
TORSDOF 10
ENDMDL
MODEL 3
REMARK VINA RESULT:      -7.0      3.241     10.097
REMARK  Name = 
REMARK  14 active torsions:
REMARK  status: ('A' for Active; 'I' for Inactive)
REMARK    1  A    between atoms: C_1  and  C_2
REMARK    2  A    between atoms: C_2  and  N_3
REMARK    3  A    between atoms: N_3  and  C_4
REMARK    4  A    between atoms: N_3  and  C_6
REMARK    5  A    between atoms: C_4  and  C_5
REMARK    6  A    between atoms: C_6  and  C_7
REMARK    7  A    between atoms: C_7  and  C_8
REMARK    8  A    between atoms: C_8  and  N_9
REMARK    9  A    between atoms: C_10  and  C_12
REMARK   10  A    between atoms: C_12  and  C_13
REMARK   11  A    between atoms: C_13  and  C_14
REMARK   12  A    between atoms: N_16  and  C_17
REMARK   13  A    between atoms: C_26  and  C_27
REMARK   14  A    between atoms: C_31  and  C_32
REMARK                            x       y       z     vdW  Elec       q    Type
REMARK                         _______ _______ _______ _____ _____    ______ ____
ROOT
ATOM      1  C   UNL     1      -0.918  12.925  21.820  0.00  0.00    +0.000 C 
ATOM      2  O   UNL     1       0.246  13.302  21.920  0.00  0.00    +0.000 OA
ATOM      3  N   UNL     1      -1.335  11.642  21.507  0.00  0.00    +0.000 N 
ATOM      4  H   UNL     1      -2.296  11.521  21.211  0.00  0.00    +0.000 HD
ENDROOT
BRANCH   3   5
ATOM      5  C   UNL     1      -0.496  10.505  21.421  0.00  0.00    +0.000 A 
ATOM      6  C   UNL     1      -0.338   9.603  22.468  0.00  0.00    +0.000 A 
ATOM      7  C   UNL     1       0.454   8.462  22.309  0.00  0.00    +0.000 A 
ATOM      8  C   UNL     1       1.108   8.183  21.125  0.00  0.00    +0.000 A 
ATOM      9  N   UNL     1       1.799   7.034  21.037  0.00  0.00    +0.000 NA
ATOM     10  C   UNL     1       2.460   6.725  19.905  0.00  0.00    +0.000 A 
ATOM     11  N   UNL     1       3.055   5.488  19.792  0.00  0.00    +0.000 N 
ATOM     12  C   UNL     1       4.272   5.254  19.028  0.00  0.00    +0.000 C 
ATOM     13  C   UNL     1       4.056   4.041  18.123  0.00  0.00    +0.000 C 
ATOM     14  C   UNL     1       3.578   2.817  18.921  0.00  0.00    +0.000 C 
ATOM     15  C   UNL     1       3.245   1.663  17.978  0.00  0.00    +0.000 C 
ATOM     16  C   UNL     1       2.364   3.171  19.797  0.00  0.00    +0.000 C 
ATOM     17  C   UNL     1       2.633   4.403  20.671  0.00  0.00    +0.000 C 
ATOM     18  C   UNL     1       2.458   7.617  18.839  0.00  0.00    +0.000 A 
ATOM     19  C   UNL     1       1.724   8.810  18.896  0.00  0.00    +0.000 A 
ATOM     20  C   UNL     1       1.724   9.701  17.686  0.00  0.00    +0.000 C 
ATOM     21  C   UNL     1       1.001   9.107  20.063  0.00  0.00    +0.000 A 
ATOM     22  C   UNL     1       0.177  10.253  20.223  0.00  0.00    +0.000 A 
ENDBRANCH   3   5
BRANCH   1  23
ATOM     23  C   UNL     1      -2.048  13.914  22.015  0.00  0.00    +0.000 C 
BRANCH  23  24
ATOM     24  C   UNL     1      -3.425  13.270  22.010  0.00  0.00    +0.000 C 
BRANCH  24  26
ATOM     25  N   UNL     1      -4.950  12.740  20.201  0.00  0.00    +0.000 N 
ATOM     26  C   UNL     1      -4.284  13.748  20.857  0.00  0.00    +0.000 C 
ATOM     27  O   UNL     1      -4.361  14.935  20.555  0.00  0.00    +0.000 OA
ATOM     28  H   UNL     1      -4.841  11.777  20.489  0.00  0.00    +0.000 HD
BRANCH  25  29
ATOM     29  C   UNL     1      -5.812  12.984  19.061  0.00  0.00    +0.000 C 
BRANCH  29  30
ATOM     30  C   UNL     1      -5.269  12.367  17.773  0.00  0.00    +0.000 C 
BRANCH  30  31
ATOM     31  C   UNL     1      -4.352  11.147  17.984  0.00  0.00    +0.000 C 
BRANCH  31  32
ATOM     32  N   UNL     1      -3.138  11.107  17.143  0.00  0.00    +0.000 NA
BRANCH  32  34
ATOM     33  C   UNL     1      -1.288  12.558  18.090  0.00  0.00    +0.000 C 
ATOM     34  C   UNL     1      -1.913  11.172  17.960  0.00  0.00    +0.000 C 
ENDBRANCH  32  34
BRANCH  32  35
ATOM     35  C   UNL     1      -3.164   9.962  16.211  0.00  0.00    +0.000 C 
ATOM     36  C   UNL     1      -3.109  10.294  14.720  0.00  0.00    +0.000 C 
ENDBRANCH  32  35
ENDBRANCH  31  32
ENDBRANCH  30  31
ENDBRANCH  29  30
ENDBRANCH  25  29
ENDBRANCH  24  26
ENDBRANCH  23  24
ENDBRANCH   1  23
TORSDOF 10
ENDMDL
MODEL 4
REMARK VINA RESULT:      -6.9      0.879      1.248
REMARK  Name = 
REMARK  14 active torsions:
REMARK  status: ('A' for Active; 'I' for Inactive)
REMARK    1  A    between atoms: C_1  and  C_2
REMARK    2  A    between atoms: C_2  and  N_3
REMARK    3  A    between atoms: N_3  and  C_4
REMARK    4  A    between atoms: N_3  and  C_6
REMARK    5  A    between atoms: C_4  and  C_5
REMARK    6  A    between atoms: C_6  and  C_7
REMARK    7  A    between atoms: C_7  and  C_8
REMARK    8  A    between atoms: C_8  and  N_9
REMARK    9  A    between atoms: C_10  and  C_12
REMARK   10  A    between atoms: C_12  and  C_13
REMARK   11  A    between atoms: C_13  and  C_14
REMARK   12  A    between atoms: N_16  and  C_17
REMARK   13  A    between atoms: C_26  and  C_27
REMARK   14  A    between atoms: C_31  and  C_32
REMARK                            x       y       z     vdW  Elec       q    Type
REMARK                         _______ _______ _______ _____ _____    ______ ____
ROOT
ATOM      1  C   UNL     1       2.180   5.142  20.473  0.00  0.00    +0.000 C 
ATOM      2  O   UNL     1       0.992   4.831  20.492  0.00  0.00    +0.000 OA
ATOM      3  N   UNL     1       2.687   6.410  20.237  0.00  0.00    +0.000 N 
ATOM      4  H   UNL     1       3.668   6.485  20.001  0.00  0.00    +0.000 HD
ENDROOT
BRANCH   3   5
ATOM      5  C   UNL     1       1.921   7.597  20.154  0.00  0.00    +0.000 A 
ATOM      6  C   UNL     1       1.671   8.253  18.954  0.00  0.00    +0.000 A 
ATOM      7  C   UNL     1       0.855   9.387  18.919  0.00  0.00    +0.000 A 
ATOM      8  C   UNL     1       0.269   9.902  20.059  0.00  0.00    +0.000 A 
ATOM      9  N   UNL     1      -0.550  10.959  19.928  0.00  0.00    +0.000 NA
ATOM     10  C   UNL     1      -1.137  11.501  21.014  0.00  0.00    +0.000 A 
ATOM     11  N   UNL     1      -2.069  12.500  20.843  0.00  0.00    +0.000 N 
ATOM     12  C   UNL     1      -2.271  13.576  21.801  0.00  0.00    +0.000 C 
ATOM     13  C   UNL     1      -3.767  13.704  22.089  0.00  0.00    +0.000 C 
ATOM     14  C   UNL     1      -4.579  13.866  20.793  0.00  0.00    +0.000 C 
ATOM     15  C   UNL     1      -6.075  13.858  21.099  0.00  0.00    +0.000 C 
ATOM     16  C   UNL     1      -4.226  12.763  19.780  0.00  0.00    +0.000 C 
ATOM     17  C   UNL     1      -2.712  12.672  19.545  0.00  0.00    +0.000 C 
ATOM     18  C   UNL     1      -0.861  10.988  22.275  0.00  0.00    +0.000 A 
ATOM     19  C   UNL     1      -0.030   9.871  22.436  0.00  0.00    +0.000 A 
ATOM     20  C   UNL     1       0.181   9.337  23.825  0.00  0.00    +0.000 C 
ATOM     21  C   UNL     1       0.544   9.282  21.297  0.00  0.00    +0.000 A 
ATOM     22  C   UNL     1       1.357   8.117  21.322  0.00  0.00    +0.000 A 
ENDBRANCH   3   5
BRANCH   1  23
ATOM     23  C   UNL     1       3.239   4.081  20.688  0.00  0.00    +0.000 C 
BRANCH  23  24
ATOM     24  C   UNL     1       2.851   2.718  20.139  0.00  0.00    +0.000 C 
BRANCH  24  26
ATOM     25  N   UNL     1       4.235   3.104  18.187  0.00  0.00    +0.000 N 
ATOM     26  C   UNL     1       3.027   2.626  18.637  0.00  0.00    +0.000 C 
ATOM     27  O   UNL     1       2.155   2.165  17.909  0.00  0.00    +0.000 OA
ATOM     28  H   UNL     1       4.914   3.482  18.833  0.00  0.00    +0.000 HD
BRANCH  25  29
ATOM     29  C   UNL     1       4.596   3.120  16.783  0.00  0.00    +0.000 C 
BRANCH  29  30
ATOM     30  C   UNL     1       4.574   4.527  16.188  0.00  0.00    +0.000 C 
BRANCH  30  31
ATOM     31  C   UNL     1       5.433   5.557  16.946  0.00  0.00    +0.000 C 
BRANCH  31  32
ATOM     32  N   UNL     1       6.619   6.058  16.221  0.00  0.00    +0.000 NA
BRANCH  32  34
ATOM     33  C   UNL     1       7.605   6.302  18.543  0.00  0.00    +0.000 C 
ATOM     34  C   UNL     1       7.513   6.820  17.112  0.00  0.00    +0.000 C 
ENDBRANCH  32  34
BRANCH  32  35
ATOM     35  C   UNL     1       7.302   4.974  15.488  0.00  0.00    +0.000 C 
ATOM     36  C   UNL     1       7.187   5.002  13.964  0.00  0.00    +0.000 C 
ENDBRANCH  32  35
ENDBRANCH  31  32
ENDBRANCH  30  31
ENDBRANCH  29  30
ENDBRANCH  25  29
ENDBRANCH  24  26
ENDBRANCH  23  24
ENDBRANCH   1  23
TORSDOF 10
ENDMDL
MODEL 5
REMARK VINA RESULT:      -6.8      3.306      4.150
REMARK  Name = 
REMARK  14 active torsions:
REMARK  status: ('A' for Active; 'I' for Inactive)
REMARK    1  A    between atoms: C_1  and  C_2
REMARK    2  A    between atoms: C_2  and  N_3
REMARK    3  A    between atoms: N_3  and  C_4
REMARK    4  A    between atoms: N_3  and  C_6
REMARK    5  A    between atoms: C_4  and  C_5
REMARK    6  A    between atoms: C_6  and  C_7
REMARK    7  A    between atoms: C_7  and  C_8
REMARK    8  A    between atoms: C_8  and  N_9
REMARK    9  A    between atoms: C_10  and  C_12
REMARK   10  A    between atoms: C_12  and  C_13
REMARK   11  A    between atoms: C_13  and  C_14
REMARK   12  A    between atoms: N_16  and  C_17
REMARK   13  A    between atoms: C_26  and  C_27
REMARK   14  A    between atoms: C_31  and  C_32
REMARK                            x       y       z     vdW  Elec       q    Type
REMARK                         _______ _______ _______ _____ _____    ______ ____
ROOT
ATOM      1  C   UNL     1       4.217   6.329  17.965  0.00  0.00    +0.000 C 
ATOM      2  O   UNL     1       4.574   7.122  17.097  0.00  0.00    +0.000 OA
ATOM      3  N   UNL     1       3.232   6.549  18.915  0.00  0.00    +0.000 N 
ATOM      4  H   UNL     1       3.208   5.931  19.715  0.00  0.00    +0.000 HD
ENDROOT
BRANCH   3   5
ATOM      5  C   UNL     1       2.347   7.653  18.937  0.00  0.00    +0.000 A 
ATOM      6  C   UNL     1       1.900   8.287  17.783  0.00  0.00    +0.000 A 
ATOM      7  C   UNL     1       0.977   9.333  17.858  0.00  0.00    +0.000 A 
ATOM      8  C   UNL     1       0.474   9.781  19.065  0.00  0.00    +0.000 A 
ATOM      9  N   UNL     1      -0.455  10.751  19.044  0.00  0.00    +0.000 NA
ATOM     10  C   UNL     1      -0.966  11.225  20.197  0.00  0.00    +0.000 A 
ATOM     11  N   UNL     1      -2.007  12.126  20.148  0.00  0.00    +0.000 N 
ATOM     12  C   UNL     1      -2.204  13.172  21.141  0.00  0.00    +0.000 C 
ATOM     13  C   UNL     1      -3.664  13.147  21.595  0.00  0.00    +0.000 C 
ATOM     14  C   UNL     1      -4.630  13.233  20.402  0.00  0.00    +0.000 C 
ATOM     15  C   UNL     1      -6.073  13.073  20.873  0.00  0.00    +0.000 C 
ATOM     16  C   UNL     1      -4.285  12.177  19.338  0.00  0.00    +0.000 C 
ATOM     17  C   UNL     1      -2.806  12.239  18.933  0.00  0.00    +0.000 C 
ATOM     18  C   UNL     1      -0.500  10.736  21.411  0.00  0.00    +0.000 A 
ATOM     19  C   UNL     1       0.451   9.708  21.460  0.00  0.00    +0.000 A 
ATOM     20  C   UNL     1       0.869   9.191  22.808  0.00  0.00    +0.000 C 
ATOM     21  C   UNL     1       0.948   9.186  20.254  0.00  0.00    +0.000 A 
ATOM     22  C   UNL     1       1.870   8.108  20.169  0.00  0.00    +0.000 A 
ENDBRANCH   3   5
BRANCH   1  23
ATOM     23  C   UNL     1       4.900   4.983  18.080  0.00  0.00    +0.000 C 
BRANCH  23  24
ATOM     24  C   UNL     1       6.358   5.004  17.652  0.00  0.00    +0.000 C 
BRANCH  24  26
ATOM     25  N   UNL     1       7.632   7.037  18.002  0.00  0.00    +0.000 N 
ATOM     26  C   UNL     1       7.218   5.853  18.566  0.00  0.00    +0.000 C 
ATOM     27  O   UNL     1       7.507   5.494  19.702  0.00  0.00    +0.000 OA
ATOM     28  H   UNL     1       7.370   7.277  17.055  0.00  0.00    +0.000 HD
BRANCH  25  29
ATOM     29  C   UNL     1       8.474   7.986  18.703  0.00  0.00    +0.000 C 
BRANCH  29  30
ATOM     30  C   UNL     1       8.396   9.391  18.110  0.00  0.00    +0.000 C 
BRANCH  30  31
ATOM     31  C   UNL     1       9.204  10.456  18.876  0.00  0.00    +0.000 C 
BRANCH  31  32
ATOM     32  N   UNL     1       9.184  11.814  18.295  0.00  0.00    +0.000 NA
BRANCH  32  34
ATOM     33  C   UNL     1       7.390  13.387  17.440  0.00  0.00    +0.000 C 
ATOM     34  C   UNL     1       8.027  12.001  17.401  0.00  0.00    +0.000 C 
ENDBRANCH  32  34
BRANCH  32  35
ATOM     35  C   UNL     1       9.296  12.850  19.340  0.00  0.00    +0.000 C 
ATOM     36  C   UNL     1      10.688  13.082  19.926  0.00  0.00    +0.000 C 
ENDBRANCH  32  35
ENDBRANCH  31  32
ENDBRANCH  30  31
ENDBRANCH  29  30
ENDBRANCH  25  29
ENDBRANCH  24  26
ENDBRANCH  23  24
ENDBRANCH   1  23
TORSDOF 10
ENDMDL
MODEL 6
REMARK VINA RESULT:      -6.8      2.459      4.314
REMARK  Name = 
REMARK  14 active torsions:
REMARK  status: ('A' for Active; 'I' for Inactive)
REMARK    1  A    between atoms: C_1  and  C_2
REMARK    2  A    between atoms: C_2  and  N_3
REMARK    3  A    between atoms: N_3  and  C_4
REMARK    4  A    between atoms: N_3  and  C_6
REMARK    5  A    between atoms: C_4  and  C_5
REMARK    6  A    between atoms: C_6  and  C_7
REMARK    7  A    between atoms: C_7  and  C_8
REMARK    8  A    between atoms: C_8  and  N_9
REMARK    9  A    between atoms: C_10  and  C_12
REMARK   10  A    between atoms: C_12  and  C_13
REMARK   11  A    between atoms: C_13  and  C_14
REMARK   12  A    between atoms: N_16  and  C_17
REMARK   13  A    between atoms: C_26  and  C_27
REMARK   14  A    between atoms: C_31  and  C_32
REMARK                            x       y       z     vdW  Elec       q    Type
REMARK                         _______ _______ _______ _____ _____    ______ ____
ROOT
ATOM      1  C   UNL     1       1.543   8.585  19.449  0.00  0.00    +0.000 C 
ATOM      2  O   UNL     1       1.036   9.275  18.568  0.00  0.00    +0.000 OA
ATOM      3  N   UNL     1       1.371   8.751  20.813  0.00  0.00    +0.000 N 
ATOM      4  H   UNL     1       2.029   8.288  21.427  0.00  0.00    +0.000 HD
ENDROOT
BRANCH   3   5
ATOM      5  C   UNL     1       0.444   9.630  21.422  0.00  0.00    +0.000 A 
ATOM      6  C   UNL     1      -0.078   9.416  22.693  0.00  0.00    +0.000 A 
ATOM      7  C   UNL     1      -0.943  10.348  23.273  0.00  0.00    +0.000 A 
ATOM      8  C   UNL     1      -1.315  11.508  22.620  0.00  0.00    +0.000 A 
ATOM      9  N   UNL     1      -2.101  12.379  23.273  0.00  0.00    +0.000 NA
ATOM     10  C   UNL     1      -2.496  13.518  22.672  0.00  0.00    +0.000 A 
ATOM     11  N   UNL     1      -3.194  14.454  23.402  0.00  0.00    +0.000 N 
ATOM     12  C   UNL     1      -4.206  15.327  22.824  0.00  0.00    +0.000 C 
ATOM     13  C   UNL     1      -3.927  16.762  23.268  0.00  0.00    +0.000 C 
ATOM     14  C   UNL     1      -3.816  16.870  24.798  0.00  0.00    +0.000 C 
ATOM     15  C   UNL     1      -3.407  18.284  25.204  0.00  0.00    +0.000 C 
ATOM     16  C   UNL     1      -2.820  15.836  25.352  0.00  0.00    +0.000 C 
ATOM     17  C   UNL     1      -3.140  14.418  24.860  0.00  0.00    +0.000 C 
ATOM     18  C   UNL     1      -2.121  13.771  21.358  0.00  0.00    +0.000 A 
ATOM     19  C   UNL     1      -1.281  12.890  20.663  0.00  0.00    +0.000 A 
ATOM     20  C   UNL     1      -0.873  13.255  19.263  0.00  0.00    +0.000 C 
ATOM     21  C   UNL     1      -0.836  11.726  21.310  0.00  0.00    +0.000 A 
ATOM     22  C   UNL     1       0.060  10.784  20.735  0.00  0.00    +0.000 A 
ENDBRANCH   3   5
BRANCH   1  23
ATOM     23  C   UNL     1       2.477   7.453  19.074  0.00  0.00    +0.000 C 
BRANCH  23  24
ATOM     24  C   UNL     1       3.199   7.675  17.755  0.00  0.00    +0.000 C 
BRANCH  24  26
ATOM     25  N   UNL     1       4.330   5.640  18.432  0.00  0.00    +0.000 N 
ATOM     26  C   UNL     1       4.324   6.684  17.537  0.00  0.00    +0.000 C 
ATOM     27  O   UNL     1       5.145   6.823  16.636  0.00  0.00    +0.000 OA
ATOM     28  H   UNL     1       3.633   5.582  19.162  0.00  0.00    +0.000 HD
BRANCH  25  29
ATOM     29  C   UNL     1       5.332   4.592  18.406  0.00  0.00    +0.000 C 
BRANCH  29  30
ATOM     30  C   UNL     1       4.868   3.319  19.111  0.00  0.00    +0.000 C 
BRANCH  30  31
ATOM     31  C   UNL     1       3.633   2.650  18.477  0.00  0.00    +0.000 C 
BRANCH  31  32
ATOM     32  N   UNL     1       2.465   2.489  19.368  0.00  0.00    +0.000 NA
BRANCH  32  34
ATOM     33  C   UNL     1       2.021   4.129  21.249  0.00  0.00    +0.000 C 
ATOM     34  C   UNL     1       2.778   2.903  20.747  0.00  0.00    +0.000 C 
ENDBRANCH  32  34
BRANCH  32  35
ATOM     35  C   UNL     1       1.267   3.149  18.812  0.00  0.00    +0.000 C 
ATOM     36  C   UNL     1       1.500   4.144  17.676  0.00  0.00    +0.000 C 
ENDBRANCH  32  35
ENDBRANCH  31  32
ENDBRANCH  30  31
ENDBRANCH  29  30
ENDBRANCH  25  29
ENDBRANCH  24  26
ENDBRANCH  23  24
ENDBRANCH   1  23
TORSDOF 10
ENDMDL
MODEL 7
REMARK VINA RESULT:      -6.8      1.043      1.434
REMARK  Name = 
REMARK  14 active torsions:
REMARK  status: ('A' for Active; 'I' for Inactive)
REMARK    1  A    between atoms: C_1  and  C_2
REMARK    2  A    between atoms: C_2  and  N_3
REMARK    3  A    between atoms: N_3  and  C_4
REMARK    4  A    between atoms: N_3  and  C_6
REMARK    5  A    between atoms: C_4  and  C_5
REMARK    6  A    between atoms: C_6  and  C_7
REMARK    7  A    between atoms: C_7  and  C_8
REMARK    8  A    between atoms: C_8  and  N_9
REMARK    9  A    between atoms: C_10  and  C_12
REMARK   10  A    between atoms: C_12  and  C_13
REMARK   11  A    between atoms: C_13  and  C_14
REMARK   12  A    between atoms: N_16  and  C_17
REMARK   13  A    between atoms: C_26  and  C_27
REMARK   14  A    between atoms: C_31  and  C_32
REMARK                            x       y       z     vdW  Elec       q    Type
REMARK                         _______ _______ _______ _____ _____    ______ ____
ROOT
ATOM      1  C   UNL     1       3.237   5.928  19.333  0.00  0.00    +0.000 C 
ATOM      2  O   UNL     1       3.609   6.541  18.335  0.00  0.00    +0.000 OA
ATOM      3  N   UNL     1       2.419   6.423  20.335  0.00  0.00    +0.000 N 
ATOM      4  H   UNL     1       2.393   5.916  21.211  0.00  0.00    +0.000 HD
ENDROOT
BRANCH   3   5
ATOM      5  C   UNL     1       1.727   7.657  20.294  0.00  0.00    +0.000 A 
ATOM      6  C   UNL     1       1.516   8.366  19.118  0.00  0.00    +0.000 A 
ATOM      7  C   UNL     1       0.772   9.549  19.124  0.00  0.00    +0.000 A 
ATOM      8  C   UNL     1       0.222  10.062  20.283  0.00  0.00    +0.000 A 
ATOM      9  N   UNL     1      -0.531  11.171  20.191  0.00  0.00    +0.000 NA
ATOM     10  C   UNL     1      -1.079  11.712  21.296  0.00  0.00    +0.000 A 
ATOM     11  N   UNL     1      -1.949  12.772  21.163  0.00  0.00    +0.000 N 
ATOM     12  C   UNL     1      -2.080  13.827  22.157  0.00  0.00    +0.000 C 
ATOM     13  C   UNL     1      -3.564  14.037  22.456  0.00  0.00    +0.000 C 
ATOM     14  C   UNL     1      -4.369  14.292  21.170  0.00  0.00    +0.000 C 
ATOM     15  C   UNL     1      -5.862  14.366  21.483  0.00  0.00    +0.000 C 
ATOM     16  C   UNL     1      -4.088  13.203  20.120  0.00  0.00    +0.000 C 
ATOM     17  C   UNL     1      -2.583  13.026  19.874  0.00  0.00    +0.000 C 
ATOM     18  C   UNL     1      -0.832  11.142  22.539  0.00  0.00    +0.000 A 
ATOM     19  C   UNL     1      -0.071   9.971  22.659  0.00  0.00    +0.000 A 
ATOM     20  C   UNL     1       0.110   9.380  24.029  0.00  0.00    +0.000 C 
ATOM     21  C   UNL     1       0.461   9.386  21.498  0.00  0.00    +0.000 A 
ATOM     22  C   UNL     1       1.200   8.172  21.481  0.00  0.00    +0.000 A 
ENDBRANCH   3   5
BRANCH   1  23
ATOM     23  C   UNL     1       3.709   4.508  19.561  0.00  0.00    +0.000 C 
BRANCH  23  24
ATOM     24  C   UNL     1       2.874   3.467  18.832  0.00  0.00    +0.000 C 
BRANCH  24  26
ATOM     25  N   UNL     1       4.423   3.882  17.013  0.00  0.00    +0.000 N 
ATOM     26  C   UNL     1       3.170   3.424  17.347  0.00  0.00    +0.000 C 
ATOM     27  O   UNL     1       2.348   3.014  16.534  0.00  0.00    +0.000 OA
ATOM     28  H   UNL     1       5.056   4.218  17.727  0.00  0.00    +0.000 HD
BRANCH  25  29
ATOM     29  C   UNL     1       4.897   3.939  15.645  0.00  0.00    +0.000 C 
BRANCH  29  30
ATOM     30  C   UNL     1       5.675   5.219  15.345  0.00  0.00    +0.000 C 
BRANCH  30  31
ATOM     31  C   UNL     1       7.184   5.136  15.644  0.00  0.00    +0.000 C 
BRANCH  31  32
ATOM     32  N   UNL     1       7.626   5.792  16.891  0.00  0.00    +0.000 NA
BRANCH  32  34
ATOM     33  C   UNL     1       7.694   8.250  17.507  0.00  0.00    +0.000 C 
ATOM     34  C   UNL     1       6.859   7.023  17.154  0.00  0.00    +0.000 C 
ENDBRANCH  32  34
BRANCH  32  35
ATOM     35  C   UNL     1       7.633   4.848  18.025  0.00  0.00    +0.000 C 
ATOM     36  C   UNL     1       7.075   5.368  19.350  0.00  0.00    +0.000 C 
ENDBRANCH  32  35
ENDBRANCH  31  32
ENDBRANCH  30  31
ENDBRANCH  29  30
ENDBRANCH  25  29
ENDBRANCH  24  26
ENDBRANCH  23  24
ENDBRANCH   1  23
TORSDOF 10
ENDMDL
MODEL 8
REMARK VINA RESULT:      -6.7      2.794      3.401
REMARK  Name = 
REMARK  14 active torsions:
REMARK  status: ('A' for Active; 'I' for Inactive)
REMARK    1  A    between atoms: C_1  and  C_2
REMARK    2  A    between atoms: C_2  and  N_3
REMARK    3  A    between atoms: N_3  and  C_4
REMARK    4  A    between atoms: N_3  and  C_6
REMARK    5  A    between atoms: C_4  and  C_5
REMARK    6  A    between atoms: C_6  and  C_7
REMARK    7  A    between atoms: C_7  and  C_8
REMARK    8  A    between atoms: C_8  and  N_9
REMARK    9  A    between atoms: C_10  and  C_12
REMARK   10  A    between atoms: C_12  and  C_13
REMARK   11  A    between atoms: C_13  and  C_14
REMARK   12  A    between atoms: N_16  and  C_17
REMARK   13  A    between atoms: C_26  and  C_27
REMARK   14  A    between atoms: C_31  and  C_32
REMARK                            x       y       z     vdW  Elec       q    Type
REMARK                         _______ _______ _______ _____ _____    ______ ____
ROOT
ATOM      1  C   UNL     1       2.955   5.350  18.863  0.00  0.00    +0.000 C 
ATOM      2  O   UNL     1       1.832   4.895  18.664  0.00  0.00    +0.000 OA
ATOM      3  N   UNL     1       3.292   6.693  18.914  0.00  0.00    +0.000 N 
ATOM      4  H   UNL     1       4.272   6.933  18.833  0.00  0.00    +0.000 HD
ENDROOT
BRANCH   3   5
ATOM      5  C   UNL     1       2.373   7.769  18.924  0.00  0.00    +0.000 A 
ATOM      6  C   UNL     1       1.960   8.420  17.767  0.00  0.00    +0.000 A 
ATOM      7  C   UNL     1       1.002   9.436  17.827  0.00  0.00    +0.000 A 
ATOM      8  C   UNL     1       0.431   9.836  19.020  0.00  0.00    +0.000 A 
ATOM      9  N   UNL     1      -0.527  10.777  18.980  0.00  0.00    +0.000 NA
ATOM     10  C   UNL     1      -1.105  11.205  20.120  0.00  0.00    +0.000 A 
ATOM     11  N   UNL     1      -2.169  12.075  20.046  0.00  0.00    +0.000 N 
ATOM     12  C   UNL     1      -2.445  13.088  21.055  0.00  0.00    +0.000 C 
ATOM     13  C   UNL     1      -3.922  13.006  21.440  0.00  0.00    +0.000 C 
ATOM     14  C   UNL     1      -4.834  13.097  20.205  0.00  0.00    +0.000 C 
ATOM     15  C   UNL     1      -6.292  12.880  20.604  0.00  0.00    +0.000 C 
ATOM     16  C   UNL     1      -4.408  12.080  19.131  0.00  0.00    +0.000 C 
ATOM     17  C   UNL     1      -2.915  12.198  18.798  0.00  0.00    +0.000 C 
ATOM     18  C   UNL     1      -0.680  10.697  21.341  0.00  0.00    +0.000 A 
ATOM     19  C   UNL     1       0.300   9.697  21.408  0.00  0.00    +0.000 A 
ATOM     20  C   UNL     1       0.671   9.156  22.760  0.00  0.00    +0.000 C 
ATOM     21  C   UNL     1       0.867   9.223  20.213  0.00  0.00    +0.000 A 
ATOM     22  C   UNL     1       1.826   8.176  20.144  0.00  0.00    +0.000 A 
ENDBRANCH   3   5
BRANCH   1  23
ATOM     23  C   UNL     1       4.127   4.409  19.043  0.00  0.00    +0.000 C 
BRANCH  23  24
ATOM     24  C   UNL     1       5.438   5.122  19.331  0.00  0.00    +0.000 C 
BRANCH  24  26
ATOM     25  N   UNL     1       7.007   6.699  18.367  0.00  0.00    +0.000 N 
ATOM     26  C   UNL     1       6.026   5.775  18.096  0.00  0.00    +0.000 C 
ATOM     27  O   UNL     1       5.643   5.487  16.967  0.00  0.00    +0.000 OA
ATOM     28  H   UNL     1       7.276   6.902  19.320  0.00  0.00    +0.000 HD
BRANCH  25  29
ATOM     29  C   UNL     1       7.687   7.446  17.326  0.00  0.00    +0.000 C 
BRANCH  29  30
ATOM     30  C   UNL     1       7.818   8.931  17.661  0.00  0.00    +0.000 C 
BRANCH  30  31
ATOM     31  C   UNL     1       8.691   9.234  18.894  0.00  0.00    +0.000 C 
BRANCH  31  32
ATOM     32  N   UNL     1       8.955  10.664  19.155  0.00  0.00    +0.000 NA
BRANCH  32  34
ATOM     33  C   UNL     1       9.277  11.868  21.362  0.00  0.00    +0.000 C 
ATOM     34  C   UNL     1       9.795  10.848  20.352  0.00  0.00    +0.000 C 
ENDBRANCH  32  34
BRANCH  32  35
ATOM     35  C   UNL     1       9.481  11.344  17.955  0.00  0.00    +0.000 C 
ATOM     36  C   UNL     1       9.137  12.825  17.803  0.00  0.00    +0.000 C 
ENDBRANCH  32  35
ENDBRANCH  31  32
ENDBRANCH  30  31
ENDBRANCH  29  30
ENDBRANCH  25  29
ENDBRANCH  24  26
ENDBRANCH  23  24
ENDBRANCH   1  23
TORSDOF 10
ENDMDL
MODEL 9
REMARK VINA RESULT:      -6.7      3.336      4.061
REMARK  Name = 
REMARK  14 active torsions:
REMARK  status: ('A' for Active; 'I' for Inactive)
REMARK    1  A    between atoms: C_1  and  C_2
REMARK    2  A    between atoms: C_2  and  N_3
REMARK    3  A    between atoms: N_3  and  C_4
REMARK    4  A    between atoms: N_3  and  C_6
REMARK    5  A    between atoms: C_4  and  C_5
REMARK    6  A    between atoms: C_6  and  C_7
REMARK    7  A    between atoms: C_7  and  C_8
REMARK    8  A    between atoms: C_8  and  N_9
REMARK    9  A    between atoms: C_10  and  C_12
REMARK   10  A    between atoms: C_12  and  C_13
REMARK   11  A    between atoms: C_13  and  C_14
REMARK   12  A    between atoms: N_16  and  C_17
REMARK   13  A    between atoms: C_26  and  C_27
REMARK   14  A    between atoms: C_31  and  C_32
REMARK                            x       y       z     vdW  Elec       q    Type
REMARK                         _______ _______ _______ _____ _____    ______ ____
ROOT
ATOM      1  C   UNL     1       4.320   6.498  18.042  0.00  0.00    +0.000 C 
ATOM      2  O   UNL     1       4.805   7.410  17.378  0.00  0.00    +0.000 OA
ATOM      3  N   UNL     1       3.202   6.587  18.856  0.00  0.00    +0.000 N 
ATOM      4  H   UNL     1       3.056   5.849  19.533  0.00  0.00    +0.000 HD
ENDROOT
BRANCH   3   5
ATOM      5  C   UNL     1       2.324   7.695  18.924  0.00  0.00    +0.000 A 
ATOM      6  C   UNL     1       1.866   8.367  17.796  0.00  0.00    +0.000 A 
ATOM      7  C   UNL     1       0.951   9.416  17.916  0.00  0.00    +0.000 A 
ATOM      8  C   UNL     1       0.466   9.829  19.143  0.00  0.00    +0.000 A 
ATOM      9  N   UNL     1      -0.458  10.803  19.164  0.00  0.00    +0.000 NA
ATOM     10  C   UNL     1      -0.951  11.244  20.337  0.00  0.00    +0.000 A 
ATOM     11  N   UNL     1      -1.987  12.152  20.330  0.00  0.00    +0.000 N 
ATOM     12  C   UNL     1      -2.166  13.168  21.357  0.00  0.00    +0.000 C 
ATOM     13  C   UNL     1      -3.619  13.137  21.830  0.00  0.00    +0.000 C 
ATOM     14  C   UNL     1      -4.600  13.266  20.652  0.00  0.00    +0.000 C 
ATOM     15  C   UNL     1      -6.038  13.099  21.136  0.00  0.00    +0.000 C 
ATOM     16  C   UNL     1      -4.275  12.242  19.550  0.00  0.00    +0.000 C 
ATOM     17  C   UNL     1      -2.800  12.308  19.129  0.00  0.00    +0.000 C 
ATOM     18  C   UNL     1      -0.473  10.715  21.530  0.00  0.00    +0.000 A 
ATOM     19  C   UNL     1       0.472   9.680  21.534  0.00  0.00    +0.000 A 
ATOM     20  C   UNL     1       0.904   9.118  22.860  0.00  0.00    +0.000 C 
ATOM     21  C   UNL     1       0.951   9.193  20.306  0.00  0.00    +0.000 A 
ATOM     22  C   UNL     1       1.865   8.113  20.175  0.00  0.00    +0.000 A 
ENDBRANCH   3   5
BRANCH   1  23
ATOM     23  C   UNL     1       4.977   5.134  18.038  0.00  0.00    +0.000 C 
BRANCH  23  24
ATOM     24  C   UNL     1       6.460   5.174  18.367  0.00  0.00    +0.000 C 
BRANCH  24  26
ATOM     25  N   UNL     1       7.623   7.290  18.141  0.00  0.00    +0.000 N 
ATOM     26  C   UNL     1       7.222   6.147  17.490  0.00  0.00    +0.000 C 
ATOM     27  O   UNL     1       7.446   5.914  16.307  0.00  0.00    +0.000 OA
ATOM     28  H   UNL     1       7.402   7.432  19.117  0.00  0.00    +0.000 HD
BRANCH  25  29
ATOM     29  C   UNL     1       8.352   8.354  17.478  0.00  0.00    +0.000 C 
BRANCH  29  30
ATOM     30  C   UNL     1       8.139   9.713  18.142  0.00  0.00    +0.000 C 
BRANCH  30  31
ATOM     31  C   UNL     1       9.180  10.068  19.221  0.00  0.00    +0.000 C 
BRANCH  31  32
ATOM     32  N   UNL     1       9.593  11.485  19.269  0.00  0.00    +0.000 NA
BRANCH  32  34
ATOM     33  C   UNL     1      12.024  11.818  19.904  0.00  0.00    +0.000 C 
ATOM     34  C   UNL     1      10.567  11.726  20.349  0.00  0.00    +0.000 C 
ENDBRANCH  32  34
BRANCH  32  35
ATOM     35  C   UNL     1      10.047  11.961  17.948  0.00  0.00    +0.000 C 
ATOM     36  C   UNL     1       9.647  13.385  17.560  0.00  0.00    +0.000 C 
ENDBRANCH  32  35
ENDBRANCH  31  32
ENDBRANCH  30  31
ENDBRANCH  29  30
ENDBRANCH  25  29
ENDBRANCH  24  26
ENDBRANCH  23  24
ENDBRANCH   1  23
TORSDOF 10
ENDMDL
