MODEL 1
REMARK VINA RESULT:      -8.6      0.000      0.000
REMARK  Name = 
REMARK  10 active torsions:
REMARK  status: ('A' for Active; 'I' for Inactive)
REMARK    1  A    between atoms: C_1  and  O_2
REMARK    2  A    between atoms: O_2  and  C_3
REMARK    3  A    between atoms: C_6  and  C_7
REMARK    4  A    between atoms: C_7  and  O_8
REMARK    5  A    between atoms: O_8  and  C_9
REMARK    6  A    between atoms: C_11  and  C_12
REMARK    7  A    between atoms: C_16  and  O_17
REMARK    8  A    between atoms: O_17  and  C_18
REMARK    9  A    between atoms: C_24  and  N_25
REMARK   10  A    between atoms: C_26  and  C_28
REMARK                            x       y       z     vdW  Elec       q    Type
REMARK                         _______ _______ _______ _____ _____    ______ ____
ROOT
ATOM      1  C   UNL     1       5.765   5.833  17.320  0.00  0.00    +0.000 A 
ATOM      2  C   UNL     1       6.425   4.735  17.946  0.00  0.00    +0.000 A 
ATOM      3  C   UNL     1       5.636   4.079  18.851  0.00  0.00    +0.000 A 
ATOM      4  N   UNL     1       5.162   4.908  19.783  0.00  0.00    +0.000 NA
ATOM      5  C   UNL     1       4.394   5.891  19.304  0.00  0.00    +0.000 A 
ATOM      6  C   UNL     1       3.225   6.090  20.007  0.00  0.00    +0.000 A 
ATOM      7  C   UNL     1       2.203   6.919  19.571  0.00  0.00    +0.000 A 
ATOM      8  C   UNL     1       2.404   7.793  18.518  0.00  0.00    +0.000 A 
ATOM      9  C   UNL     1       3.618   7.594  17.759  0.00  0.00    +0.000 A 
ATOM     10  C   UNL     1       4.609   6.496  18.045  0.00  0.00    +0.000 A 
ENDROOT
BRANCH   3  11
ATOM     11  C   UNL     1       4.465   3.212  18.369  0.00  0.00    +0.000 A 
ATOM     12  C   UNL     1       3.856   3.471  17.132  0.00  0.00    +0.000 A 
ATOM     13  C   UNL     1       2.470   3.421  17.001  0.00  0.00    +0.000 A 
ATOM     14  C   UNL     1       1.692   2.983  18.065  0.00  0.00    +0.000 A 
ATOM     15  C   UNL     1       2.301   2.483  19.215  0.00  0.00    +0.000 A 
ATOM     16  C   UNL     1       3.692   2.543  19.341  0.00  0.00    +0.000 A 
BRANCH  15  17
ATOM     17  O   UNL     1       1.437   2.108  20.209  0.00  0.00    +0.000 OA
ATOM     18  C   UNL     1       1.716   2.646  21.493  0.00  0.00    +0.000 C 
ENDBRANCH  15  17
ENDBRANCH   3  11
BRANCH   8  19
ATOM     19  N   UNL     1       1.423   8.856  18.329  0.00  0.00    +0.000 N 
ATOM     20  C   UNL     1       0.968   9.713  19.371  0.00  0.00    +0.000 C 
ATOM     21  O   UNL     1       1.114   9.465  20.570  0.00  0.00    +0.000 OA
ATOM     22  H   UNL     1       1.025   8.969  17.407  0.00  0.00    +0.000 HD
BRANCH  20  23
ATOM     23  C   UNL     1       0.200  10.987  19.083  0.00  0.00    +0.000 A 
ATOM     24  C   UNL     1      -1.196  10.988  19.318  0.00  0.00    +0.000 A 
ATOM     25  C   UNL     1      -1.980  12.149  19.183  0.00  0.00    +0.000 A 
ATOM     26  C   UNL     1      -1.373  13.350  18.839  0.00  0.00    +0.000 A 
ATOM     27  C   UNL     1       0.011  13.382  18.651  0.00  0.00    +0.000 A 
ATOM     28  C   UNL     1       0.797  12.212  18.774  0.00  0.00    +0.000 A 
ENDBRANCH  20  23
ENDBRANCH   8  19
BRANCH   1  29
ATOM     29  O   UNL     1       6.073   6.082  16.000  0.00  0.00    +0.000 OA
BRANCH  29  30
ATOM     30  C   UNL     1       7.140   5.278  15.310  0.00  0.00    +0.000 C 
BRANCH  30  34
ATOM     31  C   UNL     1       5.370   3.213  11.850  0.00  0.00    +0.000 A 
ATOM     32  C   UNL     1       4.665   3.462  13.031  0.00  0.00    +0.000 A 
ATOM     33  C   UNL     1       5.258   4.098  14.111  0.00  0.00    +0.000 A 
ATOM     34  C   UNL     1       6.587   4.534  14.078  0.00  0.00    +0.000 A 
ATOM     35  C   UNL     1       7.331   4.197  12.912  0.00  0.00    +0.000 A 
ATOM     36  C   UNL     1       6.725   3.551  11.789  0.00  0.00    +0.000 A 
BRANCH  31  38
ATOM     37  C   UNL     1       3.353   3.127  10.545  0.00  0.00    +0.000 C 
ATOM     38  O   UNL     1       4.616   2.583  10.898  0.00  0.00    +0.000 OA
ENDBRANCH  31  38
ENDBRANCH  30  34
ENDBRANCH  29  30
ENDBRANCH   1  29
TORSDOF 8
ENDMDL
MODEL 2
REMARK VINA RESULT:      -8.5      1.066      1.261
REMARK  Name = 
REMARK  10 active torsions:
REMARK  status: ('A' for Active; 'I' for Inactive)
REMARK    1  A    between atoms: C_1  and  O_2
REMARK    2  A    between atoms: O_2  and  C_3
REMARK    3  A    between atoms: C_6  and  C_7
REMARK    4  A    between atoms: C_7  and  O_8
REMARK    5  A    between atoms: O_8  and  C_9
REMARK    6  A    between atoms: C_11  and  C_12
REMARK    7  A    between atoms: C_16  and  O_17
REMARK    8  A    between atoms: O_17  and  C_18
REMARK    9  A    between atoms: C_24  and  N_25
REMARK   10  A    between atoms: C_26  and  C_28
REMARK                            x       y       z     vdW  Elec       q    Type
REMARK                         _______ _______ _______ _____ _____    ______ ____
ROOT
ATOM      1  C   UNL     1       5.255   5.861  17.383  0.00  0.00    +0.000 A 
ATOM      2  C   UNL     1       6.040   4.750  17.811  0.00  0.00    +0.000 A 
ATOM      3  C   UNL     1       5.417   3.988  18.761  0.00  0.00    +0.000 A 
ATOM      4  N   UNL     1       5.057   4.717  19.820  0.00  0.00    +0.000 NA
ATOM      5  C   UNL     1       4.191   5.697  19.541  0.00  0.00    +0.000 A 
ATOM      6  C   UNL     1       3.132   5.782  20.420  0.00  0.00    +0.000 A 
ATOM      7  C   UNL     1       2.027   6.593  20.207  0.00  0.00    +0.000 A 
ATOM      8  C   UNL     1       2.038   7.556  19.215  0.00  0.00    +0.000 A 
ATOM      9  C   UNL     1       3.134   7.476  18.274  0.00  0.00    +0.000 A 
ATOM     10  C   UNL     1       4.195   6.409  18.321  0.00  0.00    +0.000 A 
ENDROOT
BRANCH   3  11
ATOM     11  C   UNL     1       4.221   3.106  18.382  0.00  0.00    +0.000 A 
ATOM     12  C   UNL     1       3.544   3.316  17.171  0.00  0.00    +0.000 A 
ATOM     13  C   UNL     1       2.152   3.266  17.119  0.00  0.00    +0.000 A 
ATOM     14  C   UNL     1       1.434   2.874  18.242  0.00  0.00    +0.000 A 
ATOM     15  C   UNL     1       2.106   2.420  19.376  0.00  0.00    +0.000 A 
ATOM     16  C   UNL     1       3.502   2.481  19.422  0.00  0.00    +0.000 A 
BRANCH  15  17
ATOM     17  O   UNL     1       1.298   2.089  20.431  0.00  0.00    +0.000 OA
ATOM     18  C   UNL     1       1.718   2.580  21.696  0.00  0.00    +0.000 C 
ENDBRANCH  15  17
ENDBRANCH   3  11
BRANCH   8  19
ATOM     19  N   UNL     1       1.003   8.582  19.260  0.00  0.00    +0.000 N 
ATOM     20  C   UNL     1       0.849   9.600  18.275  0.00  0.00    +0.000 C 
ATOM     21  O   UNL     1       1.728   9.905  17.467  0.00  0.00    +0.000 OA
ATOM     22  H   UNL     1       0.378   8.584  20.053  0.00  0.00    +0.000 HD
BRANCH  20  23
ATOM     23  C   UNL     1      -0.406  10.445  18.186  0.00  0.00    +0.000 A 
ATOM     24  C   UNL     1      -1.474   9.966  17.392  0.00  0.00    +0.000 A 
ATOM     25  C   UNL     1      -2.718  10.623  17.330  0.00  0.00    +0.000 A 
ATOM     26  C   UNL     1      -2.929  11.765  18.091  0.00  0.00    +0.000 A 
ATOM     27  C   UNL     1      -1.904  12.228  18.920  0.00  0.00    +0.000 A 
ATOM     28  C   UNL     1      -0.649  11.574  18.973  0.00  0.00    +0.000 A 
ENDBRANCH  20  23
ENDBRANCH   8  19
BRANCH   1  29
ATOM     29  O   UNL     1       5.356   6.228  16.058  0.00  0.00    +0.000 OA
BRANCH  29  30
ATOM     30  C   UNL     1       6.636   5.994  15.306  0.00  0.00    +0.000 C 
BRANCH  30  34
ATOM     31  C   UNL     1       5.905   3.072  12.097  0.00  0.00    +0.000 A 
ATOM     32  C   UNL     1       5.043   3.240  13.185  0.00  0.00    +0.000 A 
ATOM     33  C   UNL     1       5.313   4.156  14.191  0.00  0.00    +0.000 A 
ATOM     34  C   UNL     1       6.452   4.969  14.169  0.00  0.00    +0.000 A 
ATOM     35  C   UNL     1       7.374   4.731  13.111  0.00  0.00    +0.000 A 
ATOM     36  C   UNL     1       7.099   3.796  12.064  0.00  0.00    +0.000 A 
BRANCH  31  38
ATOM     37  C   UNL     1       6.252   0.966  10.990  0.00  0.00    +0.000 C 
ATOM     38  O   UNL     1       5.467   2.129  11.208  0.00  0.00    +0.000 OA
ENDBRANCH  31  38
ENDBRANCH  30  34
ENDBRANCH  29  30
ENDBRANCH   1  29
TORSDOF 8
ENDMDL
MODEL 3
REMARK VINA RESULT:      -8.4      4.266      8.472
REMARK  Name = 
REMARK  10 active torsions:
REMARK  status: ('A' for Active; 'I' for Inactive)
REMARK    1  A    between atoms: C_1  and  O_2
REMARK    2  A    between atoms: O_2  and  C_3
REMARK    3  A    between atoms: C_6  and  C_7
REMARK    4  A    between atoms: C_7  and  O_8
REMARK    5  A    between atoms: O_8  and  C_9
REMARK    6  A    between atoms: C_11  and  C_12
REMARK    7  A    between atoms: C_16  and  O_17
REMARK    8  A    between atoms: O_17  and  C_18
REMARK    9  A    between atoms: C_24  and  N_25
REMARK   10  A    between atoms: C_26  and  C_28
REMARK                            x       y       z     vdW  Elec       q    Type
REMARK                         _______ _______ _______ _____ _____    ______ ____
ROOT
ATOM      1  C   UNL     1       0.788   9.720  18.507  0.00  0.00    +0.000 A 
ATOM      2  C   UNL     1      -0.458   9.312  19.068  0.00  0.00    +0.000 A 
ATOM      3  C   UNL     1      -1.312  10.357  19.293  0.00  0.00    +0.000 A 
ATOM      4  N   UNL     1      -0.756  11.290  20.067  0.00  0.00    +0.000 NA
ATOM      5  C   UNL     1       0.343  11.848  19.550  0.00  0.00    +0.000 A 
ATOM      6  C   UNL     1       0.376  13.224  19.641  0.00  0.00    +0.000 A 
ATOM      7  C   UNL     1       1.323  14.009  19.002  0.00  0.00    +0.000 A 
ATOM      8  C   UNL     1       2.445  13.437  18.429  0.00  0.00    +0.000 A 
ATOM      9  C   UNL     1       2.425  11.996  18.311  0.00  0.00    +0.000 A 
ATOM     10  C   UNL     1       1.262  11.141  18.742  0.00  0.00    +0.000 A 
ENDROOT
BRANCH   3  11
ATOM     11  C   UNL     1      -1.980  11.075  18.113  0.00  0.00    +0.000 A 
ATOM     12  C   UNL     1      -3.149  11.826  18.313  0.00  0.00    +0.000 A 
ATOM     13  C   UNL     1      -4.200  11.757  17.400  0.00  0.00    +0.000 A 
ATOM     14  C   UNL     1      -4.039  11.047  16.217  0.00  0.00    +0.000 A 
ATOM     15  C   UNL     1      -2.796  10.507  15.890  0.00  0.00    +0.000 A 
ATOM     16  C   UNL     1      -1.750  10.574  16.815  0.00  0.00    +0.000 A 
BRANCH  15  17
ATOM     17  O   UNL     1      -2.763   9.805  14.715  0.00  0.00    +0.000 OA
ATOM     18  C   UNL     1      -3.898   9.969  13.876  0.00  0.00    +0.000 C 
ENDBRANCH  15  17
ENDBRANCH   3  11
BRANCH   8  19
ATOM     19  N   UNL     1       3.548  14.324  18.077  0.00  0.00    +0.000 N 
ATOM     20  C   UNL     1       4.421  14.925  19.029  0.00  0.00    +0.000 C 
ATOM     21  O   UNL     1       4.165  15.007  20.232  0.00  0.00    +0.000 OA
ATOM     22  H   UNL     1       3.678  14.545  17.100  0.00  0.00    +0.000 HD
BRANCH  20  23
ATOM     23  C   UNL     1       5.725  15.578  18.619  0.00  0.00    +0.000 A 
ATOM     24  C   UNL     1       6.022  16.857  19.148  0.00  0.00    +0.000 A 
ATOM     25  C   UNL     1       7.253  17.499  18.914  0.00  0.00    +0.000 A 
ATOM     26  C   UNL     1       8.231  16.856  18.166  0.00  0.00    +0.000 A 
ATOM     27  C   UNL     1       7.977  15.573  17.676  0.00  0.00    +0.000 A 
ATOM     28  C   UNL     1       6.735  14.932  17.901  0.00  0.00    +0.000 A 
ENDBRANCH  20  23
ENDBRANCH   8  19
BRANCH   1  29
ATOM     29  O   UNL     1       1.379   8.864  17.602  0.00  0.00    +0.000 OA
BRANCH  29  30
ATOM     30  C   UNL     1       2.655   8.154  17.956  0.00  0.00    +0.000 C 
BRANCH  30  34
ATOM     31  C   UNL     1       1.969   4.230  19.826  0.00  0.00    +0.000 A 
ATOM     32  C   UNL     1       2.090   4.404  18.445  0.00  0.00    +0.000 A 
ATOM     33  C   UNL     1       2.286   5.658  17.885  0.00  0.00    +0.000 A 
ATOM     34  C   UNL     1       2.384   6.813  18.668  0.00  0.00    +0.000 A 
ATOM     35  C   UNL     1       2.168   6.647  20.066  0.00  0.00    +0.000 A 
ATOM     36  C   UNL     1       1.976   5.357  20.652  0.00  0.00    +0.000 A 
BRANCH  31  38
ATOM     37  C   UNL     1       1.494   2.613  21.542  0.00  0.00    +0.000 C 
ATOM     38  O   UNL     1       1.787   2.923  20.188  0.00  0.00    +0.000 OA
ENDBRANCH  31  38
ENDBRANCH  30  34
ENDBRANCH  29  30
ENDBRANCH   1  29
TORSDOF 8
ENDMDL
MODEL 4
REMARK VINA RESULT:      -8.3      4.403     11.753
REMARK  Name = 
REMARK  10 active torsions:
REMARK  status: ('A' for Active; 'I' for Inactive)
REMARK    1  A    between atoms: C_1  and  O_2
REMARK    2  A    between atoms: O_2  and  C_3
REMARK    3  A    between atoms: C_6  and  C_7
REMARK    4  A    between atoms: C_7  and  O_8
REMARK    5  A    between atoms: O_8  and  C_9
REMARK    6  A    between atoms: C_11  and  C_12
REMARK    7  A    between atoms: C_16  and  O_17
REMARK    8  A    between atoms: O_17  and  C_18
REMARK    9  A    between atoms: C_24  and  N_25
REMARK   10  A    between atoms: C_26  and  C_28
REMARK                            x       y       z     vdW  Elec       q    Type
REMARK                         _______ _______ _______ _____ _____    ______ ____
ROOT
ATOM      1  C   UNL     1      -0.693  11.615  20.996  0.00  0.00    +0.000 A 
ATOM      2  C   UNL     1      -1.149  12.721  20.218  0.00  0.00    +0.000 A 
ATOM      3  C   UNL     1      -1.082  12.493  18.871  0.00  0.00    +0.000 A 
ATOM      4  N   UNL     1       0.152  12.154  18.489  0.00  0.00    +0.000 NA
ATOM      5  C   UNL     1       0.611  11.032  19.053  0.00  0.00    +0.000 A 
ATOM      6  C   UNL     1       1.212  10.160  18.170  0.00  0.00    +0.000 A 
ATOM      7  C   UNL     1       1.580   8.866  18.505  0.00  0.00    +0.000 A 
ATOM      8  C   UNL     1       1.589   8.454  19.825  0.00  0.00    +0.000 A 
ATOM      9  C   UNL     1       0.952   9.347  20.766  0.00  0.00    +0.000 A 
ATOM     10  C   UNL     1       0.282  10.637  20.369  0.00  0.00    +0.000 A 
ENDROOT
BRANCH   3  11
ATOM     11  C   UNL     1      -2.055  11.512  18.204  0.00  0.00    +0.000 A 
ATOM     12  C   UNL     1      -1.806  11.044  16.905  0.00  0.00    +0.000 A 
ATOM     13  C   UNL     1      -2.843  10.939  15.979  0.00  0.00    +0.000 A 
ATOM     14  C   UNL     1      -4.152  11.172  16.382  0.00  0.00    +0.000 A 
ATOM     15  C   UNL     1      -4.440  11.391  17.728  0.00  0.00    +0.000 A 
ATOM     16  C   UNL     1      -3.394  11.502  18.648  0.00  0.00    +0.000 A 
BRANCH  15  17
ATOM     17  O   UNL     1      -5.759  11.637  18.003  0.00  0.00    +0.000 OA
ATOM     18  C   UNL     1      -6.448  10.586  18.665  0.00  0.00    +0.000 C 
ENDBRANCH  15  17
ENDBRANCH   3  11
BRANCH   8  19
ATOM     19  N   UNL     1       2.295   7.217  20.140  0.00  0.00    +0.000 N 
ATOM     20  C   UNL     1       1.646   5.975  20.394  0.00  0.00    +0.000 C 
ATOM     21  O   UNL     1       0.449   5.874  20.671  0.00  0.00    +0.000 OA
ATOM     22  H   UNL     1       3.302   7.255  20.208  0.00  0.00    +0.000 HD
BRANCH  20  23
ATOM     23  C   UNL     1       2.405   4.663  20.409  0.00  0.00    +0.000 A 
ATOM     24  C   UNL     1       3.538   4.542  19.569  0.00  0.00    +0.000 A 
ATOM     25  C   UNL     1       4.369   3.406  19.588  0.00  0.00    +0.000 A 
ATOM     26  C   UNL     1       4.100   2.374  20.478  0.00  0.00    +0.000 A 
ATOM     27  C   UNL     1       3.015   2.495  21.350  0.00  0.00    +0.000 A 
ATOM     28  C   UNL     1       2.172   3.631  21.322  0.00  0.00    +0.000 A 
ENDBRANCH  20  23
ENDBRANCH   8  19
BRANCH   1  29
ATOM     29  O   UNL     1      -1.337  11.381  22.192  0.00  0.00    +0.000 OA
BRANCH  29  30
ATOM     30  C   UNL     1      -1.626  12.521  23.128  0.00  0.00    +0.000 C 
BRANCH  30  34
ATOM     31  C   UNL     1      -5.971  12.995  23.647  0.00  0.00    +0.000 A 
ATOM     32  C   UNL     1      -5.279  13.484  22.536  0.00  0.00    +0.000 A 
ATOM     33  C   UNL     1      -3.906  13.336  22.412  0.00  0.00    +0.000 A 
ATOM     34  C   UNL     1      -3.140  12.681  23.382  0.00  0.00    +0.000 A 
ATOM     35  C   UNL     1      -3.830  12.267  24.556  0.00  0.00    +0.000 A 
ATOM     36  C   UNL     1      -5.248  12.406  24.688  0.00  0.00    +0.000 A 
BRANCH  31  38
ATOM     37  C   UNL     1      -7.780  14.561  23.402  0.00  0.00    +0.000 C 
ATOM     38  O   UNL     1      -7.317  13.231  23.586  0.00  0.00    +0.000 OA
ENDBRANCH  31  38
ENDBRANCH  30  34
ENDBRANCH  29  30
ENDBRANCH   1  29
TORSDOF 8
ENDMDL
MODEL 5
REMARK VINA RESULT:      -8.3      6.922      9.258
REMARK  Name = 
REMARK  10 active torsions:
REMARK  status: ('A' for Active; 'I' for Inactive)
REMARK    1  A    between atoms: C_1  and  O_2
REMARK    2  A    between atoms: O_2  and  C_3
REMARK    3  A    between atoms: C_6  and  C_7
REMARK    4  A    between atoms: C_7  and  O_8
REMARK    5  A    between atoms: O_8  and  C_9
REMARK    6  A    between atoms: C_11  and  C_12
REMARK    7  A    between atoms: C_16  and  O_17
REMARK    8  A    between atoms: O_17  and  C_18
REMARK    9  A    between atoms: C_24  and  N_25
REMARK   10  A    between atoms: C_26  and  C_28
REMARK                            x       y       z     vdW  Elec       q    Type
REMARK                         _______ _______ _______ _____ _____    ______ ____
ROOT
ATOM      1  C   UNL     1       9.684  11.225  18.050  0.00  0.00    +0.000 A 
ATOM      2  C   UNL     1      11.095  11.328  18.229  0.00  0.00    +0.000 A 
ATOM      3  C   UNL     1      11.490  12.561  18.673  0.00  0.00    +0.000 A 
ATOM      4  N   UNL     1      11.068  13.535  17.864  0.00  0.00    +0.000 NA
ATOM      5  C   UNL     1       9.738  13.617  17.753  0.00  0.00    +0.000 A 
ATOM      6  C   UNL     1       9.240  14.899  17.858  0.00  0.00    +0.000 A 
ATOM      7  C   UNL     1       7.888  15.186  17.965  0.00  0.00    +0.000 A 
ATOM      8  C   UNL     1       6.937  14.211  17.724  0.00  0.00    +0.000 A 
ATOM      9  C   UNL     1       7.436  12.858  17.624  0.00  0.00    +0.000 A 
ATOM     10  C   UNL     1       8.887  12.490  17.798  0.00  0.00    +0.000 A 
ENDROOT
BRANCH   3  11
ATOM     11  C   UNL     1      11.189  12.997  20.113  0.00  0.00    +0.000 A 
ATOM     12  C   UNL     1      10.338  12.227  20.921  0.00  0.00    +0.000 A 
ATOM     13  C   UNL     1       9.390  12.841  21.738  0.00  0.00    +0.000 A 
ATOM     14  C   UNL     1       9.375  14.225  21.856  0.00  0.00    +0.000 A 
ATOM     15  C   UNL     1      10.376  14.988  21.256  0.00  0.00    +0.000 A 
ATOM     16  C   UNL     1      11.318  14.365  20.433  0.00  0.00    +0.000 A 
BRANCH  15  17
ATOM     17  O   UNL     1      10.244  16.341  21.415  0.00  0.00    +0.000 OA
ATOM     18  C   UNL     1      11.104  16.927  22.383  0.00  0.00    +0.000 C 
ENDBRANCH  15  17
ENDBRANCH   3  11
BRANCH   8  19
ATOM     19  N   UNL     1       5.560  14.648  17.523  0.00  0.00    +0.000 N 
ATOM     20  C   UNL     1       4.701  15.078  18.575  0.00  0.00    +0.000 C 
ATOM     21  O   UNL     1       4.914  14.848  19.767  0.00  0.00    +0.000 OA
ATOM     22  H   UNL     1       5.189  14.614  16.584  0.00  0.00    +0.000 HD
BRANCH  20  23
ATOM     23  C   UNL     1       3.403  15.809  18.300  0.00  0.00    +0.000 A 
ATOM     24  C   UNL     1       2.351  15.670  19.238  0.00  0.00    +0.000 A 
ATOM     25  C   UNL     1       1.147  16.391  19.128  0.00  0.00    +0.000 A 
ATOM     26  C   UNL     1       0.982  17.296  18.088  0.00  0.00    +0.000 A 
ATOM     27  C   UNL     1       2.026  17.485  17.180  0.00  0.00    +0.000 A 
ATOM     28  C   UNL     1       3.232  16.752  17.283  0.00  0.00    +0.000 A 
ENDBRANCH  20  23
ENDBRANCH   8  19
BRANCH   1  29
ATOM     29  O   UNL     1       9.103  10.008  18.337  0.00  0.00    +0.000 OA
BRANCH  29  30
ATOM     30  C   UNL     1       8.097   9.411  17.394  0.00  0.00    +0.000 C 
BRANCH  30  34
ATOM     31  C   UNL     1       6.832   5.325  18.431  0.00  0.00    +0.000 A 
ATOM     32  C   UNL     1       6.141   6.128  17.518  0.00  0.00    +0.000 A 
ATOM     33  C   UNL     1       6.554   7.419  17.228  0.00  0.00    +0.000 A 
ATOM     34  C   UNL     1       7.688   7.987  17.821  0.00  0.00    +0.000 A 
ATOM     35  C   UNL     1       8.335   7.204  18.819  0.00  0.00    +0.000 A 
ATOM     36  C   UNL     1       7.922   5.867  19.116  0.00  0.00    +0.000 A 
BRANCH  31  38
ATOM     37  C   UNL     1       4.945   3.973  19.058  0.00  0.00    +0.000 C 
ATOM     38  O   UNL     1       6.277   4.084  18.579  0.00  0.00    +0.000 OA
ENDBRANCH  31  38
ENDBRANCH  30  34
ENDBRANCH  29  30
ENDBRANCH   1  29
TORSDOF 8
ENDMDL
MODEL 6
REMARK VINA RESULT:      -8.3      0.696      1.282
REMARK  Name = 
REMARK  10 active torsions:
REMARK  status: ('A' for Active; 'I' for Inactive)
REMARK    1  A    between atoms: C_1  and  O_2
REMARK    2  A    between atoms: O_2  and  C_3
REMARK    3  A    between atoms: C_6  and  C_7
REMARK    4  A    between atoms: C_7  and  O_8
REMARK    5  A    between atoms: O_8  and  C_9
REMARK    6  A    between atoms: C_11  and  C_12
REMARK    7  A    between atoms: C_16  and  O_17
REMARK    8  A    between atoms: O_17  and  C_18
REMARK    9  A    between atoms: C_24  and  N_25
REMARK   10  A    between atoms: C_26  and  C_28
REMARK                            x       y       z     vdW  Elec       q    Type
REMARK                         _______ _______ _______ _____ _____    ______ ____
ROOT
ATOM      1  C   UNL     1       5.558   5.927  17.209  0.00  0.00    +0.000 A 
ATOM      2  C   UNL     1       6.265   4.808  17.741  0.00  0.00    +0.000 A 
ATOM      3  C   UNL     1       5.545   4.114  18.674  0.00  0.00    +0.000 A 
ATOM      4  N   UNL     1       5.139   4.903  19.671  0.00  0.00    +0.000 NA
ATOM      5  C   UNL     1       4.337   5.901  19.289  0.00  0.00    +0.000 A 
ATOM      6  C   UNL     1       3.221   6.066  20.082  0.00  0.00    +0.000 A 
ATOM      7  C   UNL     1       2.169   6.907  19.755  0.00  0.00    +0.000 A 
ATOM      8  C   UNL     1       2.290   7.822  18.726  0.00  0.00    +0.000 A 
ATOM      9  C   UNL     1       3.446   7.660  17.872  0.00  0.00    +0.000 A 
ATOM     10  C   UNL     1       4.458   6.556  18.042  0.00  0.00    +0.000 A 
ENDROOT
BRANCH   3  11
ATOM     11  C   UNL     1       4.344   3.261  18.245  0.00  0.00    +0.000 A 
ATOM     12  C   UNL     1       3.639   3.572  17.073  0.00  0.00    +0.000 A 
ATOM     13  C   UNL     1       2.246   3.518  17.048  0.00  0.00    +0.000 A 
ATOM     14  C   UNL     1       1.556   3.025  18.148  0.00  0.00    +0.000 A 
ATOM     15  C   UNL     1       2.256   2.477  19.222  0.00  0.00    +0.000 A 
ATOM     16  C   UNL     1       3.652   2.542  19.243  0.00  0.00    +0.000 A 
BRANCH  15  17
ATOM     17  O   UNL     1       1.473   2.048  20.262  0.00  0.00    +0.000 OA
ATOM     18  C   UNL     1       1.628   2.769  21.476  0.00  0.00    +0.000 C 
ENDBRANCH  15  17
ENDBRANCH   3  11
BRANCH   8  19
ATOM     19  N   UNL     1       1.297   8.888  18.651  0.00  0.00    +0.000 N 
ATOM     20  C   UNL     1       0.883   9.669  19.767  0.00  0.00    +0.000 C 
ATOM     21  O   UNL     1       1.082   9.343  20.939  0.00  0.00    +0.000 OA
ATOM     22  H   UNL     1       0.859   9.059  17.756  0.00  0.00    +0.000 HD
BRANCH  20  23
ATOM     23  C   UNL     1       0.096  10.953  19.599  0.00  0.00    +0.000 A 
ATOM     24  C   UNL     1       0.574  12.116  20.249  0.00  0.00    +0.000 A 
ATOM     25  C   UNL     1      -0.025  13.377  20.070  0.00  0.00    +0.000 A 
ATOM     26  C   UNL     1      -1.103  13.507  19.205  0.00  0.00    +0.000 A 
ATOM     27  C   UNL     1      -1.561  12.382  18.515  0.00  0.00    +0.000 A 
ATOM     28  C   UNL     1      -0.966  11.112  18.704  0.00  0.00    +0.000 A 
ENDBRANCH  20  23
ENDBRANCH   8  19
BRANCH   1  29
ATOM     29  O   UNL     1       5.770   6.229  15.881  0.00  0.00    +0.000 OA
BRANCH  29  30
ATOM     30  C   UNL     1       6.950   5.649  15.154  0.00  0.00    +0.000 C 
BRANCH  30  34
ATOM     31  C   UNL     1       5.902   2.835  11.936  0.00  0.00    +0.000 A 
ATOM     32  C   UNL     1       7.130   3.499  11.997  0.00  0.00    +0.000 A 
ATOM     33  C   UNL     1       7.422   4.395  13.014  0.00  0.00    +0.000 A 
ATOM     34  C   UNL     1       6.512   4.677  14.039  0.00  0.00    +0.000 A 
ATOM     35  C   UNL     1       5.228   4.072  13.925  0.00  0.00    +0.000 A 
ATOM     36  C   UNL     1       4.923   3.139  12.886  0.00  0.00    +0.000 A 
BRANCH  31  38
ATOM     37  C   UNL     1       6.130   0.616  11.037  0.00  0.00    +0.000 C 
ATOM     38  O   UNL     1       5.803   1.988  10.866  0.00  0.00    +0.000 OA
ENDBRANCH  31  38
ENDBRANCH  30  34
ENDBRANCH  29  30
ENDBRANCH   1  29
TORSDOF 8
ENDMDL
MODEL 7
REMARK VINA RESULT:      -8.2      6.690      8.939
REMARK  Name = 
REMARK  10 active torsions:
REMARK  status: ('A' for Active; 'I' for Inactive)
REMARK    1  A    between atoms: C_1  and  O_2
REMARK    2  A    between atoms: O_2  and  C_3
REMARK    3  A    between atoms: C_6  and  C_7
REMARK    4  A    between atoms: C_7  and  O_8
REMARK    5  A    between atoms: O_8  and  C_9
REMARK    6  A    between atoms: C_11  and  C_12
REMARK    7  A    between atoms: C_16  and  O_17
REMARK    8  A    between atoms: O_17  and  C_18
REMARK    9  A    between atoms: C_24  and  N_25
REMARK   10  A    between atoms: C_26  and  C_28
REMARK                            x       y       z     vdW  Elec       q    Type
REMARK                         _______ _______ _______ _____ _____    ______ ____
ROOT
ATOM      1  C   UNL     1       9.151  11.305  17.856  0.00  0.00    +0.000 A 
ATOM      2  C   UNL     1      10.540  11.171  18.151  0.00  0.00    +0.000 A 
ATOM      3  C   UNL     1      11.058  12.262  18.794  0.00  0.00    +0.000 A 
ATOM      4  N   UNL     1      10.852  13.386  18.103  0.00  0.00    +0.000 NA
ATOM      5  C   UNL     1       9.563  13.681  17.908  0.00  0.00    +0.000 A 
ATOM      6  C   UNL     1       9.240  14.997  18.157  0.00  0.00    +0.000 A 
ATOM      7  C   UNL     1       7.937  15.468  18.204  0.00  0.00    +0.000 A 
ATOM      8  C   UNL     1       6.887  14.687  17.757  0.00  0.00    +0.000 A 
ATOM      9  C   UNL     1       7.201  13.298  17.503  0.00  0.00    +0.000 A 
ATOM     10  C   UNL     1       8.564  12.698  17.729  0.00  0.00    +0.000 A 
ENDROOT
BRANCH   3  11
ATOM     11  C   UNL     1      10.687  12.547  20.255  0.00  0.00    +0.000 A 
ATOM     12  C   UNL     1       9.727  11.757  20.907  0.00  0.00    +0.000 A 
ATOM     13  C   UNL     1       8.770  12.344  21.733  0.00  0.00    +0.000 A 
ATOM     14  C   UNL     1       8.846  13.701  22.020  0.00  0.00    +0.000 A 
ATOM     15  C   UNL     1       9.940  14.447  21.583  0.00  0.00    +0.000 A 
ATOM     16  C   UNL     1      10.891  13.853  20.749  0.00  0.00    +0.000 A 
BRANCH  15  17
ATOM     17  O   UNL     1       9.894  15.778  21.900  0.00  0.00    +0.000 OA
ATOM     18  C   UNL     1       8.796  16.173  22.710  0.00  0.00    +0.000 C 
ENDBRANCH  15  17
ENDBRANCH   3  11
BRANCH   8  19
ATOM     19  N   UNL     1       5.608  15.347  17.521  0.00  0.00    +0.000 N 
ATOM     20  C   UNL     1       4.568  15.438  18.490  0.00  0.00    +0.000 C 
ATOM     21  O   UNL     1       4.511  14.728  19.496  0.00  0.00    +0.000 OA
ATOM     22  H   UNL     1       5.444  15.737  16.603  0.00  0.00    +0.000 HD
BRANCH  20  23
ATOM     23  C   UNL     1       3.397  16.385  18.323  0.00  0.00    +0.000 A 
ATOM     24  C   UNL     1       3.076  16.819  17.014  0.00  0.00    +0.000 A 
ATOM     25  C   UNL     1       1.945  17.612  16.742  0.00  0.00    +0.000 A 
ATOM     26  C   UNL     1       1.089  17.963  17.778  0.00  0.00    +0.000 A 
ATOM     27  C   UNL     1       1.360  17.505  19.069  0.00  0.00    +0.000 A 
ATOM     28  C   UNL     1       2.504  16.717  19.344  0.00  0.00    +0.000 A 
ENDBRANCH  20  23
ENDBRANCH   8  19
BRANCH   1  29
ATOM     29  O   UNL     1       8.383  10.162  17.923  0.00  0.00    +0.000 OA
BRANCH  29  30
ATOM     30  C   UNL     1       8.774   9.043  18.846  0.00  0.00    +0.000 C 
BRANCH  30  34
ATOM     31  C   UNL     1       7.037   5.272  17.386  0.00  0.00    +0.000 A 
ATOM     32  C   UNL     1       6.912   6.484  16.701  0.00  0.00    +0.000 A 
ATOM     33  C   UNL     1       7.454   7.659  17.199  0.00  0.00    +0.000 A 
ATOM     34  C   UNL     1       8.164   7.697  18.403  0.00  0.00    +0.000 A 
ATOM     35  C   UNL     1       8.211   6.483  19.145  0.00  0.00    +0.000 A 
ATOM     36  C   UNL     1       7.664   5.264  18.635  0.00  0.00    +0.000 A 
BRANCH  31  38
ATOM     37  C   UNL     1       6.403   4.224  15.316  0.00  0.00    +0.000 C 
ATOM     38  O   UNL     1       6.443   4.225  16.736  0.00  0.00    +0.000 OA
ENDBRANCH  31  38
ENDBRANCH  30  34
ENDBRANCH  29  30
ENDBRANCH   1  29
TORSDOF 8
ENDMDL
MODEL 8
REMARK VINA RESULT:      -8.1      4.278     11.612
REMARK  Name = 
REMARK  10 active torsions:
REMARK  status: ('A' for Active; 'I' for Inactive)
REMARK    1  A    between atoms: C_1  and  O_2
REMARK    2  A    between atoms: O_2  and  C_3
REMARK    3  A    between atoms: C_6  and  C_7
REMARK    4  A    between atoms: C_7  and  O_8
REMARK    5  A    between atoms: O_8  and  C_9
REMARK    6  A    between atoms: C_11  and  C_12
REMARK    7  A    between atoms: C_16  and  O_17
REMARK    8  A    between atoms: O_17  and  C_18
REMARK    9  A    between atoms: C_24  and  N_25
REMARK   10  A    between atoms: C_26  and  C_28
REMARK                            x       y       z     vdW  Elec       q    Type
REMARK                         _______ _______ _______ _____ _____    ______ ____
ROOT
ATOM      1  C   UNL     1      -0.571  11.350  20.826  0.00  0.00    +0.000 A 
ATOM      2  C   UNL     1      -1.103  12.511  20.190  0.00  0.00    +0.000 A 
ATOM      3  C   UNL     1      -1.119  12.415  18.825  0.00  0.00    +0.000 A 
ATOM      4  N   UNL     1       0.094  12.150  18.335  0.00  0.00    +0.000 NA
ATOM      5  C   UNL     1       0.616  10.994  18.757  0.00  0.00    +0.000 A 
ATOM      6  C   UNL     1       1.177  10.228  17.757  0.00  0.00    +0.000 A 
ATOM      7  C   UNL     1       1.596   8.920  17.941  0.00  0.00    +0.000 A 
ATOM      8  C   UNL     1       1.702   8.384  19.211  0.00  0.00    +0.000 A 
ATOM      9  C   UNL     1       1.107   9.164  20.274  0.00  0.00    +0.000 A 
ATOM     10  C   UNL     1       0.383  10.465  20.046  0.00  0.00    +0.000 A 
ENDROOT
BRANCH   3  11
ATOM     11  C   UNL     1      -2.111  11.474  18.129  0.00  0.00    +0.000 A 
ATOM     12  C   UNL     1      -1.972  11.187  16.763  0.00  0.00    +0.000 A 
ATOM     13  C   UNL     1      -3.090  11.143  15.931  0.00  0.00    +0.000 A 
ATOM     14  C   UNL     1      -4.362  11.252  16.479  0.00  0.00    +0.000 A 
ATOM     15  C   UNL     1      -4.524  11.285  17.863  0.00  0.00    +0.000 A 
ATOM     16  C   UNL     1      -3.398  11.336  18.690  0.00  0.00    +0.000 A 
BRANCH  15  17
ATOM     17  O   UNL     1      -5.819  11.422  18.289  0.00  0.00    +0.000 OA
ATOM     18  C   UNL     1      -6.627  12.290  17.507  0.00  0.00    +0.000 C 
ENDBRANCH  15  17
ENDBRANCH   3  11
BRANCH   8  19
ATOM     19  N   UNL     1       2.455   7.143  19.360  0.00  0.00    +0.000 N 
ATOM     20  C   UNL     1       1.969   5.996  20.049  0.00  0.00    +0.000 C 
ATOM     21  O   UNL     1       1.019   6.023  20.834  0.00  0.00    +0.000 OA
ATOM     22  H   UNL     1       3.387   7.112  18.973  0.00  0.00    +0.000 HD
BRANCH  20  23
ATOM     23  C   UNL     1       2.634   4.641  19.918  0.00  0.00    +0.000 A 
ATOM     24  C   UNL     1       1.803   3.498  19.835  0.00  0.00    +0.000 A 
ATOM     25  C   UNL     1       2.320   2.209  19.606  0.00  0.00    +0.000 A 
ATOM     26  C   UNL     1       3.686   2.040  19.422  0.00  0.00    +0.000 A 
ATOM     27  C   UNL     1       4.519   3.161  19.450  0.00  0.00    +0.000 A 
ATOM     28  C   UNL     1       4.001   4.456  19.693  0.00  0.00    +0.000 A 
ENDBRANCH  20  23
ENDBRANCH   8  19
BRANCH   1  29
ATOM     29  O   UNL     1      -1.130  10.985  22.032  0.00  0.00    +0.000 OA
BRANCH  29  30
ATOM     30  C   UNL     1      -1.418  12.026  23.076  0.00  0.00    +0.000 C 
BRANCH  30  34
ATOM     31  C   UNL     1      -5.695  12.940  23.570  0.00  0.00    +0.000 A 
ATOM     32  C   UNL     1      -4.874  12.544  24.629  0.00  0.00    +0.000 A 
ATOM     33  C   UNL     1      -3.534  12.243  24.437  0.00  0.00    +0.000 A 
ATOM     34  C   UNL     1      -2.927  12.330  23.179  0.00  0.00    +0.000 A 
ATOM     35  C   UNL     1      -3.784  12.643  22.086  0.00  0.00    +0.000 A 
ATOM     36  C   UNL     1      -5.165  12.964  22.277  0.00  0.00    +0.000 A 
BRANCH  31  38
ATOM     37  C   UNL     1      -7.914  13.664  22.993  0.00  0.00    +0.000 C 
ATOM     38  O   UNL     1      -6.981  13.199  23.957  0.00  0.00    +0.000 OA
ENDBRANCH  31  38
ENDBRANCH  30  34
ENDBRANCH  29  30
ENDBRANCH   1  29
TORSDOF 8
ENDMDL
MODEL 9
REMARK VINA RESULT:      -8.1      4.416     11.806
REMARK  Name = 
REMARK  10 active torsions:
REMARK  status: ('A' for Active; 'I' for Inactive)
REMARK    1  A    between atoms: C_1  and  O_2
REMARK    2  A    between atoms: O_2  and  C_3
REMARK    3  A    between atoms: C_6  and  C_7
REMARK    4  A    between atoms: C_7  and  O_8
REMARK    5  A    between atoms: O_8  and  C_9
REMARK    6  A    between atoms: C_11  and  C_12
REMARK    7  A    between atoms: C_16  and  O_17
REMARK    8  A    between atoms: O_17  and  C_18
REMARK    9  A    between atoms: C_24  and  N_25
REMARK   10  A    between atoms: C_26  and  C_28
REMARK                            x       y       z     vdW  Elec       q    Type
REMARK                         _______ _______ _______ _____ _____    ______ ____
ROOT
ATOM      1  C   UNL     1      -0.792  11.631  20.798  0.00  0.00    +0.000 A 
ATOM      2  C   UNL     1      -1.304  12.684  19.983  0.00  0.00    +0.000 A 
ATOM      3  C   UNL     1      -1.236  12.407  18.645  0.00  0.00    +0.000 A 
ATOM      4  N   UNL     1       0.009  12.111  18.265  0.00  0.00    +0.000 NA
ATOM      5  C   UNL     1       0.524  11.034  18.867  0.00  0.00    +0.000 A 
ATOM      6  C   UNL     1       1.159  10.158  18.012  0.00  0.00    +0.000 A 
ATOM      7  C   UNL     1       1.589   8.897  18.394  0.00  0.00    +0.000 A 
ATOM      8  C   UNL     1       1.627   8.537  19.728  0.00  0.00    +0.000 A 
ATOM      9  C   UNL     1       0.956   9.435  20.641  0.00  0.00    +0.000 A 
ATOM     10  C   UNL     1       0.223  10.676  20.200  0.00  0.00    +0.000 A 
ENDROOT
BRANCH   3  11
ATOM     11  C   UNL     1      -2.168  11.357  18.025  0.00  0.00    +0.000 A 
ATOM     12  C   UNL     1      -1.847  10.767  16.793  0.00  0.00    +0.000 A 
ATOM     13  C   UNL     1      -2.831  10.563  15.828  0.00  0.00    +0.000 A 
ATOM     14  C   UNL     1      -4.161  10.822  16.135  0.00  0.00    +0.000 A 
ATOM     15  C   UNL     1      -4.523  11.168  17.435  0.00  0.00    +0.000 A 
ATOM     16  C   UNL     1      -3.529  11.378  18.396  0.00  0.00    +0.000 A 
BRANCH  15  17
ATOM     17  O   UNL     1      -5.856  11.427  17.614  0.00  0.00    +0.000 OA
ATOM     18  C   UNL     1      -6.266  12.750  17.299  0.00  0.00    +0.000 C 
ENDBRANCH  15  17
ENDBRANCH   3  11
BRANCH   8  19
ATOM     19  N   UNL     1       2.392   7.347  20.084  0.00  0.00    +0.000 N 
ATOM     20  C   UNL     1       1.804   6.087  20.392  0.00  0.00    +0.000 C 
ATOM     21  O   UNL     1       0.615   5.942  20.684  0.00  0.00    +0.000 OA
ATOM     22  H   UNL     1       3.397   7.435  20.142  0.00  0.00    +0.000 HD
BRANCH  20  23
ATOM     23  C   UNL     1       2.623   4.813  20.450  0.00  0.00    +0.000 A 
ATOM     24  C   UNL     1       2.183   3.778  21.310  0.00  0.00    +0.000 A 
ATOM     25  C   UNL     1       2.812   2.520  21.355  0.00  0.00    +0.000 A 
ATOM     26  C   UNL     1       3.885   2.259  20.512  0.00  0.00    +0.000 A 
ATOM     27  C   UNL     1       4.305   3.250  19.621  0.00  0.00    +0.000 A 
ATOM     28  C   UNL     1       3.680   4.519  19.584  0.00  0.00    +0.000 A 
ENDBRANCH  20  23
ENDBRANCH   8  19
BRANCH   1  29
ATOM     29  O   UNL     1      -1.415  11.415  22.008  0.00  0.00    +0.000 OA
BRANCH  29  30
ATOM     30  C   UNL     1      -1.322  12.443  23.100  0.00  0.00    +0.000 C 
BRANCH  30  34
ATOM     31  C   UNL     1      -5.271  14.284  23.721  0.00  0.00    +0.000 A 
ATOM     32  C   UNL     1      -5.067  13.184  22.884  0.00  0.00    +0.000 A 
ATOM     33  C   UNL     1      -3.806  12.639  22.694  0.00  0.00    +0.000 A 
ATOM     34  C   UNL     1      -2.672  13.151  23.335  0.00  0.00    +0.000 A 
ATOM     35  C   UNL     1      -2.866  14.328  24.112  0.00  0.00    +0.000 A 
ATOM     36  C   UNL     1      -4.164  14.890  24.322  0.00  0.00    +0.000 A 
BRANCH  31  38
ATOM     37  C   UNL     1      -7.043  15.700  22.921  0.00  0.00    +0.000 C 
ATOM     38  O   UNL     1      -6.581  14.673  23.786  0.00  0.00    +0.000 OA
ENDBRANCH  31  38
ENDBRANCH  30  34
ENDBRANCH  29  30
ENDBRANCH   1  29
TORSDOF 8
ENDMDL
