MODEL 1
REMARK VINA RESULT:      -9.3      0.000      0.000
REMARK  Name = 
REMARK  7 active torsions:
REMARK  status: ('A' for Active; 'I' for Inactive)
REMARK    1  A    between atoms: C_1  and  C_2
REMARK    2  A    between atoms: N_4  and  C_5
REMARK    3  A    between atoms: C_8  and  C_9
REMARK    4  A    between atoms: C_14  and  C_15
REMARK    5  A    between atoms: C_20  and  N_21
REMARK    6  A    between atoms: C_22  and  C_24
REMARK    7  A    between atoms: C_26  and  C_27
REMARK                            x       y       z     vdW  Elec       q    Type
REMARK                         _______ _______ _______ _____ _____    ______ ____
ROOT
ATOM      1  C   UNL     1       2.006   4.563  20.567  0.00  0.00    +0.000 C 
ATOM      2  C   UNL     1       1.921   6.027  20.341  0.00  0.00    +0.000 A 
ATOM      3  N   UNL     1       1.068   6.765  21.066  0.00  0.00    +0.000 NA
ATOM      4  N   UNL     1       1.248   8.028  20.629  0.00  0.00    +0.000 N 
ATOM      5  C   UNL     1       2.177   8.089  19.621  0.00  0.00    +0.000 A 
ATOM      6  C   UNL     1       2.640   6.817  19.406  0.00  0.00    +0.000 A 
ENDROOT
BRANCH   4   7
ATOM      7  C   UNL     1       0.442   9.097  21.092  0.00  0.00    +0.000 A 
ATOM      8  C   UNL     1      -0.038   9.012  22.416  0.00  0.00    +0.000 A 
ATOM      9  C   UNL     1      -0.758  10.060  22.989  0.00  0.00    +0.000 A 
ATOM     10  C   UNL     1      -1.024  11.214  22.250  0.00  0.00    +0.000 A 
ATOM     11  C   UNL     1      -0.572  11.282  20.921  0.00  0.00    +0.000 A 
ATOM     12  C   UNL     1       0.152  10.228  20.308  0.00  0.00    +0.000 A 
BRANCH  10  13
ATOM     13  C   UNL     1      -1.791  12.366  22.855  0.00  0.00    +0.000 C 
ATOM     14  F   UNL     1      -2.370  13.179  21.928  0.00  0.00    +0.000 F 
ATOM     15  F   UNL     1      -2.800  11.946  23.666  0.00  0.00    +0.000 F 
ATOM     16  F   UNL     1      -1.002  13.170  23.618  0.00  0.00    +0.000 F 
ENDBRANCH  10  13
BRANCH  12  17
ATOM     17  C   UNL     1       0.453  10.396  18.830  0.00  0.00    +0.000 C 
ATOM     18  F   UNL     1       0.136   9.372  18.000  0.00  0.00    +0.000 F 
ATOM     19  F   UNL     1      -0.259  11.454  18.323  0.00  0.00    +0.000 F 
ATOM     20  F   UNL     1       1.757  10.713  18.598  0.00  0.00    +0.000 F 
ENDBRANCH  12  17
ENDBRANCH   4   7
BRANCH   6  21
ATOM     21  N   UNL     1       3.592   6.418  18.486  0.00  0.00    +0.000 N 
ATOM     22  C   UNL     1       4.772   5.757  18.796  0.00  0.00    +0.000 C 
ATOM     23  O   UNL     1       5.139   5.427  19.919  0.00  0.00    +0.000 OA
ATOM     24  H   UNL     1       3.432   6.629  17.508  0.00  0.00    +0.000 HD
BRANCH  22  25
ATOM     25  C   UNL     1       5.589   5.462  17.617  0.00  0.00    +0.000 A 
ATOM     26  C   UNL     1       5.130   5.001  16.360  0.00  0.00    +0.000 A 
ATOM     27  C   UNL     1       6.258   4.942  15.579  0.00  0.00    +0.000 A 
ATOM     28  O   UNL     1       7.334   5.295  16.339  0.00  0.00    +0.000 OA
ATOM     29  N   UNL     1       6.922   5.622  17.615  0.00  0.00    +0.000 NA
BRANCH  27  30
ATOM     30  C   UNL     1       6.509   4.644  14.181  0.00  0.00    +0.000 A 
ATOM     31  C   UNL     1       5.814   3.660  13.486  0.00  0.00    +0.000 A 
ATOM     32  C   UNL     1       6.186   3.377  12.175  0.00  0.00    +0.000 A 
ATOM     33  C   UNL     1       7.230   4.087  11.595  0.00  0.00    +0.000 A 
ATOM     34  C   UNL     1       7.854   5.066  12.351  0.00  0.00    +0.000 A 
ATOM     35  N   UNL     1       7.518   5.361  13.626  0.00  0.00    +0.000 NA
ENDBRANCH  27  30
ENDBRANCH  22  25
ENDBRANCH   6  21
TORSDOF 6
ENDMDL
MODEL 2
REMARK VINA RESULT:      -9.3      0.590      1.119
REMARK  Name = 
REMARK  7 active torsions:
REMARK  status: ('A' for Active; 'I' for Inactive)
REMARK    1  A    between atoms: C_1  and  C_2
REMARK    2  A    between atoms: N_4  and  C_5
REMARK    3  A    between atoms: C_8  and  C_9
REMARK    4  A    between atoms: C_14  and  C_15
REMARK    5  A    between atoms: C_20  and  N_21
REMARK    6  A    between atoms: C_22  and  C_24
REMARK    7  A    between atoms: C_26  and  C_27
REMARK                            x       y       z     vdW  Elec       q    Type
REMARK                         _______ _______ _______ _____ _____    ______ ____
ROOT
ATOM      1  C   UNL     1       2.021   4.256  20.533  0.00  0.00    +0.000 C 
ATOM      2  C   UNL     1       1.997   5.721  20.297  0.00  0.00    +0.000 A 
ATOM      3  N   UNL     1       1.155   6.495  20.995  0.00  0.00    +0.000 NA
ATOM      4  N   UNL     1       1.394   7.748  20.556  0.00  0.00    +0.000 N 
ATOM      5  C   UNL     1       2.351   7.767  19.573  0.00  0.00    +0.000 A 
ATOM      6  C   UNL     1       2.771   6.477  19.377  0.00  0.00    +0.000 A 
ENDROOT
BRANCH   4   7
ATOM      7  C   UNL     1       0.617   8.850  20.992  0.00  0.00    +0.000 A 
ATOM      8  C   UNL     1       0.172   8.832  22.331  0.00  0.00    +0.000 A 
ATOM      9  C   UNL     1      -0.516   9.916  22.875  0.00  0.00    +0.000 A 
ATOM     10  C   UNL     1      -0.784  11.039  22.092  0.00  0.00    +0.000 A 
ATOM     11  C   UNL     1      -0.368  11.040  20.750  0.00  0.00    +0.000 A 
ATOM     12  C   UNL     1       0.323   9.948  20.166  0.00  0.00    +0.000 A 
BRANCH  10  13
ATOM     13  C   UNL     1      -1.517  12.230  22.665  0.00  0.00    +0.000 C 
ATOM     14  F   UNL     1      -2.460  11.894  23.588  0.00  0.00    +0.000 F 
ATOM     15  F   UNL     1      -0.679  13.104  23.286  0.00  0.00    +0.000 F 
ATOM     16  F   UNL     1      -2.168  12.946  21.708  0.00  0.00    +0.000 F 
ENDBRANCH  10  13
BRANCH  12  17
ATOM     17  C   UNL     1       0.585  10.046  18.674  0.00  0.00    +0.000 C 
ATOM     18  F   UNL     1       0.300   8.962  17.911  0.00  0.00    +0.000 F 
ATOM     19  F   UNL     1      -0.186  11.039  18.125  0.00  0.00    +0.000 F 
ATOM     20  F   UNL     1       1.868  10.409  18.395  0.00  0.00    +0.000 F 
ENDBRANCH  12  17
ENDBRANCH   4   7
BRANCH   6  21
ATOM     21  N   UNL     1       3.730   6.036  18.485  0.00  0.00    +0.000 N 
ATOM     22  C   UNL     1       4.955   5.488  18.838  0.00  0.00    +0.000 C 
ATOM     23  O   UNL     1       5.361   5.310  19.982  0.00  0.00    +0.000 OA
ATOM     24  H   UNL     1       3.541   6.127  17.493  0.00  0.00    +0.000 HD
BRANCH  22  25
ATOM     25  C   UNL     1       5.769   5.114  17.679  0.00  0.00    +0.000 A 
ATOM     26  C   UNL     1       5.334   4.999  16.338  0.00  0.00    +0.000 A 
ATOM     27  C   UNL     1       6.470   4.692  15.629  0.00  0.00    +0.000 A 
ATOM     28  O   UNL     1       7.511   4.578  16.502  0.00  0.00    +0.000 OA
ATOM     29  N   UNL     1       7.079   4.841  17.787  0.00  0.00    +0.000 NA
BRANCH  27  30
ATOM     30  C   UNL     1       6.771   4.524  14.220  0.00  0.00    +0.000 A 
ATOM     31  C   UNL     1       7.665   5.345  13.540  0.00  0.00    +0.000 A 
ATOM     32  C   UNL     1       7.822   5.171  12.168  0.00  0.00    +0.000 A 
ATOM     33  C   UNL     1       7.092   4.183  11.519  0.00  0.00    +0.000 A 
ATOM     34  C   UNL     1       6.241   3.396  12.275  0.00  0.00    +0.000 A 
ATOM     35  N   UNL     1       6.065   3.542  13.607  0.00  0.00    +0.000 NA
ENDBRANCH  27  30
ENDBRANCH  22  25
ENDBRANCH   6  21
TORSDOF 6
ENDMDL
MODEL 3
REMARK VINA RESULT:      -9.0      5.080     10.699
REMARK  Name = 
REMARK  7 active torsions:
REMARK  status: ('A' for Active; 'I' for Inactive)
REMARK    1  A    between atoms: C_1  and  C_2
REMARK    2  A    between atoms: N_4  and  C_5
REMARK    3  A    between atoms: C_8  and  C_9
REMARK    4  A    between atoms: C_14  and  C_15
REMARK    5  A    between atoms: C_20  and  N_21
REMARK    6  A    between atoms: C_22  and  C_24
REMARK    7  A    between atoms: C_26  and  C_27
REMARK                            x       y       z     vdW  Elec       q    Type
REMARK                         _______ _______ _______ _____ _____    ______ ____
ROOT
ATOM      1  C   UNL     1       1.500   8.361  21.754  0.00  0.00    +0.000 C 
ATOM      2  C   UNL     1       1.685   8.087  20.307  0.00  0.00    +0.000 A 
ATOM      3  N   UNL     1       2.648   7.245  19.905  0.00  0.00    +0.000 NA
ATOM      4  N   UNL     1       2.537   7.210  18.561  0.00  0.00    +0.000 N 
ATOM      5  C   UNL     1       1.540   8.040  18.113  0.00  0.00    +0.000 A 
ATOM      6  C   UNL     1       0.961   8.624  19.210  0.00  0.00    +0.000 A 
ENDROOT
BRANCH   4   7
ATOM      7  C   UNL     1       3.459   6.497  17.757  0.00  0.00    +0.000 A 
ATOM      8  C   UNL     1       4.550   7.223  17.234  0.00  0.00    +0.000 A 
ATOM      9  C   UNL     1       5.558   6.585  16.511  0.00  0.00    +0.000 A 
ATOM     10  C   UNL     1       5.495   5.210  16.285  0.00  0.00    +0.000 A 
ATOM     11  C   UNL     1       4.390   4.496  16.780  0.00  0.00    +0.000 A 
ATOM     12  C   UNL     1       3.345   5.118  17.507  0.00  0.00    +0.000 A 
BRANCH  10  13
ATOM     13  C   UNL     1       6.582   4.497  15.515  0.00  0.00    +0.000 C 
ATOM     14  F   UNL     1       6.158   3.353  14.910  0.00  0.00    +0.000 F 
ATOM     15  F   UNL     1       7.109   5.271  14.527  0.00  0.00    +0.000 F 
ATOM     16  F   UNL     1       7.627   4.136  16.309  0.00  0.00    +0.000 F 
ENDBRANCH  10  13
BRANCH  12  17
ATOM     17  C   UNL     1       2.159   4.238  17.857  0.00  0.00    +0.000 C 
ATOM     18  F   UNL     1       1.798   4.153  19.161  0.00  0.00    +0.000 F 
ATOM     19  F   UNL     1       1.026   4.708  17.240  0.00  0.00    +0.000 F 
ATOM     20  F   UNL     1       2.302   2.965  17.394  0.00  0.00    +0.000 F 
ENDBRANCH  12  17
ENDBRANCH   4   7
BRANCH   6  21
ATOM     21  N   UNL     1      -0.088   9.525  19.222  0.00  0.00    +0.000 N 
ATOM     22  C   UNL     1       0.026  10.885  18.971  0.00  0.00    +0.000 C 
ATOM     23  O   UNL     1       1.063  11.481  18.698  0.00  0.00    +0.000 OA
ATOM     24  H   UNL     1      -1.015   9.178  19.441  0.00  0.00    +0.000 HD
BRANCH  22  25
ATOM     25  C   UNL     1      -1.254  11.591  19.056  0.00  0.00    +0.000 A 
ATOM     26  C   UNL     1      -2.497  11.160  18.536  0.00  0.00    +0.000 A 
ATOM     27  C   UNL     1      -3.391  12.127  18.928  0.00  0.00    +0.000 A 
ATOM     28  O   UNL     1      -2.713  13.103  19.596  0.00  0.00    +0.000 OA
ATOM     29  N   UNL     1      -1.375  12.773  19.680  0.00  0.00    +0.000 NA
BRANCH  27  30
ATOM     30  C   UNL     1      -4.830  12.280  18.821  0.00  0.00    +0.000 A 
ATOM     31  C   UNL     1      -5.535  11.961  17.665  0.00  0.00    +0.000 A 
ATOM     32  C   UNL     1      -6.900  12.229  17.619  0.00  0.00    +0.000 A 
ATOM     33  C   UNL     1      -7.520  12.798  18.725  0.00  0.00    +0.000 A 
ATOM     34  C   UNL     1      -6.748  13.065  19.843  0.00  0.00    +0.000 A 
ATOM     35  N   UNL     1      -5.421  12.818  19.916  0.00  0.00    +0.000 NA
ENDBRANCH  27  30
ENDBRANCH  22  25
ENDBRANCH   6  21
TORSDOF 6
ENDMDL
MODEL 4
REMARK VINA RESULT:      -9.0      3.330      4.881
REMARK  Name = 
REMARK  7 active torsions:
REMARK  status: ('A' for Active; 'I' for Inactive)
REMARK    1  A    between atoms: C_1  and  C_2
REMARK    2  A    between atoms: N_4  and  C_5
REMARK    3  A    between atoms: C_8  and  C_9
REMARK    4  A    between atoms: C_14  and  C_15
REMARK    5  A    between atoms: C_20  and  N_21
REMARK    6  A    between atoms: C_22  and  C_24
REMARK    7  A    between atoms: C_26  and  C_27
REMARK                            x       y       z     vdW  Elec       q    Type
REMARK                         _______ _______ _______ _____ _____    ______ ____
ROOT
ATOM      1  C   UNL     1       1.889  12.398  18.574  0.00  0.00    +0.000 C 
ATOM      2  C   UNL     1       0.567  11.762  18.799  0.00  0.00    +0.000 A 
ATOM      3  N   UNL     1      -0.509  12.526  19.033  0.00  0.00    +0.000 NA
ATOM      4  N   UNL     1      -1.527  11.654  19.178  0.00  0.00    +0.000 N 
ATOM      5  C   UNL     1      -1.101  10.354  19.068  0.00  0.00    +0.000 A 
ATOM      6  C   UNL     1       0.247  10.379  18.820  0.00  0.00    +0.000 A 
ENDROOT
BRANCH   4   7
ATOM      7  C   UNL     1      -2.828  12.082  19.541  0.00  0.00    +0.000 A 
ATOM      8  C   UNL     1      -2.958  12.775  20.763  0.00  0.00    +0.000 A 
ATOM      9  C   UNL     1      -4.182  13.316  21.155  0.00  0.00    +0.000 A 
ATOM     10  C   UNL     1      -5.306  13.170  20.342  0.00  0.00    +0.000 A 
ATOM     11  C   UNL     1      -5.180  12.452  19.141  0.00  0.00    +0.000 A 
ATOM     12  C   UNL     1      -3.953  11.880  18.722  0.00  0.00    +0.000 A 
BRANCH  10  13
ATOM     13  C   UNL     1      -6.639  13.759  20.743  0.00  0.00    +0.000 C 
ATOM     14  F   UNL     1      -6.529  14.863  21.532  0.00  0.00    +0.000 F 
ATOM     15  F   UNL     1      -7.380  14.140  19.667  0.00  0.00    +0.000 F 
ATOM     16  F   UNL     1      -7.406  12.876  21.437  0.00  0.00    +0.000 F 
ENDBRANCH  10  13
BRANCH  12  17
ATOM     17  C   UNL     1      -4.009  11.022  17.471  0.00  0.00    +0.000 C 
ATOM     18  F   UNL     1      -3.818   9.687  17.611  0.00  0.00    +0.000 F 
ATOM     19  F   UNL     1      -5.252  11.110  16.896  0.00  0.00    +0.000 F 
ATOM     20  F   UNL     1      -3.150  11.452  16.505  0.00  0.00    +0.000 F 
ENDBRANCH  12  17
ENDBRANCH   4   7
BRANCH   6  21
ATOM     21  N   UNL     1       1.083   9.294  18.633  0.00  0.00    +0.000 N 
ATOM     22  C   UNL     1       1.564   8.474  19.645  0.00  0.00    +0.000 C 
ATOM     23  O   UNL     1       1.316   8.587  20.840  0.00  0.00    +0.000 OA
ATOM     24  H   UNL     1       1.384   9.077  17.689  0.00  0.00    +0.000 HD
BRANCH  22  25
ATOM     25  C   UNL     1       2.433   7.404  19.149  0.00  0.00    +0.000 A 
ATOM     26  C   UNL     1       3.190   7.412  17.954  0.00  0.00    +0.000 A 
ATOM     27  C   UNL     1       3.879   6.223  17.972  0.00  0.00    +0.000 A 
ATOM     28  O   UNL     1       3.513   5.524  19.085  0.00  0.00    +0.000 OA
ATOM     29  N   UNL     1       2.608   6.259  19.825  0.00  0.00    +0.000 NA
BRANCH  27  30
ATOM     30  C   UNL     1       4.890   5.624  17.121  0.00  0.00    +0.000 A 
ATOM     31  C   UNL     1       4.696   4.414  16.462  0.00  0.00    +0.000 A 
ATOM     32  C   UNL     1       5.754   3.868  15.743  0.00  0.00    +0.000 A 
ATOM     33  C   UNL     1       6.967   4.543  15.696  0.00  0.00    +0.000 A 
ATOM     34  C   UNL     1       7.068   5.753  16.364  0.00  0.00    +0.000 A 
ATOM     35  N   UNL     1       6.060   6.307  17.072  0.00  0.00    +0.000 NA
ENDBRANCH  27  30
ENDBRANCH  22  25
ENDBRANCH   6  21
TORSDOF 6
ENDMDL
MODEL 5
REMARK VINA RESULT:      -9.0      5.022     10.614
REMARK  Name = 
REMARK  7 active torsions:
REMARK  status: ('A' for Active; 'I' for Inactive)
REMARK    1  A    between atoms: C_1  and  C_2
REMARK    2  A    between atoms: N_4  and  C_5
REMARK    3  A    between atoms: C_8  and  C_9
REMARK    4  A    between atoms: C_14  and  C_15
REMARK    5  A    between atoms: C_20  and  N_21
REMARK    6  A    between atoms: C_22  and  C_24
REMARK    7  A    between atoms: C_26  and  C_27
REMARK                            x       y       z     vdW  Elec       q    Type
REMARK                         _______ _______ _______ _____ _____    ______ ____
ROOT
ATOM      1  C   UNL     1       0.847   8.055  21.601  0.00  0.00    +0.000 C 
ATOM      2  C   UNL     1       1.463   8.104  20.252  0.00  0.00    +0.000 A 
ATOM      3  N   UNL     1       2.221   7.084  19.827  0.00  0.00    +0.000 NA
ATOM      4  N   UNL     1       2.606   7.434  18.583  0.00  0.00    +0.000 N 
ATOM      5  C   UNL     1       2.127   8.672  18.233  0.00  0.00    +0.000 A 
ATOM      6  C   UNL     1       1.379   9.139  19.283  0.00  0.00    +0.000 A 
ENDROOT
BRANCH   4   7
ATOM      7  C   UNL     1       3.513   6.644  17.834  0.00  0.00    +0.000 A 
ATOM      8  C   UNL     1       4.676   7.283  17.354  0.00  0.00    +0.000 A 
ATOM      9  C   UNL     1       5.669   6.564  16.690  0.00  0.00    +0.000 A 
ATOM     10  C   UNL     1       5.520   5.193  16.481  0.00  0.00    +0.000 A 
ATOM     11  C   UNL     1       4.346   4.566  16.931  0.00  0.00    +0.000 A 
ATOM     12  C   UNL     1       3.314   5.273  17.598  0.00  0.00    +0.000 A 
BRANCH  10  13
ATOM     13  C   UNL     1       6.589   4.392  15.774  0.00  0.00    +0.000 C 
ATOM     14  F   UNL     1       7.660   4.101  16.563  0.00  0.00    +0.000 F 
ATOM     15  F   UNL     1       6.124   3.198  15.318  0.00  0.00    +0.000 F 
ATOM     16  F   UNL     1       7.089   5.042  14.688  0.00  0.00    +0.000 F 
ENDBRANCH  10  13
BRANCH  12  17
ATOM     17  C   UNL     1       2.053   4.483  17.903  0.00  0.00    +0.000 C 
ATOM     18  F   UNL     1       1.673   4.376  19.200  0.00  0.00    +0.000 F 
ATOM     19  F   UNL     1       0.971   5.074  17.299  0.00  0.00    +0.000 F 
ATOM     20  F   UNL     1       2.092   3.223  17.388  0.00  0.00    +0.000 F 
ENDBRANCH  12  17
ENDBRANCH   4   7
BRANCH   6  21
ATOM     21  N   UNL     1       0.705  10.344  19.358  0.00  0.00    +0.000 N 
ATOM     22  C   UNL     1       0.933  11.327  20.311  0.00  0.00    +0.000 C 
ATOM     23  O   UNL     1       1.763  11.275  21.213  0.00  0.00    +0.000 OA
ATOM     24  H   UNL     1      -0.023  10.529  18.678  0.00  0.00    +0.000 HD
BRANCH  22  25
ATOM     25  C   UNL     1       0.066  12.495  20.146  0.00  0.00    +0.000 A 
ATOM     26  C   UNL     1       0.474  13.825  19.888  0.00  0.00    +0.000 A 
ATOM     27  C   UNL     1      -0.699  14.528  19.754  0.00  0.00    +0.000 A 
ATOM     28  O   UNL     1      -1.744  13.679  19.973  0.00  0.00    +0.000 OA
ATOM     29  N   UNL     1      -1.271  12.405  20.218  0.00  0.00    +0.000 NA
BRANCH  27  30
ATOM     30  C   UNL     1      -1.026  15.897  19.401  0.00  0.00    +0.000 A 
ATOM     31  C   UNL     1      -1.972  16.646  20.093  0.00  0.00    +0.000 A 
ATOM     32  C   UNL     1      -2.290  17.917  19.626  0.00  0.00    +0.000 A 
ATOM     33  C   UNL     1      -1.653  18.406  18.493  0.00  0.00    +0.000 A 
ATOM     34  C   UNL     1      -0.708  17.603  17.877  0.00  0.00    +0.000 A 
ATOM     35  N   UNL     1      -0.379  16.364  18.304  0.00  0.00    +0.000 NA
ENDBRANCH  27  30
ENDBRANCH  22  25
ENDBRANCH   6  21
TORSDOF 6
ENDMDL
MODEL 6
REMARK VINA RESULT:      -9.0      5.100     10.520
REMARK  Name = 
REMARK  7 active torsions:
REMARK  status: ('A' for Active; 'I' for Inactive)
REMARK    1  A    between atoms: C_1  and  C_2
REMARK    2  A    between atoms: N_4  and  C_5
REMARK    3  A    between atoms: C_8  and  C_9
REMARK    4  A    between atoms: C_14  and  C_15
REMARK    5  A    between atoms: C_20  and  N_21
REMARK    6  A    between atoms: C_22  and  C_24
REMARK    7  A    between atoms: C_26  and  C_27
REMARK                            x       y       z     vdW  Elec       q    Type
REMARK                         _______ _______ _______ _____ _____    ______ ____
ROOT
ATOM      1  C   UNL     1       1.023   8.092  21.590  0.00  0.00    +0.000 C 
ATOM      2  C   UNL     1       1.613   8.119  20.228  0.00  0.00    +0.000 A 
ATOM      3  N   UNL     1       2.265   7.044  19.763  0.00  0.00    +0.000 NA
ATOM      4  N   UNL     1       2.655   7.389  18.519  0.00  0.00    +0.000 N 
ATOM      5  C   UNL     1       2.284   8.674  18.209  0.00  0.00    +0.000 A 
ATOM      6  C   UNL     1       1.605   9.181  19.286  0.00  0.00    +0.000 A 
ENDROOT
BRANCH   4   7
ATOM      7  C   UNL     1       3.469   6.538  17.732  0.00  0.00    +0.000 A 
ATOM      8  C   UNL     1       4.636   7.103  17.174  0.00  0.00    +0.000 A 
ATOM      9  C   UNL     1       5.546   6.319  16.466  0.00  0.00    +0.000 A 
ATOM     10  C   UNL     1       5.308   4.956  16.288  0.00  0.00    +0.000 A 
ATOM     11  C   UNL     1       4.128   4.404  16.817  0.00  0.00    +0.000 A 
ATOM     12  C   UNL     1       3.179   5.178  17.531  0.00  0.00    +0.000 A 
BRANCH  10  13
ATOM     13  C   UNL     1       6.286   4.086  15.534  0.00  0.00    +0.000 C 
ATOM     14  F   UNL     1       7.576   4.240  15.942  0.00  0.00    +0.000 F 
ATOM     15  F   UNL     1       6.008   2.760  15.666  0.00  0.00    +0.000 F 
ATOM     16  F   UNL     1       6.282   4.341  14.198  0.00  0.00    +0.000 F 
ENDBRANCH  10  13
BRANCH  12  17
ATOM     17  C   UNL     1       1.896   4.466  17.921  0.00  0.00    +0.000 C 
ATOM     18  F   UNL     1       1.517   4.516  19.222  0.00  0.00    +0.000 F 
ATOM     19  F   UNL     1       0.831   5.018  17.255  0.00  0.00    +0.000 F 
ATOM     20  F   UNL     1       1.895   3.156  17.551  0.00  0.00    +0.000 F 
ENDBRANCH  12  17
ENDBRANCH   4   7
BRANCH   6  21
ATOM     21  N   UNL     1       1.046  10.440  19.404  0.00  0.00    +0.000 N 
ATOM     22  C   UNL     1      -0.280  10.752  19.137  0.00  0.00    +0.000 C 
ATOM     23  O   UNL     1      -1.143   9.964  18.766  0.00  0.00    +0.000 OA
ATOM     24  H   UNL     1       1.644  11.205  19.697  0.00  0.00    +0.000 HD
BRANCH  22  25
ATOM     25  C   UNL     1      -0.587  12.169  19.347  0.00  0.00    +0.000 A 
ATOM     26  C   UNL     1       0.289  13.264  19.158  0.00  0.00    +0.000 A 
ATOM     27  C   UNL     1      -0.480  14.372  19.419  0.00  0.00    +0.000 A 
ATOM     28  O   UNL     1      -1.725  13.961  19.795  0.00  0.00    +0.000 OA
ATOM     29  N   UNL     1      -1.798  12.583  19.751  0.00  0.00    +0.000 NA
BRANCH  27  30
ATOM     30  C   UNL     1      -0.258  15.804  19.333  0.00  0.00    +0.000 A 
ATOM     31  C   UNL     1      -0.430  16.521  18.154  0.00  0.00    +0.000 A 
ATOM     32  C   UNL     1      -0.103  17.873  18.140  0.00  0.00    +0.000 A 
ATOM     33  C   UNL     1       0.377  18.470  19.300  0.00  0.00    +0.000 A 
ATOM     34  C   UNL     1       0.497  17.688  20.436  0.00  0.00    +0.000 A 
ATOM     35  N   UNL     1       0.191  16.372  20.480  0.00  0.00    +0.000 NA
ENDBRANCH  27  30
ENDBRANCH  22  25
ENDBRANCH   6  21
TORSDOF 6
ENDMDL
MODEL 7
REMARK VINA RESULT:      -9.0      4.994     10.663
REMARK  Name = 
REMARK  7 active torsions:
REMARK  status: ('A' for Active; 'I' for Inactive)
REMARK    1  A    between atoms: C_1  and  C_2
REMARK    2  A    between atoms: N_4  and  C_5
REMARK    3  A    between atoms: C_8  and  C_9
REMARK    4  A    between atoms: C_14  and  C_15
REMARK    5  A    between atoms: C_20  and  N_21
REMARK    6  A    between atoms: C_22  and  C_24
REMARK    7  A    between atoms: C_26  and  C_27
REMARK                            x       y       z     vdW  Elec       q    Type
REMARK                         _______ _______ _______ _____ _____    ______ ____
ROOT
ATOM      1  C   UNL     1       1.495   8.365  21.853  0.00  0.00    +0.000 C 
ATOM      2  C   UNL     1       1.679   8.112  20.402  0.00  0.00    +0.000 A 
ATOM      3  N   UNL     1       2.626   7.257  19.989  0.00  0.00    +0.000 NA
ATOM      4  N   UNL     1       2.518   7.247  18.645  0.00  0.00    +0.000 N 
ATOM      5  C   UNL     1       1.541   8.104  18.207  0.00  0.00    +0.000 A 
ATOM      6  C   UNL     1       0.970   8.682  19.312  0.00  0.00    +0.000 A 
ENDROOT
BRANCH   4   7
ATOM      7  C   UNL     1       3.428   6.527  17.832  0.00  0.00    +0.000 A 
ATOM      8  C   UNL     1       4.525   7.244  17.307  0.00  0.00    +0.000 A 
ATOM      9  C   UNL     1       5.522   6.599  16.576  0.00  0.00    +0.000 A 
ATOM     10  C   UNL     1       5.442   5.226  16.342  0.00  0.00    +0.000 A 
ATOM     11  C   UNL     1       4.332   4.521  16.838  0.00  0.00    +0.000 A 
ATOM     12  C   UNL     1       3.297   5.152  17.574  0.00  0.00    +0.000 A 
BRANCH  10  13
ATOM     13  C   UNL     1       6.517   4.505  15.562  0.00  0.00    +0.000 C 
ATOM     14  F   UNL     1       6.921   5.175  14.448  0.00  0.00    +0.000 F 
ATOM     15  F   UNL     1       7.640   4.295  16.301  0.00  0.00    +0.000 F 
ATOM     16  F   UNL     1       6.112   3.278  15.136  0.00  0.00    +0.000 F 
ENDBRANCH  10  13
BRANCH  12  17
ATOM     17  C   UNL     1       2.103   4.283  17.925  0.00  0.00    +0.000 C 
ATOM     18  F   UNL     1       1.695   4.262  19.218  0.00  0.00    +0.000 F 
ATOM     19  F   UNL     1       0.992   4.714  17.244  0.00  0.00    +0.000 F 
ATOM     20  F   UNL     1       2.268   2.989  17.534  0.00  0.00    +0.000 F 
ENDBRANCH  12  17
ENDBRANCH   4   7
BRANCH   6  21
ATOM     21  N   UNL     1      -0.060   9.604  19.336  0.00  0.00    +0.000 N 
ATOM     22  C   UNL     1       0.097  10.969  19.535  0.00  0.00    +0.000 C 
ATOM     23  O   UNL     1       1.161  11.553  19.711  0.00  0.00    +0.000 OA
ATOM     24  H   UNL     1      -1.008   9.267  19.211  0.00  0.00    +0.000 HD
BRANCH  22  25
ATOM     25  C   UNL     1      -1.173  11.698  19.513  0.00  0.00    +0.000 A 
ATOM     26  C   UNL     1      -2.380  11.284  18.900  0.00  0.00    +0.000 A 
ATOM     27  C   UNL     1      -3.283  12.270  19.212  0.00  0.00    +0.000 A 
ATOM     28  O   UNL     1      -2.642  13.241  19.922  0.00  0.00    +0.000 OA
ATOM     29  N   UNL     1      -1.321  12.889  20.114  0.00  0.00    +0.000 NA
BRANCH  27  30
ATOM     30  C   UNL     1      -4.707  12.447  18.991  0.00  0.00    +0.000 A 
ATOM     31  C   UNL     1      -5.568  12.912  19.980  0.00  0.00    +0.000 A 
ATOM     32  C   UNL     1      -6.932  12.962  19.709  0.00  0.00    +0.000 A 
ATOM     33  C   UNL     1      -7.395  12.556  18.463  0.00  0.00    +0.000 A 
ATOM     34  C   UNL     1      -6.466  12.127  17.529  0.00  0.00    +0.000 A 
ATOM     35  N   UNL     1      -5.137  12.065  17.764  0.00  0.00    +0.000 NA
ENDBRANCH  27  30
ENDBRANCH  22  25
ENDBRANCH   6  21
TORSDOF 6
ENDMDL
MODEL 8
REMARK VINA RESULT:      -9.0      5.230     10.449
REMARK  Name = 
REMARK  7 active torsions:
REMARK  status: ('A' for Active; 'I' for Inactive)
REMARK    1  A    between atoms: C_1  and  C_2
REMARK    2  A    between atoms: N_4  and  C_5
REMARK    3  A    between atoms: C_8  and  C_9
REMARK    4  A    between atoms: C_14  and  C_15
REMARK    5  A    between atoms: C_20  and  N_21
REMARK    6  A    between atoms: C_22  and  C_24
REMARK    7  A    between atoms: C_26  and  C_27
REMARK                            x       y       z     vdW  Elec       q    Type
REMARK                         _______ _______ _______ _____ _____    ______ ____
ROOT
ATOM      1  C   UNL     1       0.946   8.279  21.365  0.00  0.00    +0.000 C 
ATOM      2  C   UNL     1       1.621   8.282  20.043  0.00  0.00    +0.000 A 
ATOM      3  N   UNL     1       2.252   7.180  19.614  0.00  0.00    +0.000 NA
ATOM      4  N   UNL     1       2.734   7.510  18.398  0.00  0.00    +0.000 N 
ATOM      5  C   UNL     1       2.442   8.811  18.072  0.00  0.00    +0.000 A 
ATOM      6  C   UNL     1       1.719   9.345  19.108  0.00  0.00    +0.000 A 
ENDROOT
BRANCH   4   7
ATOM      7  C   UNL     1       3.557   6.625  17.659  0.00  0.00    +0.000 A 
ATOM      8  C   UNL     1       4.749   7.156  17.121  0.00  0.00    +0.000 A 
ATOM      9  C   UNL     1       5.666   6.339  16.461  0.00  0.00    +0.000 A 
ATOM     10  C   UNL     1       5.411   4.975  16.314  0.00  0.00    +0.000 A 
ATOM     11  C   UNL     1       4.208   4.456  16.823  0.00  0.00    +0.000 A 
ATOM     12  C   UNL     1       3.251   5.264  17.488  0.00  0.00    +0.000 A 
BRANCH  10  13
ATOM     13  C   UNL     1       6.397   4.070  15.613  0.00  0.00    +0.000 C 
ATOM     14  F   UNL     1       5.955   2.789  15.476  0.00  0.00    +0.000 F 
ATOM     15  F   UNL     1       6.692   4.501  14.357  0.00  0.00    +0.000 F 
ATOM     16  F   UNL     1       7.584   3.989  16.273  0.00  0.00    +0.000 F 
ENDBRANCH  10  13
BRANCH  12  17
ATOM     17  C   UNL     1       1.946   4.583  17.860  0.00  0.00    +0.000 C 
ATOM     18  F   UNL     1       1.793   3.281  17.516  0.00  0.00    +0.000 F 
ATOM     19  F   UNL     1       1.792   4.577  19.224  0.00  0.00    +0.000 F 
ATOM     20  F   UNL     1       0.858   5.254  17.391  0.00  0.00    +0.000 F 
ENDBRANCH  12  17
ENDBRANCH   4   7
BRANCH   6  21
ATOM     21  N   UNL     1       1.211  10.628  19.198  0.00  0.00    +0.000 N 
ATOM     22  C   UNL     1      -0.121  10.972  19.017  0.00  0.00    +0.000 C 
ATOM     23  O   UNL     1      -1.036  10.197  18.759  0.00  0.00    +0.000 OA
ATOM     24  H   UNL     1       1.854  11.386  19.399  0.00  0.00    +0.000 HD
BRANCH  22  25
ATOM     25  C   UNL     1      -0.366  12.408  19.169  0.00  0.00    +0.000 A 
ATOM     26  C   UNL     1       0.416  13.463  18.642  0.00  0.00    +0.000 A 
ATOM     27  C   UNL     1      -0.257  14.606  19.001  0.00  0.00    +0.000 A 
ATOM     28  O   UNL     1      -1.346  14.257  19.744  0.00  0.00    +0.000 OA
ATOM     29  N   UNL     1      -1.420  12.882  19.852  0.00  0.00    +0.000 NA
BRANCH  27  30
ATOM     30  C   UNL     1      -0.076  16.019  18.723  0.00  0.00    +0.000 A 
ATOM     31  C   UNL     1      -1.141  16.910  18.638  0.00  0.00    +0.000 A 
ATOM     32  C   UNL     1      -0.882  18.228  18.273  0.00  0.00    +0.000 A 
ATOM     33  C   UNL     1       0.426  18.619  18.014  0.00  0.00    +0.000 A 
ATOM     34  C   UNL     1       1.429  17.673  18.143  0.00  0.00    +0.000 A 
ATOM     35  N   UNL     1       1.209  16.386  18.492  0.00  0.00    +0.000 NA
ENDBRANCH  27  30
ENDBRANCH  22  25
ENDBRANCH   6  21
TORSDOF 6
ENDMDL
MODEL 9
REMARK VINA RESULT:      -8.9      3.274      4.810
REMARK  Name = 
REMARK  7 active torsions:
REMARK  status: ('A' for Active; 'I' for Inactive)
REMARK    1  A    between atoms: C_1  and  C_2
REMARK    2  A    between atoms: N_4  and  C_5
REMARK    3  A    between atoms: C_8  and  C_9
REMARK    4  A    between atoms: C_14  and  C_15
REMARK    5  A    between atoms: C_20  and  N_21
REMARK    6  A    between atoms: C_22  and  C_24
REMARK    7  A    between atoms: C_26  and  C_27
REMARK                            x       y       z     vdW  Elec       q    Type
REMARK                         _______ _______ _______ _____ _____    ______ ____
ROOT
ATOM      1  C   UNL     1       2.036  12.320  18.439  0.00  0.00    +0.000 C 
ATOM      2  C   UNL     1       0.719  11.685  18.697  0.00  0.00    +0.000 A 
ATOM      3  N   UNL     1      -0.357  12.450  18.924  0.00  0.00    +0.000 NA
ATOM      4  N   UNL     1      -1.369  11.576  19.103  0.00  0.00    +0.000 N 
ATOM      5  C   UNL     1      -0.938  10.276  19.023  0.00  0.00    +0.000 A 
ATOM      6  C   UNL     1       0.407  10.301  18.757  0.00  0.00    +0.000 A 
ENDROOT
BRANCH   4   7
ATOM      7  C   UNL     1      -2.668  12.007  19.470  0.00  0.00    +0.000 A 
ATOM      8  C   UNL     1      -2.792  12.705  20.690  0.00  0.00    +0.000 A 
ATOM      9  C   UNL     1      -4.014  13.250  21.086  0.00  0.00    +0.000 A 
ATOM     10  C   UNL     1      -5.142  13.102  20.278  0.00  0.00    +0.000 A 
ATOM     11  C   UNL     1      -5.022  12.378  19.080  0.00  0.00    +0.000 A 
ATOM     12  C   UNL     1      -3.797  11.803  18.657  0.00  0.00    +0.000 A 
BRANCH  10  13
ATOM     13  C   UNL     1      -6.471  13.694  20.682  0.00  0.00    +0.000 C 
ATOM     14  F   UNL     1      -7.530  12.877  20.425  0.00  0.00    +0.000 F 
ATOM     15  F   UNL     1      -6.530  13.975  22.013  0.00  0.00    +0.000 F 
ATOM     16  F   UNL     1      -6.735  14.863  20.038  0.00  0.00    +0.000 F 
ENDBRANCH  10  13
BRANCH  12  17
ATOM     17  C   UNL     1      -3.860  10.940  17.409  0.00  0.00    +0.000 C 
ATOM     18  F   UNL     1      -3.685   9.604  17.557  0.00  0.00    +0.000 F 
ATOM     19  F   UNL     1      -5.100  11.040  16.831  0.00  0.00    +0.000 F 
ATOM     20  F   UNL     1      -2.993  11.356  16.445  0.00  0.00    +0.000 F 
ENDBRANCH  12  17
ENDBRANCH   4   7
BRANCH   6  21
ATOM     21  N   UNL     1       1.246   9.215  18.589  0.00  0.00    +0.000 N 
ATOM     22  C   UNL     1       1.615   8.330  19.592  0.00  0.00    +0.000 C 
ATOM     23  O   UNL     1       1.251   8.376  20.762  0.00  0.00    +0.000 OA
ATOM     24  H   UNL     1       1.638   9.050  17.668  0.00  0.00    +0.000 HD
BRANCH  22  25
ATOM     25  C   UNL     1       2.518   7.277  19.121  0.00  0.00    +0.000 A 
ATOM     26  C   UNL     1       3.284   7.286  17.931  0.00  0.00    +0.000 A 
ATOM     27  C   UNL     1       4.006   6.118  17.975  0.00  0.00    +0.000 A 
ATOM     28  O   UNL     1       3.653   5.428  19.097  0.00  0.00    +0.000 OA
ATOM     29  N   UNL     1       2.722   6.149  19.819  0.00  0.00    +0.000 NA
BRANCH  27  30
ATOM     30  C   UNL     1       5.040   5.534  17.141  0.00  0.00    +0.000 A 
ATOM     31  C   UNL     1       6.291   6.120  16.975  0.00  0.00    +0.000 A 
ATOM     32  C   UNL     1       7.188   5.539  16.083  0.00  0.00    +0.000 A 
ATOM     33  C   UNL     1       6.816   4.393  15.392  0.00  0.00    +0.000 A 
ATOM     34  C   UNL     1       5.559   3.863  15.633  0.00  0.00    +0.000 A 
ATOM     35  N   UNL     1       4.666   4.405  16.490  0.00  0.00    +0.000 NA
ENDBRANCH  27  30
ENDBRANCH  22  25
ENDBRANCH   6  21
TORSDOF 6
ENDMDL
