MODEL 1
REMARK VINA RESULT:      -9.3      0.000      0.000
REMARK  Name = 
REMARK  3 active torsions:
REMARK  status: ('A' for Active; 'I' for Inactive)
REMARK    1  A    between atoms: C_1  and  N_2
REMARK    2  A    between atoms: C_11  and  C_12
REMARK    3  A    between atoms: C_14  and  C_15
REMARK                            x       y       z     vdW  Elec       q    Type
REMARK                         _______ _______ _______ _____ _____    ______ ____
ROOT
ATOM      1  C   UNL     1       4.317   3.290  19.364  0.00  0.00    +0.000 C 
ATOM      2  N   UNL     1       4.290   4.464  18.517  0.00  0.00    +0.000 N 
ATOM      3  C   UNL     1       4.973   4.607  17.325  0.00  0.00    +0.000 A 
ATOM      4  C   UNL     1       5.864   3.752  16.653  0.00  0.00    +0.000 A 
ATOM      5  C   UNL     1       6.383   4.169  15.422  0.00  0.00    +0.000 A 
ATOM      6  C   UNL     1       6.027   5.397  14.877  0.00  0.00    +0.000 A 
ATOM      7  C   UNL     1       5.152   6.247  15.557  0.00  0.00    +0.000 A 
ATOM      8  C   UNL     1       4.618   5.852  16.802  0.00  0.00    +0.000 A 
ATOM      9  C   UNL     1       3.730   6.479  17.733  0.00  0.00    +0.000 A 
ATOM     10  C   UNL     1       3.070   7.728  17.761  0.00  0.00    +0.000 A 
ATOM     11  C   UNL     1       2.236   8.074  18.840  0.00  0.00    +0.000 A 
ATOM     12  C   UNL     1       2.062   7.151  19.879  0.00  0.00    +0.000 A 
ATOM     13  C   UNL     1       2.703   5.905  19.875  0.00  0.00    +0.000 A 
ATOM     14  C   UNL     1       3.538   5.593  18.793  0.00  0.00    +0.000 A 
ENDROOT
BRANCH  11  15
ATOM     15  C   UNL     1       1.523   9.408  18.888  0.00  0.00    +0.000 C 
ATOM     16  C   UNL     1       0.426   9.597  17.841  0.00  0.00    +0.000 C 
ATOM     17  C   UNL     1      -0.710  10.057  18.715  0.00  0.00    +0.000 C 
ATOM     18  N   UNL     1      -0.483   9.990  19.991  0.00  0.00    +0.000 NA
ATOM     19  N   UNL     1       0.816   9.648  20.147  0.00  0.00    +0.000 N 
ATOM     20  H   UNL     1       0.965   8.920  20.848  0.00  0.00    +0.000 HD
BRANCH  17  21
ATOM     21  C   UNL     1      -2.000  10.534  18.153  0.00  0.00    +0.000 A 
ATOM     22  C   UNL     1      -2.443  10.139  16.884  0.00  0.00    +0.000 A 
ATOM     23  C   UNL     1      -3.639  10.652  16.372  0.00  0.00    +0.000 A 
ATOM     24  C   UNL     1      -4.386  11.551  17.128  0.00  0.00    +0.000 A 
ATOM     25  F   UNL     1      -5.526  12.045  16.630  0.00  0.00    +0.000 F 
ATOM     26  C   UNL     1      -3.961  11.947  18.390  0.00  0.00    +0.000 A 
ATOM     27  C   UNL     1      -2.767  11.439  18.904  0.00  0.00    +0.000 A 
ENDBRANCH  17  21
ENDBRANCH  11  15
TORSDOF 2
ENDMDL
MODEL 2
REMARK VINA RESULT:      -9.1      1.032      3.101
REMARK  Name = 
REMARK  3 active torsions:
REMARK  status: ('A' for Active; 'I' for Inactive)
REMARK    1  A    between atoms: C_1  and  N_2
REMARK    2  A    between atoms: C_11  and  C_12
REMARK    3  A    between atoms: C_14  and  C_15
REMARK                            x       y       z     vdW  Elec       q    Type
REMARK                         _______ _______ _______ _____ _____    ______ ____
ROOT
ATOM      1  C   UNL     1       5.193   4.198  17.513  0.00  0.00    +0.000 C 
ATOM      2  N   UNL     1       4.167   4.677  18.417  0.00  0.00    +0.000 N 
ATOM      3  C   UNL     1       3.626   3.959  19.466  0.00  0.00    +0.000 A 
ATOM      4  C   UNL     1       3.849   2.643  19.908  0.00  0.00    +0.000 A 
ATOM      5  C   UNL     1       3.159   2.198  21.041  0.00  0.00    +0.000 A 
ATOM      6  C   UNL     1       2.276   3.034  21.714  0.00  0.00    +0.000 A 
ATOM      7  C   UNL     1       2.050   4.336  21.261  0.00  0.00    +0.000 A 
ATOM      8  C   UNL     1       2.729   4.808  20.117  0.00  0.00    +0.000 A 
ATOM      9  C   UNL     1       2.713   6.051  19.408  0.00  0.00    +0.000 A 
ATOM     10  C   UNL     1       2.001   7.260  19.577  0.00  0.00    +0.000 A 
ATOM     11  C   UNL     1       2.201   8.338  18.696  0.00  0.00    +0.000 A 
ATOM     12  C   UNL     1       3.129   8.195  17.657  0.00  0.00    +0.000 A 
ATOM     13  C   UNL     1       3.849   7.008  17.467  0.00  0.00    +0.000 A 
ATOM     14  C   UNL     1       3.619   5.946  18.353  0.00  0.00    +0.000 A 
ENDROOT
BRANCH  11  15
ATOM     15  C   UNL     1       1.447   9.641  18.860  0.00  0.00    +0.000 C 
ATOM     16  C   UNL     1       0.353   9.894  17.824  0.00  0.00    +0.000 C 
ATOM     17  C   UNL     1      -0.803  10.235  18.723  0.00  0.00    +0.000 C 
ATOM     18  N   UNL     1      -0.585  10.056  19.990  0.00  0.00    +0.000 NA
ATOM     19  N   UNL     1       0.722   9.740  20.128  0.00  0.00    +0.000 N 
ATOM     20  H   UNL     1       0.887   8.954  20.759  0.00  0.00    +0.000 HD
BRANCH  17  21
ATOM     21  C   UNL     1      -2.102  10.724  18.194  0.00  0.00    +0.000 A 
ATOM     22  C   UNL     1      -2.953  11.533  18.958  0.00  0.00    +0.000 A 
ATOM     23  C   UNL     1      -4.190  11.930  18.439  0.00  0.00    +0.000 A 
ATOM     24  C   UNL     1      -4.569  11.521  17.164  0.00  0.00    +0.000 A 
ATOM     25  F   UNL     1      -5.758  11.897  16.676  0.00  0.00    +0.000 F 
ATOM     26  C   UNL     1      -3.733  10.723  16.394  0.00  0.00    +0.000 A 
ATOM     27  C   UNL     1      -2.498  10.324  16.907  0.00  0.00    +0.000 A 
ENDBRANCH  17  21
ENDBRANCH  11  15
TORSDOF 2
ENDMDL
MODEL 3
REMARK VINA RESULT:      -8.7      1.279      2.881
REMARK  Name = 
REMARK  3 active torsions:
REMARK  status: ('A' for Active; 'I' for Inactive)
REMARK    1  A    between atoms: C_1  and  N_2
REMARK    2  A    between atoms: C_11  and  C_12
REMARK    3  A    between atoms: C_14  and  C_15
REMARK                            x       y       z     vdW  Elec       q    Type
REMARK                         _______ _______ _______ _____ _____    ______ ____
ROOT
ATOM      1  C   UNL     1       5.378   4.009  16.660  0.00  0.00    +0.000 C 
ATOM      2  N   UNL     1       4.185   4.359  17.404  0.00  0.00    +0.000 N 
ATOM      3  C   UNL     1       3.359   3.466  18.058  0.00  0.00    +0.000 A 
ATOM      4  C   UNL     1       3.390   2.063  18.150  0.00  0.00    +0.000 A 
ATOM      5  C   UNL     1       2.414   1.428  18.925  0.00  0.00    +0.000 A 
ATOM      6  C   UNL     1       1.438   2.163  19.588  0.00  0.00    +0.000 A 
ATOM      7  C   UNL     1       1.405   3.555  19.480  0.00  0.00    +0.000 A 
ATOM      8  C   UNL     1       2.375   4.221  18.700  0.00  0.00    +0.000 A 
ATOM      9  C   UNL     1       2.606   5.597  18.384  0.00  0.00    +0.000 A 
ATOM     10  C   UNL     1       1.943   6.799  18.721  0.00  0.00    +0.000 A 
ATOM     11  C   UNL     1       2.418   8.035  18.248  0.00  0.00    +0.000 A 
ATOM     12  C   UNL     1       3.568   8.054  17.449  0.00  0.00    +0.000 A 
ATOM     13  C   UNL     1       4.246   6.878  17.102  0.00  0.00    +0.000 A 
ATOM     14  C   UNL     1       3.742   5.659  17.577  0.00  0.00    +0.000 A 
ENDROOT
BRANCH  11  15
ATOM     15  C   UNL     1       1.719   9.333  18.596  0.00  0.00    +0.000 C 
ATOM     16  C   UNL     1       0.552   9.708  17.684  0.00  0.00    +0.000 C 
ATOM     17  C   UNL     1      -0.515   9.988  18.707  0.00  0.00    +0.000 C 
ATOM     18  N   UNL     1      -0.199   9.684  19.928  0.00  0.00    +0.000 NA
ATOM     19  N   UNL     1       1.105   9.327  19.925  0.00  0.00    +0.000 N 
ATOM     20  H   UNL     1       1.298   8.482  20.464  0.00  0.00    +0.000 HD
BRANCH  17  21
ATOM     21  C   UNL     1      -1.838  10.554  18.338  0.00  0.00    +0.000 A 
ATOM     22  C   UNL     1      -2.461  11.542  19.113  0.00  0.00    +0.000 A 
ATOM     23  C   UNL     1      -3.729  12.011  18.757  0.00  0.00    +0.000 A 
ATOM     24  C   UNL     1      -4.367  11.496  17.632  0.00  0.00    +0.000 A 
ATOM     25  F   UNL     1      -5.585  11.943  17.301  0.00  0.00    +0.000 F 
ATOM     26  C   UNL     1      -3.760  10.520  16.852  0.00  0.00    +0.000 A 
ATOM     27  C   UNL     1      -2.494  10.048  17.204  0.00  0.00    +0.000 A 
ENDBRANCH  17  21
ENDBRANCH  11  15
TORSDOF 2
ENDMDL
MODEL 4
REMARK VINA RESULT:      -8.7      0.830      1.268
REMARK  Name = 
REMARK  3 active torsions:
REMARK  status: ('A' for Active; 'I' for Inactive)
REMARK    1  A    between atoms: C_1  and  N_2
REMARK    2  A    between atoms: C_11  and  C_12
REMARK    3  A    between atoms: C_14  and  C_15
REMARK                            x       y       z     vdW  Elec       q    Type
REMARK                         _______ _______ _______ _____ _____    ______ ____
ROOT
ATOM      1  C   UNL     1       3.852   2.507  18.239  0.00  0.00    +0.000 C 
ATOM      2  N   UNL     1       4.066   3.841  17.715  0.00  0.00    +0.000 N 
ATOM      3  C   UNL     1       4.897   4.162  16.660  0.00  0.00    +0.000 A 
ATOM      4  C   UNL     1       5.752   3.370  15.872  0.00  0.00    +0.000 A 
ATOM      5  C   UNL     1       6.459   3.988  14.835  0.00  0.00    +0.000 A 
ATOM      6  C   UNL     1       6.320   5.349  14.587  0.00  0.00    +0.000 A 
ATOM      7  C   UNL     1       5.479   6.131  15.382  0.00  0.00    +0.000 A 
ATOM      8  C   UNL     1       4.758   5.534  16.439  0.00  0.00    +0.000 A 
ATOM      9  C   UNL     1       3.848   6.043  17.418  0.00  0.00    +0.000 A 
ATOM     10  C   UNL     1       3.344   7.332  17.703  0.00  0.00    +0.000 A 
ATOM     11  C   UNL     1       2.437   7.529  18.759  0.00  0.00    +0.000 A 
ATOM     12  C   UNL     1       2.032   6.421  19.514  0.00  0.00    +0.000 A 
ATOM     13  C   UNL     1       2.514   5.132  19.252  0.00  0.00    +0.000 A 
ATOM     14  C   UNL     1       3.428   4.969  18.201  0.00  0.00    +0.000 A 
ENDROOT
BRANCH  11  15
ATOM     15  C   UNL     1       1.888   8.903  19.081  0.00  0.00    +0.000 C 
ATOM     16  C   UNL     1       0.751   9.377  18.177  0.00  0.00    +0.000 C 
ATOM     17  C   UNL     1      -0.261   9.798  19.207  0.00  0.00    +0.000 C 
ATOM     18  N   UNL     1       0.044   9.496  20.432  0.00  0.00    +0.000 NA
ATOM     19  N   UNL     1       1.302   9.000  20.418  0.00  0.00    +0.000 N 
ATOM     20  H   UNL     1       1.412   8.154  20.979  0.00  0.00    +0.000 HD
BRANCH  17  21
ATOM     21  C   UNL     1      -1.522  10.493  18.842  0.00  0.00    +0.000 A 
ATOM     22  C   UNL     1      -1.963  11.632  19.529  0.00  0.00    +0.000 A 
ATOM     23  C   UNL     1      -3.182  12.226  19.186  0.00  0.00    +0.000 A 
ATOM     24  C   UNL     1      -3.951  11.683  18.160  0.00  0.00    +0.000 A 
ATOM     25  F   UNL     1      -5.121  12.251  17.842  0.00  0.00    +0.000 F 
ATOM     26  C   UNL     1      -3.524  10.557  17.468  0.00  0.00    +0.000 A 
ATOM     27  C   UNL     1      -2.309   9.961  17.808  0.00  0.00    +0.000 A 
ENDBRANCH  17  21
ENDBRANCH  11  15
TORSDOF 2
ENDMDL
MODEL 5
REMARK VINA RESULT:      -8.6      3.513      8.738
REMARK  Name = 
REMARK  3 active torsions:
REMARK  status: ('A' for Active; 'I' for Inactive)
REMARK    1  A    between atoms: C_1  and  N_2
REMARK    2  A    between atoms: C_11  and  C_12
REMARK    3  A    between atoms: C_14  and  C_15
REMARK                            x       y       z     vdW  Elec       q    Type
REMARK                         _______ _______ _______ _____ _____    ______ ____
ROOT
ATOM      1  C   UNL     1      -2.900  12.678  20.151  0.00  0.00    +0.000 C 
ATOM      2  N   UNL     1      -2.364  11.711  19.215  0.00  0.00    +0.000 N 
ATOM      3  C   UNL     1      -2.942  11.356  18.012  0.00  0.00    +0.000 A 
ATOM      4  C   UNL     1      -4.147  11.752  17.404  0.00  0.00    +0.000 A 
ATOM      5  C   UNL     1      -4.455  11.232  16.142  0.00  0.00    +0.000 A 
ATOM      6  C   UNL     1      -3.593  10.348  15.504  0.00  0.00    +0.000 A 
ATOM      7  C   UNL     1      -2.405   9.949  16.120  0.00  0.00    +0.000 A 
ATOM      8  C   UNL     1      -2.072  10.454  17.396  0.00  0.00    +0.000 A 
ATOM      9  C   UNL     1      -0.967  10.241  18.280  0.00  0.00    +0.000 A 
ATOM     10  C   UNL     1       0.193   9.436  18.213  0.00  0.00    +0.000 A 
ATOM     11  C   UNL     1       1.125   9.436  19.266  0.00  0.00    +0.000 A 
ATOM     12  C   UNL     1       0.889  10.259  20.375  0.00  0.00    +0.000 A 
ATOM     13  C   UNL     1      -0.251  11.067  20.465  0.00  0.00    +0.000 A 
ATOM     14  C   UNL     1      -1.170  11.037  19.406  0.00  0.00    +0.000 A 
ENDROOT
BRANCH  11  15
ATOM     15  C   UNL     1       2.372   8.579  19.214  0.00  0.00    +0.000 C 
ATOM     16  C   UNL     1       2.165   7.107  19.566  0.00  0.00    +0.000 C 
ATOM     17  C   UNL     1       2.837   6.447  18.393  0.00  0.00    +0.000 C 
ATOM     18  N   UNL     1       3.199   7.253  17.443  0.00  0.00    +0.000 NA
ATOM     19  N   UNL     1       2.980   8.513  17.884  0.00  0.00    +0.000 N 
ATOM     20  H   UNL     1       2.527   9.113  17.194  0.00  0.00    +0.000 HD
BRANCH  17  21
ATOM     21  C   UNL     1       3.052   4.979  18.325  0.00  0.00    +0.000 A 
ATOM     22  C   UNL     1       2.159   4.132  17.655  0.00  0.00    +0.000 A 
ATOM     23  C   UNL     1       2.373   2.750  17.659  0.00  0.00    +0.000 A 
ATOM     24  C   UNL     1       3.474   2.222  18.327  0.00  0.00    +0.000 A 
ATOM     25  F   UNL     1       3.668   0.897  18.334  0.00  0.00    +0.000 F 
ATOM     26  C   UNL     1       4.369   3.049  18.992  0.00  0.00    +0.000 A 
ATOM     27  C   UNL     1       4.159   4.429  18.992  0.00  0.00    +0.000 A 
ENDBRANCH  17  21
ENDBRANCH  11  15
TORSDOF 2
ENDMDL
MODEL 6
REMARK VINA RESULT:      -8.6      3.111      4.497
REMARK  Name = 
REMARK  3 active torsions:
REMARK  status: ('A' for Active; 'I' for Inactive)
REMARK    1  A    between atoms: C_1  and  N_2
REMARK    2  A    between atoms: C_11  and  C_12
REMARK    3  A    between atoms: C_14  and  C_15
REMARK                            x       y       z     vdW  Elec       q    Type
REMARK                         _______ _______ _______ _____ _____    ______ ____
ROOT
ATOM      1  C   UNL     1       5.664   4.374  17.828  0.00  0.00    +0.000 C 
ATOM      2  N   UNL     1       4.470   4.774  18.543  0.00  0.00    +0.000 N 
ATOM      3  C   UNL     1       3.842   4.038  19.529  0.00  0.00    +0.000 A 
ATOM      4  C   UNL     1       4.116   2.764  20.058  0.00  0.00    +0.000 A 
ATOM      5  C   UNL     1       3.303   2.286  21.091  0.00  0.00    +0.000 A 
ATOM      6  C   UNL     1       2.252   3.050  21.585  0.00  0.00    +0.000 A 
ATOM      7  C   UNL     1       1.978   4.309  21.044  0.00  0.00    +0.000 A 
ATOM      8  C   UNL     1       2.779   4.812  19.997  0.00  0.00    +0.000 A 
ATOM      9  C   UNL     1       2.756   6.025  19.239  0.00  0.00    +0.000 A 
ATOM     10  C   UNL     1       1.916   7.162  19.244  0.00  0.00    +0.000 A 
ATOM     11  C   UNL     1       2.149   8.228  18.356  0.00  0.00    +0.000 A 
ATOM     12  C   UNL     1       3.236   8.147  17.477  0.00  0.00    +0.000 A 
ATOM     13  C   UNL     1       4.085   7.033  17.453  0.00  0.00    +0.000 A 
ATOM     14  C   UNL     1       3.821   5.980  18.340  0.00  0.00    +0.000 A 
ENDROOT
BRANCH  11  15
ATOM     15  C   UNL     1       1.259   9.453  18.346  0.00  0.00    +0.000 C 
ATOM     16  C   UNL     1       0.582   9.777  19.677  0.00  0.00    +0.000 C 
ATOM     17  C   UNL     1       0.937  11.232  19.817  0.00  0.00    +0.000 C 
ATOM     18  N   UNL     1       1.777  11.680  18.936  0.00  0.00    +0.000 NA
ATOM     19  N   UNL     1       1.974  10.692  18.035  0.00  0.00    +0.000 N 
ATOM     20  H   UNL     1       2.955  10.551  17.791  0.00  0.00    +0.000 HD
BRANCH  17  21
ATOM     21  C   UNL     1       0.377  12.083  20.898  0.00  0.00    +0.000 A 
ATOM     22  C   UNL     1      -0.545  11.585  21.828  0.00  0.00    +0.000 A 
ATOM     23  C   UNL     1      -1.085  12.434  22.799  0.00  0.00    +0.000 A 
ATOM     24  C   UNL     1      -0.703  13.772  22.838  0.00  0.00    +0.000 A 
ATOM     25  F   UNL     1      -1.231  14.582  23.764  0.00  0.00    +0.000 F 
ATOM     26  C   UNL     1       0.213  14.279  21.925  0.00  0.00    +0.000 A 
ATOM     27  C   UNL     1       0.754  13.435  20.954  0.00  0.00    +0.000 A 
ENDBRANCH  17  21
ENDBRANCH  11  15
TORSDOF 2
ENDMDL
MODEL 7
REMARK VINA RESULT:      -8.5      3.073      4.184
REMARK  Name = 
REMARK  3 active torsions:
REMARK  status: ('A' for Active; 'I' for Inactive)
REMARK    1  A    between atoms: C_1  and  N_2
REMARK    2  A    between atoms: C_11  and  C_12
REMARK    3  A    between atoms: C_14  and  C_15
REMARK                            x       y       z     vdW  Elec       q    Type
REMARK                         _______ _______ _______ _____ _____    ______ ____
ROOT
ATOM      1  C   UNL     1       5.879   4.549  17.407  0.00  0.00    +0.000 C 
ATOM      2  N   UNL     1       4.474   4.752  17.692  0.00  0.00    +0.000 N 
ATOM      3  C   UNL     1       3.573   3.758  18.023  0.00  0.00    +0.000 A 
ATOM      4  C   UNL     1       3.719   2.363  18.126  0.00  0.00    +0.000 A 
ATOM      5  C   UNL     1       2.610   1.607  18.518  0.00  0.00    +0.000 A 
ATOM      6  C   UNL     1       1.393   2.217  18.799  0.00  0.00    +0.000 A 
ATOM      7  C   UNL     1       1.251   3.602  18.681  0.00  0.00    +0.000 A 
ATOM      8  C   UNL     1       2.354   4.388  18.283  0.00  0.00    +0.000 A 
ATOM      9  C   UNL     1       2.532   5.790  18.060  0.00  0.00    +0.000 A 
ATOM     10  C   UNL     1       1.669   6.907  18.142  0.00  0.00    +0.000 A 
ATOM     11  C   UNL     1       2.143   8.200  17.857  0.00  0.00    +0.000 A 
ATOM     12  C   UNL     1       3.489   8.361  17.505  0.00  0.00    +0.000 A 
ATOM     13  C   UNL     1       4.366   7.272  17.419  0.00  0.00    +0.000 A 
ATOM     14  C   UNL     1       3.862   5.993  17.695  0.00  0.00    +0.000 A 
ENDROOT
BRANCH  11  15
ATOM     15  C   UNL     1       1.234   9.408  17.937  0.00  0.00    +0.000 C 
ATOM     16  C   UNL     1       0.526   9.602  19.277  0.00  0.00    +0.000 C 
ATOM     17  C   UNL     1       0.855  11.044  19.554  0.00  0.00    +0.000 C 
ATOM     18  N   UNL     1       1.704  11.581  18.733  0.00  0.00    +0.000 NA
ATOM     19  N   UNL     1       1.934  10.680  17.752  0.00  0.00    +0.000 N 
ATOM     20  H   UNL     1       2.922  10.576  17.517  0.00  0.00    +0.000 HD
BRANCH  17  21
ATOM     21  C   UNL     1       0.260  11.788  20.694  0.00  0.00    +0.000 A 
ATOM     22  C   UNL     1       0.485  13.158  20.880  0.00  0.00    +0.000 A 
ATOM     23  C   UNL     1      -0.052  13.809  21.995  0.00  0.00    +0.000 A 
ATOM     24  C   UNL     1      -0.811  13.091  22.915  0.00  0.00    +0.000 A 
ATOM     25  F   UNL     1      -1.316  13.718  23.985  0.00  0.00    +0.000 F 
ATOM     26  C   UNL     1      -1.046  11.734  22.741  0.00  0.00    +0.000 A 
ATOM     27  C   UNL     1      -0.511  11.080  21.630  0.00  0.00    +0.000 A 
ENDBRANCH  17  21
ENDBRANCH  11  15
TORSDOF 2
ENDMDL
MODEL 8
REMARK VINA RESULT:      -8.4      2.929      3.433
REMARK  Name = 
REMARK  3 active torsions:
REMARK  status: ('A' for Active; 'I' for Inactive)
REMARK    1  A    between atoms: C_1  and  N_2
REMARK    2  A    between atoms: C_11  and  C_12
REMARK    3  A    between atoms: C_14  and  C_15
REMARK                            x       y       z     vdW  Elec       q    Type
REMARK                         _______ _______ _______ _____ _____    ______ ____
ROOT
ATOM      1  C   UNL     1       4.768   3.716  19.535  0.00  0.00    +0.000 C 
ATOM      2  N   UNL     1       4.592   4.776  18.563  0.00  0.00    +0.000 N 
ATOM      3  C   UNL     1       5.244   4.864  17.349  0.00  0.00    +0.000 A 
ATOM      4  C   UNL     1       6.228   4.052  16.758  0.00  0.00    +0.000 A 
ATOM      5  C   UNL     1       6.684   4.387  15.478  0.00  0.00    +0.000 A 
ATOM      6  C   UNL     1       6.178   5.494  14.807  0.00  0.00    +0.000 A 
ATOM      7  C   UNL     1       5.210   6.303  15.406  0.00  0.00    +0.000 A 
ATOM      8  C   UNL     1       4.736   5.991  16.698  0.00  0.00    +0.000 A 
ATOM      9  C   UNL     1       3.785   6.606  17.572  0.00  0.00    +0.000 A 
ATOM     10  C   UNL     1       2.977   7.762  17.473  0.00  0.00    +0.000 A 
ATOM     11  C   UNL     1       2.115   8.124  18.524  0.00  0.00    +0.000 A 
ATOM     12  C   UNL     1       2.062   7.310  19.662  0.00  0.00    +0.000 A 
ATOM     13  C   UNL     1       2.850   6.159  19.785  0.00  0.00    +0.000 A 
ATOM     14  C   UNL     1       3.710   5.830  18.727  0.00  0.00    +0.000 A 
ENDROOT
BRANCH  11  15
ATOM     15  C   UNL     1       1.244   9.360  18.438  0.00  0.00    +0.000 C 
ATOM     16  C   UNL     1       0.539   9.751  19.736  0.00  0.00    +0.000 C 
ATOM     17  C   UNL     1       0.912  11.205  19.823  0.00  0.00    +0.000 C 
ATOM     18  N   UNL     1       1.781  11.603  18.945  0.00  0.00    +0.000 NA
ATOM     19  N   UNL     1       1.985  10.574  18.092  0.00  0.00    +0.000 N 
ATOM     20  H   UNL     1       2.970  10.409  17.881  0.00  0.00    +0.000 HD
BRANCH  17  21
ATOM     21  C   UNL     1       0.338  12.111  20.851  0.00  0.00    +0.000 A 
ATOM     22  C   UNL     1       0.746  13.446  20.969  0.00  0.00    +0.000 A 
ATOM     23  C   UNL     1       0.216  14.250  21.984  0.00  0.00    +0.000 A 
ATOM     24  C   UNL     1      -0.716  13.719  22.871  0.00  0.00    +0.000 A 
ATOM     25  F   UNL     1      -1.213  14.492  23.846  0.00  0.00    +0.000 F 
ATOM     26  C   UNL     1      -1.132  12.399  22.763  0.00  0.00    +0.000 A 
ATOM     27  C   UNL     1      -0.606  11.593  21.753  0.00  0.00    +0.000 A 
ENDBRANCH  17  21
ENDBRANCH  11  15
TORSDOF 2
ENDMDL
MODEL 9
REMARK VINA RESULT:      -8.4      2.618      4.088
REMARK  Name = 
REMARK  3 active torsions:
REMARK  status: ('A' for Active; 'I' for Inactive)
REMARK    1  A    between atoms: C_1  and  N_2
REMARK    2  A    between atoms: C_11  and  C_12
REMARK    3  A    between atoms: C_14  and  C_15
REMARK                            x       y       z     vdW  Elec       q    Type
REMARK                         _______ _______ _______ _____ _____    ______ ____
ROOT
ATOM      1  C   UNL     1       5.641   4.367  18.056  0.00  0.00    +0.000 C 
ATOM      2  N   UNL     1       4.393   4.818  18.637  0.00  0.00    +0.000 N 
ATOM      3  C   UNL     1       3.661   4.136  19.589  0.00  0.00    +0.000 A 
ATOM      4  C   UNL     1       3.859   2.883  20.196  0.00  0.00    +0.000 A 
ATOM      5  C   UNL     1       2.943   2.465  21.168  0.00  0.00    +0.000 A 
ATOM      6  C   UNL     1       1.866   3.267  21.526  0.00  0.00    +0.000 A 
ATOM      7  C   UNL     1       1.669   4.505  20.909  0.00  0.00    +0.000 A 
ATOM      8  C   UNL     1       2.575   4.948  19.922  0.00  0.00    +0.000 A 
ATOM      9  C   UNL     1       2.648   6.126  19.113  0.00  0.00    +0.000 A 
ATOM     10  C   UNL     1       1.834   7.275  18.991  0.00  0.00    +0.000 A 
ATOM     11  C   UNL     1       2.170   8.297  18.084  0.00  0.00    +0.000 A 
ATOM     12  C   UNL     1       3.334   8.159  17.316  0.00  0.00    +0.000 A 
ATOM     13  C   UNL     1       4.158   7.031  17.419  0.00  0.00    +0.000 A 
ATOM     14  C   UNL     1       3.791   6.023  18.322  0.00  0.00    +0.000 A 
ENDROOT
BRANCH  11  15
ATOM     15  C   UNL     1       1.310   9.534  17.937  0.00  0.00    +0.000 C 
ATOM     16  C   UNL     1       0.234   9.709  19.007  0.00  0.00    +0.000 C 
ATOM     17  C   UNL     1       0.498  11.127  19.432  0.00  0.00    +0.000 C 
ATOM     18  N   UNL     1       1.571  11.660  18.932  0.00  0.00    +0.000 NA
ATOM     19  N   UNL     1       2.065  10.784  18.028  0.00  0.00    +0.000 N 
ATOM     20  H   UNL     1       3.075  10.652  18.099  0.00  0.00    +0.000 HD
BRANCH  17  21
ATOM     21  C   UNL     1      -0.396  11.854  20.370  0.00  0.00    +0.000 A 
ATOM     22  C   UNL     1      -1.339  12.786  19.918  0.00  0.00    +0.000 A 
ATOM     23  C   UNL     1      -2.126  13.485  20.839  0.00  0.00    +0.000 A 
ATOM     24  C   UNL     1      -1.970  13.248  22.202  0.00  0.00    +0.000 A 
ATOM     25  F   UNL     1      -2.721  13.926  23.079  0.00  0.00    +0.000 F 
ATOM     26  C   UNL     1      -1.043  12.324  22.664  0.00  0.00    +0.000 A 
ATOM     27  C   UNL     1      -0.255  11.625  21.748  0.00  0.00    +0.000 A 
ENDBRANCH  17  21
ENDBRANCH  11  15
TORSDOF 2
ENDMDL
