MODEL 1
REMARK VINA RESULT:      -7.4      0.000      0.000
REMARK  Name = 
REMARK  8 active torsions:
REMARK  status: ('A' for Active; 'I' for Inactive)
REMARK    1  A    between atoms: C_1  and  C_2
REMARK    2  A    between atoms: C_2  and  C_3
REMARK    3  A    between atoms: C_4  and  C_5
REMARK    4  A    between atoms: C_5  and  N_6
REMARK    5  A    between atoms: C_9  and  C_10
REMARK    6  A    between atoms: C_10  and  N_11
REMARK    7  A    between atoms: C_12  and  C_14
REMARK    8  A    between atoms: N_19  and  C_20
REMARK                            x       y       z     vdW  Elec       q    Type
REMARK                         _______ _______ _______ _____ _____    ______ ____
ROOT
ATOM      1  C   UNL     1       4.837   3.799  16.082  0.00  0.00    +0.000 C 
ENDROOT
BRANCH   1   5
ATOM      2  N   UNL     1       7.195   6.524  16.970  0.00  0.00    +0.000 NA
ATOM      3  C   UNL     1       7.611   5.189  16.516  0.00  0.00    +0.000 C 
ATOM      4  C   UNL     1       6.985   4.846  15.166  0.00  0.00    +0.000 C 
ATOM      5  C   UNL     1       5.453   4.915  15.219  0.00  0.00    +0.000 C 
ATOM      6  C   UNL     1       5.050   6.300  15.749  0.00  0.00    +0.000 C 
ATOM      7  C   UNL     1       5.736   6.639  17.080  0.00  0.00    +0.000 C 
BRANCH   2   8
ATOM      8  C   UNL     1       7.849   6.875  18.241  0.00  0.00    +0.000 C 
BRANCH   8  10
ATOM      9  C   UNL     1       8.571   9.447  18.207  0.00  0.00    +0.000 C 
ATOM     10  C   UNL     1       8.258   8.294  18.249  0.00  0.00    +0.000 C 
BRANCH   9  12
ATOM     11  C   UNL     1      10.105  11.152  19.118  0.00  0.00    +0.000 C 
ATOM     12  C   UNL     1       8.970  10.858  18.152  0.00  0.00    +0.000 C 
ENDBRANCH   9  12
ENDBRANCH   8  10
ENDBRANCH   2   8
ENDBRANCH   1   5
BRANCH   1  13
ATOM     13  N   UNL     1       4.199   4.289  17.280  0.00  0.00    +0.000 N 
ATOM     14  C   UNL     1       2.881   3.999  17.565  0.00  0.00    +0.000 C 
ATOM     15  O   UNL     1       2.197   3.314  16.809  0.00  0.00    +0.000 OA
ATOM     16  H   UNL     1       4.783   4.642  18.030  0.00  0.00    +0.000 HD
BRANCH  14  17
ATOM     17  C   UNL     1       2.393   4.533  18.816  0.00  0.00    +0.000 A 
ATOM     18  C   UNL     1       2.251   5.846  19.227  0.00  0.00    +0.000 A 
ATOM     19 CL   UNL     1       2.603   7.286  18.397  0.00  0.00    +0.000 Cl
ATOM     20  C   UNL     1       1.764   5.791  20.539  0.00  0.00    +0.000 A 
ATOM     21  N   UNL     1       1.574   4.541  20.953  0.00  0.00    +0.000 NA
ATOM     22  N   UNL     1       1.968   3.788  19.901  0.00  0.00    +0.000 N 
ATOM     23  C   UNL     1       1.966   2.349  20.062  0.00  0.00    +0.000 C 
ENDBRANCH  14  17
ENDBRANCH   1  13
TORSDOF 6
ENDMDL
MODEL 2
REMARK VINA RESULT:      -7.3      2.963      5.529
REMARK  Name = 
REMARK  8 active torsions:
REMARK  status: ('A' for Active; 'I' for Inactive)
REMARK    1  A    between atoms: C_1  and  C_2
REMARK    2  A    between atoms: C_2  and  C_3
REMARK    3  A    between atoms: C_4  and  C_5
REMARK    4  A    between atoms: C_5  and  N_6
REMARK    5  A    between atoms: C_9  and  C_10
REMARK    6  A    between atoms: C_10  and  N_11
REMARK    7  A    between atoms: C_12  and  C_14
REMARK    8  A    between atoms: N_19  and  C_20
REMARK                            x       y       z     vdW  Elec       q    Type
REMARK                         _______ _______ _______ _____ _____    ______ ____
ROOT
ATOM      1  C   UNL     1       6.245   4.408  17.598  0.00  0.00    +0.000 C 
ENDROOT
BRANCH   1   5
ATOM      2  N   UNL     1       6.334   4.654  13.896  0.00  0.00    +0.000 NA
ATOM      3  C   UNL     1       5.116   4.391  14.677  0.00  0.00    +0.000 C 
ATOM      4  C   UNL     1       4.883   5.482  15.718  0.00  0.00    +0.000 C 
ATOM      5  C   UNL     1       6.079   5.622  16.668  0.00  0.00    +0.000 C 
ATOM      6  C   UNL     1       7.344   5.841  15.822  0.00  0.00    +0.000 C 
ATOM      7  C   UNL     1       7.523   4.758  14.749  0.00  0.00    +0.000 C 
BRANCH   2   8
ATOM      8  C   UNL     1       6.522   3.632  12.853  0.00  0.00    +0.000 C 
BRANCH   8  10
ATOM      9  C   UNL     1       4.309   3.299  11.395  0.00  0.00    +0.000 C 
ATOM     10  C   UNL     1       5.284   3.444  12.071  0.00  0.00    +0.000 C 
BRANCH   9  12
ATOM     11  C   UNL     1       2.967   4.269   9.565  0.00  0.00    +0.000 C 
ATOM     12  C   UNL     1       3.109   3.135  10.566  0.00  0.00    +0.000 C 
ENDBRANCH   9  12
ENDBRANCH   8  10
ENDBRANCH   2   8
ENDBRANCH   1   5
BRANCH   1  13
ATOM     13  N   UNL     1       4.990   3.874  18.072  0.00  0.00    +0.000 N 
ATOM     14  C   UNL     1       4.397   4.344  19.225  0.00  0.00    +0.000 C 
ATOM     15  O   UNL     1       4.914   5.233  19.896  0.00  0.00    +0.000 OA
ATOM     16  H   UNL     1       4.425   3.326  17.433  0.00  0.00    +0.000 HD
BRANCH  14  17
ATOM     17  C   UNL     1       3.129   3.734  19.553  0.00  0.00    +0.000 A 
ATOM     18  C   UNL     1       2.001   4.284  20.134  0.00  0.00    +0.000 A 
ATOM     19 CL   UNL     1       1.720   5.875  20.663  0.00  0.00    +0.000 Cl
ATOM     20  C   UNL     1       1.075   3.239  20.251  0.00  0.00    +0.000 A 
ATOM     21  N   UNL     1       1.545   2.094  19.760  0.00  0.00    +0.000 NA
ATOM     22  N   UNL     1       2.795   2.407  19.349  0.00  0.00    +0.000 N 
ATOM     23  C   UNL     1       3.623   1.337  18.834  0.00  0.00    +0.000 C 
ENDBRANCH  14  17
ENDBRANCH   1  13
TORSDOF 6
ENDMDL
MODEL 3
REMARK VINA RESULT:      -7.2      1.093      1.095
REMARK  Name = 
REMARK  8 active torsions:
REMARK  status: ('A' for Active; 'I' for Inactive)
REMARK    1  A    between atoms: C_1  and  C_2
REMARK    2  A    between atoms: C_2  and  C_3
REMARK    3  A    between atoms: C_4  and  C_5
REMARK    4  A    between atoms: C_5  and  N_6
REMARK    5  A    between atoms: C_9  and  C_10
REMARK    6  A    between atoms: C_10  and  N_11
REMARK    7  A    between atoms: C_12  and  C_14
REMARK    8  A    between atoms: N_19  and  C_20
REMARK                            x       y       z     vdW  Elec       q    Type
REMARK                         _______ _______ _______ _____ _____    ______ ____
ROOT
ATOM      1  C   UNL     1       5.072   3.909  16.373  0.00  0.00    +0.000 C 
ENDROOT
BRANCH   1   5
ATOM      2  N   UNL     1       7.162   6.899  17.058  0.00  0.00    +0.000 NA
ATOM      3  C   UNL     1       7.665   5.664  16.437  0.00  0.00    +0.000 C 
ATOM      4  C   UNL     1       6.860   5.306  15.191  0.00  0.00    +0.000 C 
ATOM      5  C   UNL     1       5.367   5.147  15.509  0.00  0.00    +0.000 C 
ATOM      6  C   UNL     1       4.883   6.429  16.206  0.00  0.00    +0.000 C 
ATOM      7  C   UNL     1       5.744   6.793  17.423  0.00  0.00    +0.000 C 
BRANCH   2   8
ATOM      8  C   UNL     1       7.979   7.273  18.223  0.00  0.00    +0.000 C 
BRANCH   8  10
ATOM      9  C   UNL     1       8.607   9.867  18.102  0.00  0.00    +0.000 C 
ATOM     10  C   UNL     1       8.326   8.708  18.185  0.00  0.00    +0.000 C 
BRANCH   9  12
ATOM     11  C   UNL     1      10.469  11.486  18.098  0.00  0.00    +0.000 C 
ATOM     12  C   UNL     1       8.966  11.286  18.001  0.00  0.00    +0.000 C 
ENDBRANCH   9  12
ENDBRANCH   8  10
ENDBRANCH   2   8
ENDBRANCH   1   5
BRANCH   1  13
ATOM     13  N   UNL     1       3.923   4.071  17.232  0.00  0.00    +0.000 N 
ATOM     14  C   UNL     1       4.010   3.884  18.596  0.00  0.00    +0.000 C 
ATOM     15  O   UNL     1       5.068   3.570  19.134  0.00  0.00    +0.000 OA
ATOM     16  H   UNL     1       3.111   4.557  16.867  0.00  0.00    +0.000 HD
BRANCH  14  17
ATOM     17  C   UNL     1       2.783   4.114  19.324  0.00  0.00    +0.000 A 
ATOM     18  C   UNL     1       2.221   5.297  19.769  0.00  0.00    +0.000 A 
ATOM     19 CL   UNL     1       2.784   6.892  19.610  0.00  0.00    +0.000 Cl
ATOM     20  C   UNL     1       1.047   4.938  20.444  0.00  0.00    +0.000 A 
ATOM     21  N   UNL     1       0.835   3.625  20.423  0.00  0.00    +0.000 NA
ATOM     22  N   UNL     1       1.901   3.136  19.749  0.00  0.00    +0.000 N 
ATOM     23  C   UNL     1       2.020   1.699  19.623  0.00  0.00    +0.000 C 
ENDBRANCH  14  17
ENDBRANCH   1  13
TORSDOF 6
ENDMDL
MODEL 4
REMARK VINA RESULT:      -7.0      2.336      4.946
REMARK  Name = 
REMARK  8 active torsions:
REMARK  status: ('A' for Active; 'I' for Inactive)
REMARK    1  A    between atoms: C_1  and  C_2
REMARK    2  A    between atoms: C_2  and  C_3
REMARK    3  A    between atoms: C_4  and  C_5
REMARK    4  A    between atoms: C_5  and  N_6
REMARK    5  A    between atoms: C_9  and  C_10
REMARK    6  A    between atoms: C_10  and  N_11
REMARK    7  A    between atoms: C_12  and  C_14
REMARK    8  A    between atoms: N_19  and  C_20
REMARK                            x       y       z     vdW  Elec       q    Type
REMARK                         _______ _______ _______ _____ _____    ______ ____
ROOT
ATOM      1  C   UNL     1       6.703   5.469  19.639  0.00  0.00    +0.000 C 
ENDROOT
BRANCH   1   5
ATOM      2  N   UNL     1       6.587   5.570  15.931  0.00  0.00    +0.000 NA
ATOM      3  C   UNL     1       6.286   6.719  16.798  0.00  0.00    +0.000 C 
ATOM      4  C   UNL     1       7.448   7.015  17.743  0.00  0.00    +0.000 C 
ATOM      5  C   UNL     1       7.797   5.798  18.609  0.00  0.00    +0.000 C 
ATOM      6  C   UNL     1       8.051   4.601  17.679  0.00  0.00    +0.000 C 
ATOM      7  C   UNL     1       6.889   4.361  16.705  0.00  0.00    +0.000 C 
BRANCH   2   8
ATOM      8  C   UNL     1       5.489   5.326  14.980  0.00  0.00    +0.000 C 
BRANCH   8  10
ATOM      9  C   UNL     1       6.260   3.745  12.970  0.00  0.00    +0.000 C 
ATOM     10  C   UNL     1       5.926   4.434  13.889  0.00  0.00    +0.000 C 
BRANCH   9  12
ATOM     11  C   UNL     1       5.525   1.974  11.417  0.00  0.00    +0.000 C 
ATOM     12  C   UNL     1       6.658   2.892  11.845  0.00  0.00    +0.000 C 
ENDBRANCH   9  12
ENDBRANCH   8  10
ENDBRANCH   2   8
ENDBRANCH   1   5
BRANCH   1  13
ATOM     13  N   UNL     1       5.399   5.281  19.048  0.00  0.00    +0.000 N 
ATOM     14  C   UNL     1       4.707   4.096  19.190  0.00  0.00    +0.000 C 
ATOM     15  O   UNL     1       5.174   3.152  19.823  0.00  0.00    +0.000 OA
ATOM     16  H   UNL     1       4.887   6.098  18.736  0.00  0.00    +0.000 HD
BRANCH  14  17
ATOM     17  C   UNL     1       3.402   4.071  18.570  0.00  0.00    +0.000 A 
ATOM     18  C   UNL     1       2.541   5.110  18.268  0.00  0.00    +0.000 A 
ATOM     19 CL   UNL     1       2.724   6.780  18.526  0.00  0.00    +0.000 Cl
ATOM     20  C   UNL     1       1.403   4.519  17.704  0.00  0.00    +0.000 A 
ATOM     21  N   UNL     1       1.514   3.196  17.615  0.00  0.00    +0.000 NA
ATOM     22  N   UNL     1       2.728   2.937  18.152  0.00  0.00    +0.000 N 
ATOM     23  C   UNL     1       3.125   1.552  18.286  0.00  0.00    +0.000 C 
ENDBRANCH  14  17
ENDBRANCH   1  13
TORSDOF 6
ENDMDL
MODEL 5
REMARK VINA RESULT:      -7.0      3.755      4.932
REMARK  Name = 
REMARK  8 active torsions:
REMARK  status: ('A' for Active; 'I' for Inactive)
REMARK    1  A    between atoms: C_1  and  C_2
REMARK    2  A    between atoms: C_2  and  C_3
REMARK    3  A    between atoms: C_4  and  C_5
REMARK    4  A    between atoms: C_5  and  N_6
REMARK    5  A    between atoms: C_9  and  C_10
REMARK    6  A    between atoms: C_10  and  N_11
REMARK    7  A    between atoms: C_12  and  C_14
REMARK    8  A    between atoms: N_19  and  C_20
REMARK                            x       y       z     vdW  Elec       q    Type
REMARK                         _______ _______ _______ _____ _____    ______ ____
ROOT
ATOM      1  C   UNL     1       2.666   7.098  18.115  0.00  0.00    +0.000 C 
ENDROOT
BRANCH   1   5
ATOM      2  N   UNL     1       5.421   4.617  18.305  0.00  0.00    +0.000 NA
ATOM      3  C   UNL     1       5.065   5.541  19.393  0.00  0.00    +0.000 C 
ATOM      4  C   UNL     1       3.597   5.395  19.783  0.00  0.00    +0.000 C 
ATOM      5  C   UNL     1       2.668   5.632  18.585  0.00  0.00    +0.000 C 
ATOM      6  C   UNL     1       3.097   4.693  17.447  0.00  0.00    +0.000 C 
ATOM      7  C   UNL     1       4.590   4.824  17.113  0.00  0.00    +0.000 C 
BRANCH   2   8
ATOM      8  C   UNL     1       6.851   4.718  17.974  0.00  0.00    +0.000 C 
BRANCH   8  10
ATOM      9  C   UNL     1       7.539   7.286  17.712  0.00  0.00    +0.000 C 
ATOM     10  C   UNL     1       7.259   6.129  17.824  0.00  0.00    +0.000 C 
BRANCH   9  12
ATOM     11  C   UNL     1       8.752   9.191  18.705  0.00  0.00    +0.000 C 
ATOM     12  C   UNL     1       7.883   8.704  17.558  0.00  0.00    +0.000 C 
ENDBRANCH   9  12
ENDBRANCH   8  10
ENDBRANCH   2   8
ENDBRANCH   1   5
BRANCH   1  13
ATOM     13  N   UNL     1       2.195   8.021  19.120  0.00  0.00    +0.000 N 
ATOM     14  C   UNL     1       1.356   9.068  18.800  0.00  0.00    +0.000 C 
ATOM     15  O   UNL     1       0.979   9.258  17.647  0.00  0.00    +0.000 OA
ATOM     16  H   UNL     1       2.283   7.760  20.096  0.00  0.00    +0.000 HD
BRANCH  14  17
ATOM     17  C   UNL     1       0.944   9.886  19.918  0.00  0.00    +0.000 A 
ATOM     18  C   UNL     1       0.243   9.543  21.060  0.00  0.00    +0.000 A 
ATOM     19 CL   UNL     1      -0.377   8.036  21.541  0.00  0.00    +0.000 Cl
ATOM     20  C   UNL     1       0.091  10.728  21.792  0.00  0.00    +0.000 A 
ATOM     21  N   UNL     1       0.670  11.767  21.194  0.00  0.00    +0.000 NA
ATOM     22  N   UNL     1       1.175  11.243  20.054  0.00  0.00    +0.000 N 
ATOM     23  C   UNL     1       1.808  12.148  19.117  0.00  0.00    +0.000 C 
ENDBRANCH  14  17
ENDBRANCH   1  13
TORSDOF 6
ENDMDL
MODEL 6
REMARK VINA RESULT:      -7.0      3.054      5.738
REMARK  Name = 
REMARK  8 active torsions:
REMARK  status: ('A' for Active; 'I' for Inactive)
REMARK    1  A    between atoms: C_1  and  C_2
REMARK    2  A    between atoms: C_2  and  C_3
REMARK    3  A    between atoms: C_4  and  C_5
REMARK    4  A    between atoms: C_5  and  N_6
REMARK    5  A    between atoms: C_9  and  C_10
REMARK    6  A    between atoms: C_10  and  N_11
REMARK    7  A    between atoms: C_12  and  C_14
REMARK    8  A    between atoms: N_19  and  C_20
REMARK                            x       y       z     vdW  Elec       q    Type
REMARK                         _______ _______ _______ _____ _____    ______ ____
ROOT
ATOM      1  C   UNL     1       6.776   4.639  17.108  0.00  0.00    +0.000 C 
ENDROOT
BRANCH   1   5
ATOM      2  N   UNL     1       6.245   4.308  13.449  0.00  0.00    +0.000 NA
ATOM      3  C   UNL     1       5.164   4.282  14.446  0.00  0.00    +0.000 C 
ATOM      4  C   UNL     1       5.185   5.536  15.316  0.00  0.00    +0.000 C 
ATOM      5  C   UNL     1       6.534   5.708  16.027  0.00  0.00    +0.000 C 
ATOM      6  C   UNL     1       7.647   5.676  14.968  0.00  0.00    +0.000 C 
ATOM      7  C   UNL     1       7.567   4.430  14.074  0.00  0.00    +0.000 C 
BRANCH   2   8
ATOM      8  C   UNL     1       6.183   3.126  12.574  0.00  0.00    +0.000 C 
BRANCH   8  10
ATOM      9  C   UNL     1       4.004   3.227  11.033  0.00  0.00    +0.000 C 
ATOM     10  C   UNL     1       4.970   3.157  11.733  0.00  0.00    +0.000 C 
BRANCH   9  12
ATOM     11  C   UNL     1       2.809   4.598   9.364  0.00  0.00    +0.000 C 
ATOM     12  C   UNL     1       2.810   3.319  10.184  0.00  0.00    +0.000 C 
ENDBRANCH   9  12
ENDBRANCH   8  10
ENDBRANCH   2   8
ENDBRANCH   1   5
BRANCH   1  13
ATOM     13  N   UNL     1       5.559   4.051  17.614  0.00  0.00    +0.000 N 
ATOM     14  C   UNL     1       5.052   4.393  18.850  0.00  0.00    +0.000 C 
ATOM     15  O   UNL     1       5.618   5.210  19.571  0.00  0.00    +0.000 OA
ATOM     16  H   UNL     1       4.947   3.569  16.963  0.00  0.00    +0.000 HD
BRANCH  14  17
ATOM     17  C   UNL     1       3.810   3.744  19.204  0.00  0.00    +0.000 A 
ATOM     18  C   UNL     1       2.507   4.090  18.897  0.00  0.00    +0.000 A 
ATOM     19 CL   UNL     1       1.918   5.403  17.994  0.00  0.00    +0.000 Cl
ATOM     20  C   UNL     1       1.695   3.132  19.518  0.00  0.00    +0.000 A 
ATOM     21  N   UNL     1       2.407   2.210  20.163  0.00  0.00    +0.000 NA
ATOM     22  N   UNL     1       3.688   2.599  19.971  0.00  0.00    +0.000 N 
ATOM     23  C   UNL     1       4.729   1.840  20.630  0.00  0.00    +0.000 C 
ENDBRANCH  14  17
ENDBRANCH   1  13
TORSDOF 6
ENDMDL
MODEL 7
REMARK VINA RESULT:      -6.8      3.085      6.074
REMARK  Name = 
REMARK  8 active torsions:
REMARK  status: ('A' for Active; 'I' for Inactive)
REMARK    1  A    between atoms: C_1  and  C_2
REMARK    2  A    between atoms: C_2  and  C_3
REMARK    3  A    between atoms: C_4  and  C_5
REMARK    4  A    between atoms: C_5  and  N_6
REMARK    5  A    between atoms: C_9  and  C_10
REMARK    6  A    between atoms: C_10  and  N_11
REMARK    7  A    between atoms: C_12  and  C_14
REMARK    8  A    between atoms: N_19  and  C_20
REMARK                            x       y       z     vdW  Elec       q    Type
REMARK                         _______ _______ _______ _____ _____    ______ ____
ROOT
ATOM      1  C   UNL     1       2.459   2.776  17.535  0.00  0.00    +0.000 C 
ENDROOT
BRANCH   1   5
ATOM      2  N   UNL     1       1.996   4.501  20.788  0.00  0.00    +0.000 NA
ATOM      3  C   UNL     1       0.911   3.856  20.034  0.00  0.00    +0.000 C 
ATOM      4  C   UNL     1       1.234   2.391  19.748  0.00  0.00    +0.000 C 
ATOM      5  C   UNL     1       2.551   2.243  18.976  0.00  0.00    +0.000 C 
ATOM      6  C   UNL     1       3.654   2.974  19.759  0.00  0.00    +0.000 C 
ATOM      7  C   UNL     1       3.278   4.427  20.079  0.00  0.00    +0.000 C 
BRANCH   2   8
ATOM      8  C   UNL     1       1.654   5.895  21.115  0.00  0.00    +0.000 C 
BRANCH   8  10
ATOM      9  C   UNL     1       2.254   7.566  19.120  0.00  0.00    +0.000 C 
ATOM     10  C   UNL     1       2.001   6.798  20.000  0.00  0.00    +0.000 C 
BRANCH   9  12
ATOM     11  C   UNL     1       1.444   9.528  17.861  0.00  0.00    +0.000 C 
ATOM     12  C   UNL     1       2.554   8.504  18.032  0.00  0.00    +0.000 C 
ENDBRANCH   9  12
ENDBRANCH   8  10
ENDBRANCH   2   8
ENDBRANCH   1   5
BRANCH   1  13
ATOM     13  N   UNL     1       3.747   3.045  16.941  0.00  0.00    +0.000 N 
ATOM     14  C   UNL     1       4.168   4.333  16.684  0.00  0.00    +0.000 C 
ATOM     15  O   UNL     1       3.462   5.303  16.948  0.00  0.00    +0.000 OA
ATOM     16  H   UNL     1       4.441   2.305  16.935  0.00  0.00    +0.000 HD
BRANCH  14  17
ATOM     17  C   UNL     1       5.493   4.443  16.117  0.00  0.00    +0.000 A 
ATOM     18  C   UNL     1       5.914   4.296  14.808  0.00  0.00    +0.000 A 
ATOM     19 CL   UNL     1       5.014   3.934  13.413  0.00  0.00    +0.000 Cl
ATOM     20  C   UNL     1       7.304   4.476  14.826  0.00  0.00    +0.000 A 
ATOM     21  N   UNL     1       7.760   4.748  16.046  0.00  0.00    +0.000 NA
ATOM     22  N   UNL     1       6.652   4.715  16.821  0.00  0.00    +0.000 N 
ATOM     23  C   UNL     1       6.820   4.890  18.248  0.00  0.00    +0.000 C 
ENDBRANCH  14  17
ENDBRANCH   1  13
TORSDOF 6
ENDMDL
MODEL 8
REMARK VINA RESULT:      -6.8      3.119      5.252
REMARK  Name = 
REMARK  8 active torsions:
REMARK  status: ('A' for Active; 'I' for Inactive)
REMARK    1  A    between atoms: C_1  and  C_2
REMARK    2  A    between atoms: C_2  and  C_3
REMARK    3  A    between atoms: C_4  and  C_5
REMARK    4  A    between atoms: C_5  and  N_6
REMARK    5  A    between atoms: C_9  and  C_10
REMARK    6  A    between atoms: C_10  and  N_11
REMARK    7  A    between atoms: C_12  and  C_14
REMARK    8  A    between atoms: N_19  and  C_20
REMARK                            x       y       z     vdW  Elec       q    Type
REMARK                         _______ _______ _______ _____ _____    ______ ____
ROOT
ATOM      1  C   UNL     1       4.365   4.391  16.882  0.00  0.00    +0.000 C 
ENDROOT
BRANCH   1   5
ATOM      2  N   UNL     1       6.975   5.108  14.342  0.00  0.00    +0.000 NA
ATOM      3  C   UNL     1       5.602   5.634  14.287  0.00  0.00    +0.000 C 
ATOM      4  C   UNL     1       5.253   6.396  15.563  0.00  0.00    +0.000 C 
ATOM      5  C   UNL     1       5.414   5.515  16.809  0.00  0.00    +0.000 C 
ATOM      6  C   UNL     1       6.838   4.936  16.810  0.00  0.00    +0.000 C 
ATOM      7  C   UNL     1       7.179   4.223  15.494  0.00  0.00    +0.000 C 
BRANCH   2   8
ATOM      8  C   UNL     1       7.328   4.428  13.085  0.00  0.00    +0.000 C 
BRANCH   8  10
ATOM      9  C   UNL     1       5.163   3.408  11.899  0.00  0.00    +0.000 C 
ATOM     10  C   UNL     1       6.132   3.842  12.449  0.00  0.00    +0.000 C 
BRANCH   9  12
ATOM     11  C   UNL     1       3.372   3.897  10.274  0.00  0.00    +0.000 C 
ATOM     12  C   UNL     1       3.965   2.881  11.235  0.00  0.00    +0.000 C 
ENDBRANCH   9  12
ENDBRANCH   8  10
ENDBRANCH   2   8
ENDBRANCH   1   5
BRANCH   1  13
ATOM     13  N   UNL     1       3.929   4.102  18.228  0.00  0.00    +0.000 N 
ATOM     14  C   UNL     1       3.136   3.009  18.509  0.00  0.00    +0.000 C 
ATOM     15  O   UNL     1       2.768   2.240  17.626  0.00  0.00    +0.000 OA
ATOM     16  H   UNL     1       4.402   4.562  18.998  0.00  0.00    +0.000 HD
BRANCH  14  17
ATOM     17  C   UNL     1       2.808   2.835  19.906  0.00  0.00    +0.000 A 
ATOM     18  C   UNL     1       1.711   3.276  20.623  0.00  0.00    +0.000 A 
ATOM     19 CL   UNL     1       0.366   4.176  20.104  0.00  0.00    +0.000 Cl
ATOM     20  C   UNL     1       1.916   2.855  21.943  0.00  0.00    +0.000 A 
ATOM     21  N   UNL     1       3.047   2.168  22.083  0.00  0.00    +0.000 NA
ATOM     22  N   UNL     1       3.582   2.172  20.840  0.00  0.00    +0.000 N 
ATOM     23  C   UNL     1       4.886   1.567  20.666  0.00  0.00    +0.000 C 
ENDBRANCH  14  17
ENDBRANCH   1  13
TORSDOF 6
ENDMDL
MODEL 9
REMARK VINA RESULT:      -6.8      2.612      5.212
REMARK  Name = 
REMARK  8 active torsions:
REMARK  status: ('A' for Active; 'I' for Inactive)
REMARK    1  A    between atoms: C_1  and  C_2
REMARK    2  A    between atoms: C_2  and  C_3
REMARK    3  A    between atoms: C_4  and  C_5
REMARK    4  A    between atoms: C_5  and  N_6
REMARK    5  A    between atoms: C_9  and  C_10
REMARK    6  A    between atoms: C_10  and  N_11
REMARK    7  A    between atoms: C_12  and  C_14
REMARK    8  A    between atoms: N_19  and  C_20
REMARK                            x       y       z     vdW  Elec       q    Type
REMARK                         _______ _______ _______ _____ _____    ______ ____
ROOT
ATOM      1  C   UNL     1       6.036   5.048  18.519  0.00  0.00    +0.000 C 
ENDROOT
BRANCH   1   5
ATOM      2  N   UNL     1       6.536   5.171  14.844  0.00  0.00    +0.000 NA
ATOM      3  C   UNL     1       5.267   4.810  15.493  0.00  0.00    +0.000 C 
ATOM      4  C   UNL     1       4.804   5.907  16.448  0.00  0.00    +0.000 C 
ATOM      5  C   UNL     1       5.860   6.205  17.520  0.00  0.00    +0.000 C 
ATOM      6  C   UNL     1       7.189   6.524  16.815  0.00  0.00    +0.000 C 
ATOM      7  C   UNL     1       7.600   5.429  15.822  0.00  0.00    +0.000 C 
BRANCH   2   8
ATOM      8  C   UNL     1       6.947   4.138  13.879  0.00  0.00    +0.000 C 
BRANCH   8  10
ATOM      9  C   UNL     1       4.943   3.437  12.258  0.00  0.00    +0.000 C 
ATOM     10  C   UNL     1       5.821   3.758  13.003  0.00  0.00    +0.000 C 
BRANCH   9  12
ATOM     11  C   UNL     1       3.589   4.155  10.324  0.00  0.00    +0.000 C 
ATOM     12  C   UNL     1       3.865   3.058  11.338  0.00  0.00    +0.000 C 
ENDBRANCH   9  12
ENDBRANCH   8  10
ENDBRANCH   2   8
ENDBRANCH   1   5
BRANCH   1  13
ATOM     13  N   UNL     1       4.865   4.212  18.638  0.00  0.00    +0.000 N 
ATOM     14  C   UNL     1       3.761   4.615  19.361  0.00  0.00    +0.000 C 
ATOM     15  O   UNL     1       3.732   5.701  19.935  0.00  0.00    +0.000 OA
ATOM     16  H   UNL     1       4.757   3.436  17.994  0.00  0.00    +0.000 HD
BRANCH  14  17
ATOM     17  C   UNL     1       2.656   3.684  19.361  0.00  0.00    +0.000 A 
ATOM     18  C   UNL     1       1.989   3.096  18.302  0.00  0.00    +0.000 A 
ATOM     19 CL   UNL     1       2.243   3.268  16.630  0.00  0.00    +0.000 Cl
ATOM     20  C   UNL     1       0.983   2.304  18.869  0.00  0.00    +0.000 A 
ATOM     21  N   UNL     1       1.000   2.344  20.199  0.00  0.00    +0.000 NA
ATOM     22  N   UNL     1       2.015   3.193  20.483  0.00  0.00    +0.000 N 
ATOM     23  C   UNL     1       2.247   3.526  21.873  0.00  0.00    +0.000 C 
ENDBRANCH  14  17
ENDBRANCH   1  13
TORSDOF 6
ENDMDL
