MODEL 1
REMARK VINA RESULT:      -6.8      0.000      0.000
REMARK  Name = 
REMARK  11 active torsions:
REMARK  status: ('A' for Active; 'I' for Inactive)
REMARK    1  A    between atoms: C_1  and  O_2
REMARK    2  A    between atoms: O_2  and  C_3
REMARK    3  A    between atoms: C_6  and  C_7
REMARK    4  A    between atoms: C_8  and  C_9
REMARK    5  A    between atoms: C_11  and  O_12
REMARK    6  A    between atoms: O_12  and  C_13
REMARK    7  A    between atoms: C_16  and  O_17
REMARK    8  A    between atoms: O_17  and  C_18
REMARK    9  A    between atoms: C_24  and  N_25
REMARK   10  A    between atoms: C_26  and  C_27
REMARK   11  A    between atoms: C_29  and  C_30
REMARK                            x       y       z     vdW  Elec       q    Type
REMARK                         _______ _______ _______ _____ _____    ______ ____
ROOT
ATOM      1  C   UNL     1      -3.335  13.786  21.749  0.00  0.00    +0.000 A 
ATOM      2  C   UNL     1      -4.684  13.988  21.262  0.00  0.00    +0.000 A 
ATOM      3  N   UNL     1      -5.170  15.156  21.698  0.00  0.00    +0.000 NA
ATOM      4  O   UNL     1      -4.258  15.653  22.578  0.00  0.00    +0.000 OA
ATOM      5  C   UNL     1      -3.171  14.842  22.647  0.00  0.00    +0.000 A 
ENDROOT
BRANCH   2   6
ATOM      6  C   UNL     1      -5.602  13.052  20.584  0.00  0.00    +0.000 A 
ATOM      7  C   UNL     1      -5.439  12.886  19.181  0.00  0.00    +0.000 A 
ATOM      8  C   UNL     1      -6.053  11.859  18.474  0.00  0.00    +0.000 A 
ATOM      9  C   UNL     1      -6.704  10.913  19.227  0.00  0.00    +0.000 A 
ATOM     10  C   UNL     1      -6.919  11.076  20.591  0.00  0.00    +0.000 A 
ATOM     11  C   UNL     1      -6.454  12.175  21.298  0.00  0.00    +0.000 A 
ATOM     12  O   UNL     1      -7.444   9.930  21.130  0.00  0.00    +0.000 OA
ATOM     13  C   UNL     1      -7.078   9.004  20.101  0.00  0.00    +0.000 C 
ATOM     14  O   UNL     1      -7.041   9.651  18.816  0.00  0.00    +0.000 OA
BRANCH   8  15
ATOM     15  O   UNL     1      -5.804  11.822  17.138  0.00  0.00    +0.000 OA
ATOM     16  C   UNL     1      -4.446  11.585  16.780  0.00  0.00    +0.000 C 
ENDBRANCH   8  15
BRANCH  11  17
ATOM     17  O   UNL     1      -6.601  12.360  22.642  0.00  0.00    +0.000 OA
ATOM     18  C   UNL     1      -7.812  12.897  23.160  0.00  0.00    +0.000 C 
ENDBRANCH  11  17
ENDBRANCH   2   6
BRANCH   5  19
ATOM     19  N   UNL     1      -2.209  15.252  23.561  0.00  0.00    +0.000 N 
ATOM     20  C   UNL     1      -0.982  15.717  23.131  0.00  0.00    +0.000 C 
ATOM     21  C   UNL     1      -0.990  16.659  21.945  0.00  0.00    +0.000 C 
ATOM     22  O   UNL     1       0.085  15.434  23.680  0.00  0.00    +0.000 OA
ATOM     23  C   UNL     1      -2.532  14.989  24.899  0.00  0.00    +0.000 C 
ATOM     24  C   UNL     1      -1.709  15.665  25.971  0.00  0.00    +0.000 C 
ATOM     25  O   UNL     1      -3.422  14.209  25.255  0.00  0.00    +0.000 OA
ENDBRANCH   5  19
BRANCH   1  29
ATOM     26  C   UNL     1      -0.595  10.504  21.278  0.00  0.00    +0.000 A 
ATOM     27  C   UNL     1      -1.035  10.887  22.539  0.00  0.00    +0.000 A 
ATOM     28  C   UNL     1      -1.981  11.908  22.675  0.00  0.00    +0.000 A 
ATOM     29  C   UNL     1      -2.431  12.634  21.557  0.00  0.00    +0.000 A 
ATOM     30  C   UNL     1      -1.919  12.290  20.301  0.00  0.00    +0.000 A 
ATOM     31  C   UNL     1      -1.030  11.216  20.164  0.00  0.00    +0.000 A 
BRANCH  26  33
ATOM     32  C   UNL     1       0.911   9.287  19.965  0.00  0.00    +0.000 C 
ATOM     33  O   UNL     1       0.291   9.464  21.235  0.00  0.00    +0.000 OA
ENDBRANCH  26  33
ENDBRANCH   1  29
TORSDOF 6
ENDMDL
MODEL 2
REMARK VINA RESULT:      -6.7      2.538      5.308
REMARK  Name = 
REMARK  11 active torsions:
REMARK  status: ('A' for Active; 'I' for Inactive)
REMARK    1  A    between atoms: C_1  and  O_2
REMARK    2  A    between atoms: O_2  and  C_3
REMARK    3  A    between atoms: C_6  and  C_7
REMARK    4  A    between atoms: C_8  and  C_9
REMARK    5  A    between atoms: C_11  and  O_12
REMARK    6  A    between atoms: O_12  and  C_13
REMARK    7  A    between atoms: C_16  and  O_17
REMARK    8  A    between atoms: O_17  and  C_18
REMARK    9  A    between atoms: C_24  and  N_25
REMARK   10  A    between atoms: C_26  and  C_27
REMARK   11  A    between atoms: C_29  and  C_30
REMARK                            x       y       z     vdW  Elec       q    Type
REMARK                         _______ _______ _______ _____ _____    ______ ____
ROOT
ATOM      1  C   UNL     1      -1.422  13.895  22.833  0.00  0.00    +0.000 A 
ATOM      2  C   UNL     1      -0.416  13.231  22.030  0.00  0.00    +0.000 A 
ATOM      3  N   UNL     1       0.743  13.897  22.085  0.00  0.00    +0.000 NA
ATOM      4  O   UNL     1       0.496  15.052  22.760  0.00  0.00    +0.000 OA
ATOM      5  C   UNL     1      -0.791  15.088  23.191  0.00  0.00    +0.000 A 
ENDROOT
BRANCH   2   6
ATOM      6  C   UNL     1      -0.549  12.126  21.060  0.00  0.00    +0.000 A 
ATOM      7  C   UNL     1      -1.111  12.440  19.792  0.00  0.00    +0.000 A 
ATOM      8  C   UNL     1      -1.053  11.567  18.712  0.00  0.00    +0.000 A 
ATOM      9  C   UNL     1      -0.284  10.442  18.886  0.00  0.00    +0.000 A 
ATOM     10  C   UNL     1       0.235  10.088  20.126  0.00  0.00    +0.000 A 
ATOM     11  C   UNL     1       0.058  10.862  21.262  0.00  0.00    +0.000 A 
ATOM     12  O   UNL     1       1.088   9.023  19.998  0.00  0.00    +0.000 OA
ATOM     13  C   UNL     1       1.356   9.111  18.593  0.00  0.00    +0.000 C 
ATOM     14  O   UNL     1       0.227   9.656  17.888  0.00  0.00    +0.000 OA
BRANCH   8  15
ATOM     15  O   UNL     1      -1.631  12.002  17.561  0.00  0.00    +0.000 OA
ATOM     16  C   UNL     1      -2.828  11.325  17.190  0.00  0.00    +0.000 C 
ENDBRANCH   8  15
BRANCH  11  17
ATOM     17  O   UNL     1       0.583  10.582  22.490  0.00  0.00    +0.000 OA
ATOM     18  C   UNL     1      -0.028   9.601  23.321  0.00  0.00    +0.000 C 
ENDBRANCH  11  17
ENDBRANCH   2   6
BRANCH   5  19
ATOM     19  N   UNL     1      -1.141  16.258  23.850  0.00  0.00    +0.000 N 
ATOM     20  C   UNL     1      -1.377  17.421  23.144  0.00  0.00    +0.000 C 
ATOM     21  C   UNL     1      -2.191  17.291  21.873  0.00  0.00    +0.000 C 
ATOM     22  O   UNL     1      -0.995  18.534  23.514  0.00  0.00    +0.000 OA
ATOM     23  C   UNL     1      -1.059  16.183  25.247  0.00  0.00    +0.000 C 
ATOM     24  C   UNL     1      -1.707  17.284  26.054  0.00  0.00    +0.000 C 
ATOM     25  O   UNL     1      -0.457  15.293  25.857  0.00  0.00    +0.000 OA
ENDBRANCH   5  19
BRANCH   1  29
ATOM     26  C   UNL     1      -5.516  12.726  23.445  0.00  0.00    +0.000 A 
ATOM     27  C   UNL     1      -4.566  12.535  24.441  0.00  0.00    +0.000 A 
ATOM     28  C   UNL     1      -3.254  12.984  24.259  0.00  0.00    +0.000 A 
ATOM     29  C   UNL     1      -2.843  13.545  23.035  0.00  0.00    +0.000 A 
ATOM     30  C   UNL     1      -3.791  13.659  22.013  0.00  0.00    +0.000 A 
ATOM     31  C   UNL     1      -5.122  13.277  22.229  0.00  0.00    +0.000 A 
BRANCH  26  33
ATOM     32  C   UNL     1      -7.631  12.214  22.586  0.00  0.00    +0.000 C 
ATOM     33  O   UNL     1      -6.785  12.302  23.728  0.00  0.00    +0.000 OA
ENDBRANCH  26  33
ENDBRANCH   1  29
TORSDOF 6
ENDMDL
MODEL 3
REMARK VINA RESULT:      -6.5      0.781      1.193
REMARK  Name = 
REMARK  11 active torsions:
REMARK  status: ('A' for Active; 'I' for Inactive)
REMARK    1  A    between atoms: C_1  and  O_2
REMARK    2  A    between atoms: O_2  and  C_3
REMARK    3  A    between atoms: C_6  and  C_7
REMARK    4  A    between atoms: C_8  and  C_9
REMARK    5  A    between atoms: C_11  and  O_12
REMARK    6  A    between atoms: O_12  and  C_13
REMARK    7  A    between atoms: C_16  and  O_17
REMARK    8  A    between atoms: O_17  and  C_18
REMARK    9  A    between atoms: C_24  and  N_25
REMARK   10  A    between atoms: C_26  and  C_27
REMARK   11  A    between atoms: C_29  and  C_30
REMARK                            x       y       z     vdW  Elec       q    Type
REMARK                         _______ _______ _______ _____ _____    ______ ____
ROOT
ATOM      1  C   UNL     1      -3.341  14.147  21.827  0.00  0.00    +0.000 A 
ATOM      2  C   UNL     1      -4.723  14.365  21.451  0.00  0.00    +0.000 A 
ATOM      3  N   UNL     1      -5.200  15.468  22.039  0.00  0.00    +0.000 NA
ATOM      4  O   UNL     1      -4.241  15.893  22.906  0.00  0.00    +0.000 OA
ATOM      5  C   UNL     1      -3.137  15.107  22.820  0.00  0.00    +0.000 A 
ENDROOT
BRANCH   2   6
ATOM      6  C   UNL     1      -5.667  13.483  20.737  0.00  0.00    +0.000 A 
ATOM      7  C   UNL     1      -5.719  13.599  19.321  0.00  0.00    +0.000 A 
ATOM      8  C   UNL     1      -6.361  12.664  18.518  0.00  0.00    +0.000 A 
ATOM      9  C   UNL     1      -6.812  11.533  19.151  0.00  0.00    +0.000 A 
ATOM     10  C   UNL     1      -6.817  11.416  20.536  0.00  0.00    +0.000 A 
ATOM     11  C   UNL     1      -6.327  12.404  21.375  0.00  0.00    +0.000 A 
ATOM     12  O   UNL     1      -7.164  10.141  20.904  0.00  0.00    +0.000 OA
ATOM     13  C   UNL     1      -6.901   9.466  19.669  0.00  0.00    +0.000 C 
ATOM     14  O   UNL     1      -7.118  10.342  18.548  0.00  0.00    +0.000 OA
BRANCH   8  15
ATOM     15  O   UNL     1      -6.327  12.904  17.179  0.00  0.00    +0.000 OA
ATOM     16  C   UNL     1      -7.071  14.040  16.748  0.00  0.00    +0.000 C 
ENDBRANCH   8  15
BRANCH  11  17
ATOM     17  O   UNL     1      -6.270  12.320  22.736  0.00  0.00    +0.000 OA
ATOM     18  C   UNL     1      -7.417  12.626  23.519  0.00  0.00    +0.000 C 
ENDBRANCH  11  17
ENDBRANCH   2   6
BRANCH   5  19
ATOM     19  N   UNL     1      -2.124  15.442  23.709  0.00  0.00    +0.000 N 
ATOM     20  C   UNL     1      -0.922  15.943  23.250  0.00  0.00    +0.000 C 
ATOM     21  C   UNL     1      -0.995  16.980  22.147  0.00  0.00    +0.000 C 
ATOM     22  O   UNL     1       0.174  15.619  23.713  0.00  0.00    +0.000 OA
ATOM     23  C   UNL     1      -2.372  15.069  25.036  0.00  0.00    +0.000 C 
ATOM     24  C   UNL     1      -1.489  15.657  26.112  0.00  0.00    +0.000 C 
ATOM     25  O   UNL     1      -3.242  14.261  25.376  0.00  0.00    +0.000 OA
ENDBRANCH   5  19
BRANCH   1  29
ATOM     26  C   UNL     1      -0.812  10.864  20.674  0.00  0.00    +0.000 A 
ATOM     27  C   UNL     1      -1.463  11.631  19.714  0.00  0.00    +0.000 A 
ATOM     28  C   UNL     1      -2.225  12.739  20.097  0.00  0.00    +0.000 A 
ATOM     29  C   UNL     1      -2.431  13.044  21.456  0.00  0.00    +0.000 A 
ATOM     30  C   UNL     1      -1.834  12.216  22.412  0.00  0.00    +0.000 A 
ATOM     31  C   UNL     1      -1.009  11.153  22.021  0.00  0.00    +0.000 A 
BRANCH  26  33
ATOM     32  C   UNL     1       0.870  10.208  19.185  0.00  0.00    +0.000 C 
ATOM     33  O   UNL     1      -0.048   9.831  20.207  0.00  0.00    +0.000 OA
ENDBRANCH  26  33
ENDBRANCH   1  29
TORSDOF 6
ENDMDL
MODEL 4
REMARK VINA RESULT:      -6.5      2.717      6.564
REMARK  Name = 
REMARK  11 active torsions:
REMARK  status: ('A' for Active; 'I' for Inactive)
REMARK    1  A    between atoms: C_1  and  O_2
REMARK    2  A    between atoms: O_2  and  C_3
REMARK    3  A    between atoms: C_6  and  C_7
REMARK    4  A    between atoms: C_8  and  C_9
REMARK    5  A    between atoms: C_11  and  O_12
REMARK    6  A    between atoms: O_12  and  C_13
REMARK    7  A    between atoms: C_16  and  O_17
REMARK    8  A    between atoms: O_17  and  C_18
REMARK    9  A    between atoms: C_24  and  N_25
REMARK   10  A    between atoms: C_26  and  C_27
REMARK   11  A    between atoms: C_29  and  C_30
REMARK                            x       y       z     vdW  Elec       q    Type
REMARK                         _______ _______ _______ _____ _____    ______ ____
ROOT
ATOM      1  C   UNL     1      -0.383  12.210  19.963  0.00  0.00    +0.000 A 
ATOM      2  C   UNL     1      -0.114  13.272  20.909  0.00  0.00    +0.000 A 
ATOM      3  N   UNL     1       1.071  13.084  21.501  0.00  0.00    +0.000 NA
ATOM      4  O   UNL     1       1.516  11.861  21.101  0.00  0.00    +0.000 OA
ATOM      5  C   UNL     1       0.655  11.309  20.208  0.00  0.00    +0.000 A 
ENDROOT
BRANCH   2   6
ATOM      6  C   UNL     1      -0.999  14.335  21.426  0.00  0.00    +0.000 A 
ATOM      7  C   UNL     1      -1.235  15.452  20.578  0.00  0.00    +0.000 A 
ATOM      8  C   UNL     1      -2.237  16.381  20.830  0.00  0.00    +0.000 A 
ATOM      9  C   UNL     1      -3.095  16.080  21.860  0.00  0.00    +0.000 A 
ATOM     10  C   UNL     1      -2.858  15.024  22.732  0.00  0.00    +0.000 A 
ATOM     11  C   UNL     1      -1.773  14.171  22.600  0.00  0.00    +0.000 A 
ATOM     12  O   UNL     1      -3.934  14.842  23.562  0.00  0.00    +0.000 OA
ATOM     13  C   UNL     1      -4.929  15.540  22.804  0.00  0.00    +0.000 C 
ATOM     14  O   UNL     1      -4.341  16.615  22.051  0.00  0.00    +0.000 OA
BRANCH   8  15
ATOM     15  O   UNL     1      -2.349  17.396  19.932  0.00  0.00    +0.000 OA
ATOM     16  C   UNL     1      -1.323  17.449  18.946  0.00  0.00    +0.000 C 
ENDBRANCH   8  15
BRANCH  11  17
ATOM     17  O   UNL     1      -1.521  13.096  23.401  0.00  0.00    +0.000 OA
ATOM     18  C   UNL     1      -2.273  11.898  23.247  0.00  0.00    +0.000 C 
ENDBRANCH  11  17
ENDBRANCH   2   6
BRANCH   5  19
ATOM     19  N   UNL     1       1.010  10.035  19.783  0.00  0.00    +0.000 N 
ATOM     20  C   UNL     1       0.898   8.953  20.633  0.00  0.00    +0.000 C 
ATOM     21  C   UNL     1      -0.361   8.876  21.472  0.00  0.00    +0.000 C 
ATOM     22  O   UNL     1       1.738   8.053  20.706  0.00  0.00    +0.000 OA
ATOM     23  C   UNL     1       1.631   9.996  18.528  0.00  0.00    +0.000 C 
ATOM     24  C   UNL     1       1.771   8.653  17.850  0.00  0.00    +0.000 C 
ATOM     25  O   UNL     1       2.104  10.986  17.960  0.00  0.00    +0.000 OA
ENDBRANCH   5  19
BRANCH   1  29
ATOM     26  C   UNL     1      -3.902  11.449  17.608  0.00  0.00    +0.000 A 
ATOM     27  C   UNL     1      -4.007  11.902  18.918  0.00  0.00    +0.000 A 
ATOM     28  C   UNL     1      -2.857  12.215  19.650  0.00  0.00    +0.000 A 
ATOM     29  C   UNL     1      -1.575  11.985  19.118  0.00  0.00    +0.000 A 
ATOM     30  C   UNL     1      -1.484  11.454  17.827  0.00  0.00    +0.000 A 
ATOM     31  C   UNL     1      -2.639  11.215  17.072  0.00  0.00    +0.000 A 
BRANCH  26  33
ATOM     32  C   UNL     1      -6.191  11.918  17.496  0.00  0.00    +0.000 C 
ATOM     33  O   UNL     1      -5.078  11.216  16.951  0.00  0.00    +0.000 OA
ENDBRANCH  26  33
ENDBRANCH   1  29
TORSDOF 6
ENDMDL
MODEL 5
REMARK VINA RESULT:      -6.4      2.509      6.605
REMARK  Name = 
REMARK  11 active torsions:
REMARK  status: ('A' for Active; 'I' for Inactive)
REMARK    1  A    between atoms: C_1  and  O_2
REMARK    2  A    between atoms: O_2  and  C_3
REMARK    3  A    between atoms: C_6  and  C_7
REMARK    4  A    between atoms: C_8  and  C_9
REMARK    5  A    between atoms: C_11  and  O_12
REMARK    6  A    between atoms: O_12  and  C_13
REMARK    7  A    between atoms: C_16  and  O_17
REMARK    8  A    between atoms: O_17  and  C_18
REMARK    9  A    between atoms: C_24  and  N_25
REMARK   10  A    between atoms: C_26  and  C_27
REMARK   11  A    between atoms: C_29  and  C_30
REMARK                            x       y       z     vdW  Elec       q    Type
REMARK                         _______ _______ _______ _____ _____    ______ ____
ROOT
ATOM      1  C   UNL     1      -0.983  11.633  20.170  0.00  0.00    +0.000 A 
ATOM      2  C   UNL     1      -1.126  12.539  21.291  0.00  0.00    +0.000 A 
ATOM      3  N   UNL     1      -0.073  12.440  22.111  0.00  0.00    +0.000 NA
ATOM      4  O   UNL     1       0.675  11.398  21.659  0.00  0.00    +0.000 OA
ATOM      5  C   UNL     1       0.140  10.882  20.522  0.00  0.00    +0.000 A 
ENDROOT
BRANCH   2   6
ATOM      6  C   UNL     1      -2.290  13.335  21.730  0.00  0.00    +0.000 A 
ATOM      7  C   UNL     1      -3.372  12.628  22.323  0.00  0.00    +0.000 A 
ATOM      8  C   UNL     1      -4.397  13.270  23.007  0.00  0.00    +0.000 A 
ATOM      9  C   UNL     1      -4.232  14.617  23.217  0.00  0.00    +0.000 A 
ATOM     10  C   UNL     1      -3.212  15.338  22.609  0.00  0.00    +0.000 A 
ATOM     11  C   UNL     1      -2.262  14.749  21.789  0.00  0.00    +0.000 A 
ATOM     12  O   UNL     1      -3.172  16.616  23.104  0.00  0.00    +0.000 OA
ATOM     13  C   UNL     1      -3.908  16.415  24.316  0.00  0.00    +0.000 C 
ATOM     14  O   UNL     1      -4.883  15.369  24.158  0.00  0.00    +0.000 OA
BRANCH   8  15
ATOM     15  O   UNL     1      -5.365  12.466  23.524  0.00  0.00    +0.000 OA
ATOM     16  C   UNL     1      -6.659  12.630  22.953  0.00  0.00    +0.000 C 
ENDBRANCH   8  15
BRANCH  11  17
ATOM     17  O   UNL     1      -1.217  15.404  21.205  0.00  0.00    +0.000 OA
ATOM     18  C   UNL     1      -1.432  16.201  20.046  0.00  0.00    +0.000 C 
ENDBRANCH  11  17
ENDBRANCH   2   6
BRANCH   5  19
ATOM     19  N   UNL     1       0.818   9.780  20.019  0.00  0.00    +0.000 N 
ATOM     20  C   UNL     1       0.884   8.604  20.740  0.00  0.00    +0.000 C 
ATOM     21  C   UNL     1      -0.393   8.150  21.418  0.00  0.00    +0.000 C 
ATOM     22  O   UNL     1       1.900   7.910  20.822  0.00  0.00    +0.000 OA
ATOM     23  C   UNL     1       1.541  10.031  18.846  0.00  0.00    +0.000 C 
ATOM     24  C   UNL     1       2.049   8.844  18.061  0.00  0.00    +0.000 C 
ATOM     25  O   UNL     1       1.821  11.162  18.435  0.00  0.00    +0.000 OA
ENDBRANCH   5  19
BRANCH   1  29
ATOM     26  C   UNL     1      -3.581  10.956  16.809  0.00  0.00    +0.000 A 
ATOM     27  C   UNL     1      -2.277  10.474  16.808  0.00  0.00    +0.000 A 
ATOM     28  C   UNL     1      -1.465  10.638  17.935  0.00  0.00    +0.000 A 
ATOM     29  C   UNL     1      -1.909  11.375  19.048  0.00  0.00    +0.000 A 
ATOM     30  C   UNL     1      -3.196  11.921  19.003  0.00  0.00    +0.000 A 
ATOM     31  C   UNL     1      -4.032  11.688  17.903  0.00  0.00    +0.000 A 
BRANCH  26  33
ATOM     32  C   UNL     1      -3.573  10.122  14.623  0.00  0.00    +0.000 C 
ATOM     33  O   UNL     1      -4.320  10.707  15.686  0.00  0.00    +0.000 OA
ENDBRANCH  26  33
ENDBRANCH   1  29
TORSDOF 6
ENDMDL
MODEL 6
REMARK VINA RESULT:      -6.4      2.841      6.753
REMARK  Name = 
REMARK  11 active torsions:
REMARK  status: ('A' for Active; 'I' for Inactive)
REMARK    1  A    between atoms: C_1  and  O_2
REMARK    2  A    between atoms: O_2  and  C_3
REMARK    3  A    between atoms: C_6  and  C_7
REMARK    4  A    between atoms: C_8  and  C_9
REMARK    5  A    between atoms: C_11  and  O_12
REMARK    6  A    between atoms: O_12  and  C_13
REMARK    7  A    between atoms: C_16  and  O_17
REMARK    8  A    between atoms: O_17  and  C_18
REMARK    9  A    between atoms: C_24  and  N_25
REMARK   10  A    between atoms: C_26  and  C_27
REMARK   11  A    between atoms: C_29  and  C_30
REMARK                            x       y       z     vdW  Elec       q    Type
REMARK                         _______ _______ _______ _____ _____    ______ ____
ROOT
ATOM      1  C   UNL     1      -0.803  11.480  19.886  0.00  0.00    +0.000 A 
ATOM      2  C   UNL     1      -1.014  12.406  20.980  0.00  0.00    +0.000 A 
ATOM      3  N   UNL     1      -0.021  12.313  21.872  0.00  0.00    +0.000 NA
ATOM      4  O   UNL     1       0.746  11.255  21.490  0.00  0.00    +0.000 OA
ATOM      5  C   UNL     1       0.285  10.726  20.328  0.00  0.00    +0.000 A 
ENDROOT
BRANCH   2   6
ATOM      6  C   UNL     1      -2.197  13.220  21.325  0.00  0.00    +0.000 A 
ATOM      7  C   UNL     1      -3.181  12.614  22.153  0.00  0.00    +0.000 A 
ATOM      8  C   UNL     1      -4.198  13.343  22.758  0.00  0.00    +0.000 A 
ATOM      9  C   UNL     1      -4.115  14.708  22.641  0.00  0.00    +0.000 A 
ATOM     10  C   UNL     1      -3.194  15.321  21.799  0.00  0.00    +0.000 A 
ATOM     11  C   UNL     1      -2.265  14.609  21.057  0.00  0.00    +0.000 A 
ATOM     12  O   UNL     1      -3.211  16.680  21.985  0.00  0.00    +0.000 OA
ATOM     13  C   UNL     1      -3.842  16.728  23.270  0.00  0.00    +0.000 C 
ATOM     14  O   UNL     1      -4.749  15.623  23.438  0.00  0.00    +0.000 OA
BRANCH   8  15
ATOM     15  O   UNL     1      -5.067  12.631  23.526  0.00  0.00    +0.000 OA
ATOM     16  C   UNL     1      -4.606  12.327  24.839  0.00  0.00    +0.000 C 
ENDBRANCH   8  15
BRANCH  11  17
ATOM     17  O   UNL     1      -1.314  15.164  20.251  0.00  0.00    +0.000 OA
ATOM     18  C   UNL     1      -0.209  15.854  20.823  0.00  0.00    +0.000 C 
ENDBRANCH  11  17
ENDBRANCH   2   6
BRANCH   5  19
ATOM     19  N   UNL     1       0.985   9.608  19.891  0.00  0.00    +0.000 N 
ATOM     20  C   UNL     1       1.046   8.468  20.667  0.00  0.00    +0.000 C 
ATOM     21  C   UNL     1      -0.242   8.032  21.335  0.00  0.00    +0.000 C 
ATOM     22  O   UNL     1       2.066   7.789  20.804  0.00  0.00    +0.000 OA
ATOM     23  C   UNL     1       1.733   9.814  18.725  0.00  0.00    +0.000 C 
ATOM     24  C   UNL     1       2.271   8.598  18.006  0.00  0.00    +0.000 C 
ATOM     25  O   UNL     1       2.012  10.928  18.269  0.00  0.00    +0.000 OA
ENDBRANCH   5  19
BRANCH   1  29
ATOM     26  C   UNL     1      -3.390  10.647  16.553  0.00  0.00    +0.000 A 
ATOM     27  C   UNL     1      -3.761  11.565  17.528  0.00  0.00    +0.000 A 
ATOM     28  C   UNL     1      -2.881  11.881  18.568  0.00  0.00    +0.000 A 
ATOM     29  C   UNL     1      -1.652  11.211  18.708  0.00  0.00    +0.000 A 
ATOM     30  C   UNL     1      -1.327  10.232  17.763  0.00  0.00    +0.000 A 
ATOM     31  C   UNL     1      -2.179   9.975  16.681  0.00  0.00    +0.000 A 
BRANCH  26  33
ATOM     32  C   UNL     1      -3.690  10.107  14.296  0.00  0.00    +0.000 C 
ATOM     33  O   UNL     1      -4.290  10.436  15.545  0.00  0.00    +0.000 OA
ENDBRANCH  26  33
ENDBRANCH   1  29
TORSDOF 6
ENDMDL
MODEL 7
REMARK VINA RESULT:      -6.4      0.768      1.548
REMARK  Name = 
REMARK  11 active torsions:
REMARK  status: ('A' for Active; 'I' for Inactive)
REMARK    1  A    between atoms: C_1  and  O_2
REMARK    2  A    between atoms: O_2  and  C_3
REMARK    3  A    between atoms: C_6  and  C_7
REMARK    4  A    between atoms: C_8  and  C_9
REMARK    5  A    between atoms: C_11  and  O_12
REMARK    6  A    between atoms: O_12  and  C_13
REMARK    7  A    between atoms: C_16  and  O_17
REMARK    8  A    between atoms: O_17  and  C_18
REMARK    9  A    between atoms: C_24  and  N_25
REMARK   10  A    between atoms: C_26  and  C_27
REMARK   11  A    between atoms: C_29  and  C_30
REMARK                            x       y       z     vdW  Elec       q    Type
REMARK                         _______ _______ _______ _____ _____    ______ ____
ROOT
ATOM      1  C   UNL     1      -3.526  14.008  21.684  0.00  0.00    +0.000 A 
ATOM      2  C   UNL     1      -4.879  14.157  21.193  0.00  0.00    +0.000 A 
ATOM      3  N   UNL     1      -5.399  15.322  21.595  0.00  0.00    +0.000 NA
ATOM      4  O   UNL     1      -4.502  15.870  22.459  0.00  0.00    +0.000 OA
ATOM      5  C   UNL     1      -3.392  15.094  22.552  0.00  0.00    +0.000 A 
ENDROOT
BRANCH   2   6
ATOM      6  C   UNL     1      -5.770  13.176  20.542  0.00  0.00    +0.000 A 
ATOM      7  C   UNL     1      -5.647  13.022  19.133  0.00  0.00    +0.000 A 
ATOM      8  C   UNL     1      -6.230  11.966  18.444  0.00  0.00    +0.000 A 
ATOM      9  C   UNL     1      -6.804  10.985  19.215  0.00  0.00    +0.000 A 
ATOM     10  C   UNL     1      -6.981  11.134  20.585  0.00  0.00    +0.000 A 
ATOM     11  C   UNL     1      -6.550  12.253  21.281  0.00  0.00    +0.000 A 
ATOM     12  O   UNL     1      -7.426   9.961  21.137  0.00  0.00    +0.000 OA
ATOM     13  C   UNL     1      -7.048   9.057  20.092  0.00  0.00    +0.000 C 
ATOM     14  O   UNL     1      -7.089   9.708  18.810  0.00  0.00    +0.000 OA
BRANCH   8  15
ATOM     15  O   UNL     1      -6.025  11.946  17.099  0.00  0.00    +0.000 OA
ATOM     16  C   UNL     1      -4.717  11.556  16.691  0.00  0.00    +0.000 C 
ENDBRANCH   8  15
BRANCH  11  17
ATOM     17  O   UNL     1      -6.660  12.428  22.629  0.00  0.00    +0.000 OA
ATOM     18  C   UNL     1      -7.916  12.767  23.205  0.00  0.00    +0.000 C 
ENDBRANCH  11  17
ENDBRANCH   2   6
BRANCH   5  19
ATOM     19  N   UNL     1      -2.443  15.557  23.453  0.00  0.00    +0.000 N 
ATOM     20  C   UNL     1      -2.695  15.546  24.810  0.00  0.00    +0.000 C 
ATOM     21  C   UNL     1      -3.360  14.303  25.367  0.00  0.00    +0.000 C 
ATOM     22  O   UNL     1      -2.377  16.462  25.571  0.00  0.00    +0.000 OA
ATOM     23  C   UNL     1      -1.333  16.172  22.859  0.00  0.00    +0.000 C 
ATOM     24  C   UNL     1      -0.119  16.426  23.722  0.00  0.00    +0.000 C 
ATOM     25  O   UNL     1      -1.300  16.554  21.684  0.00  0.00    +0.000 OA
ENDBRANCH   5  19
BRANCH   1  29
ATOM     26  C   UNL     1      -0.692  10.794  21.306  0.00  0.00    +0.000 A 
ATOM     27  C   UNL     1      -1.143  11.200  22.556  0.00  0.00    +0.000 A 
ATOM     28  C   UNL     1      -2.118  12.197  22.663  0.00  0.00    +0.000 A 
ATOM     29  C   UNL     1      -2.588  12.877  21.525  0.00  0.00    +0.000 A 
ATOM     30  C   UNL     1      -2.067  12.511  20.279  0.00  0.00    +0.000 A 
ATOM     31  C   UNL     1      -1.147  11.460  20.172  0.00  0.00    +0.000 A 
BRANCH  26  33
ATOM     32  C   UNL     1       0.824   9.560  20.019  0.00  0.00    +0.000 C 
ATOM     33  O   UNL     1       0.224   9.779  21.293  0.00  0.00    +0.000 OA
ENDBRANCH  26  33
ENDBRANCH   1  29
TORSDOF 6
ENDMDL
MODEL 8
REMARK VINA RESULT:      -6.3      0.722      1.102
REMARK  Name = 
REMARK  11 active torsions:
REMARK  status: ('A' for Active; 'I' for Inactive)
REMARK    1  A    between atoms: C_1  and  O_2
REMARK    2  A    between atoms: O_2  and  C_3
REMARK    3  A    between atoms: C_6  and  C_7
REMARK    4  A    between atoms: C_8  and  C_9
REMARK    5  A    between atoms: C_11  and  O_12
REMARK    6  A    between atoms: O_12  and  C_13
REMARK    7  A    between atoms: C_16  and  O_17
REMARK    8  A    between atoms: O_17  and  C_18
REMARK    9  A    between atoms: C_24  and  N_25
REMARK   10  A    between atoms: C_26  and  C_27
REMARK   11  A    between atoms: C_29  and  C_30
REMARK                            x       y       z     vdW  Elec       q    Type
REMARK                         _______ _______ _______ _____ _____    ______ ____
ROOT
ATOM      1  C   UNL     1      -3.091  13.914  21.917  0.00  0.00    +0.000 A 
ATOM      2  C   UNL     1      -4.393  14.139  21.326  0.00  0.00    +0.000 A 
ATOM      3  N   UNL     1      -4.843  15.361  21.634  0.00  0.00    +0.000 NA
ATOM      4  O   UNL     1      -3.963  15.885  22.530  0.00  0.00    +0.000 OA
ATOM      5  C   UNL     1      -2.927  15.032  22.737  0.00  0.00    +0.000 A 
ENDROOT
BRANCH   2   6
ATOM      6  C   UNL     1      -5.316  13.194  20.665  0.00  0.00    +0.000 A 
ATOM      7  C   UNL     1      -4.889  12.625  19.434  0.00  0.00    +0.000 A 
ATOM      8  C   UNL     1      -5.534  11.542  18.848  0.00  0.00    +0.000 A 
ATOM      9  C   UNL     1      -6.516  10.946  19.600  0.00  0.00    +0.000 A 
ATOM     10  C   UNL     1      -6.985  11.510  20.781  0.00  0.00    +0.000 A 
ATOM     11  C   UNL     1      -6.467  12.681  21.311  0.00  0.00    +0.000 A 
ATOM     12  O   UNL     1      -7.842  10.646  21.412  0.00  0.00    +0.000 OA
ATOM     13  C   UNL     1      -7.462   9.428  20.761  0.00  0.00    +0.000 C 
ATOM     14  O   UNL     1      -7.011   9.682  19.419  0.00  0.00    +0.000 OA
BRANCH   8  15
ATOM     15  O   UNL     1      -5.012  11.102  17.672  0.00  0.00    +0.000 OA
ATOM     16  C   UNL     1      -3.624  11.365  17.488  0.00  0.00    +0.000 C 
ENDBRANCH   8  15
BRANCH  11  17
ATOM     17  O   UNL     1      -6.861  13.251  22.487  0.00  0.00    +0.000 OA
ATOM     18  C   UNL     1      -6.470  12.673  23.726  0.00  0.00    +0.000 C 
ENDBRANCH  11  17
ENDBRANCH   2   6
BRANCH   5  19
ATOM     19  N   UNL     1      -2.004  15.470  23.677  0.00  0.00    +0.000 N 
ATOM     20  C   UNL     1      -0.775  15.959  23.282  0.00  0.00    +0.000 C 
ATOM     21  C   UNL     1      -0.766  16.892  22.088  0.00  0.00    +0.000 C 
ATOM     22  O   UNL     1       0.281  15.705  23.867  0.00  0.00    +0.000 OA
ATOM     23  C   UNL     1      -2.363  15.209  25.006  0.00  0.00    +0.000 C 
ATOM     24  C   UNL     1      -1.590  15.912  26.098  0.00  0.00    +0.000 C 
ATOM     25  O   UNL     1      -3.246  14.413  25.339  0.00  0.00    +0.000 OA
ENDBRANCH   5  19
BRANCH   1  29
ATOM     26  C   UNL     1      -0.711  10.337  21.702  0.00  0.00    +0.000 A 
ATOM     27  C   UNL     1      -0.958  11.095  20.564  0.00  0.00    +0.000 A 
ATOM     28  C   UNL     1      -1.672  12.294  20.658  0.00  0.00    +0.000 A 
ATOM     29  C   UNL     1      -2.239  12.707  21.878  0.00  0.00    +0.000 A 
ATOM     30  C   UNL     1      -2.048  11.893  23.000  0.00  0.00    +0.000 A 
ATOM     31  C   UNL     1      -1.268  10.733  22.914  0.00  0.00    +0.000 A 
BRANCH  26  33
ATOM     32  C   UNL     1       1.278   9.222  22.228  0.00  0.00    +0.000 C 
ATOM     33  O   UNL     1       0.038   9.207  21.526  0.00  0.00    +0.000 OA
ENDBRANCH  26  33
ENDBRANCH   1  29
TORSDOF 6
ENDMDL
MODEL 9
REMARK VINA RESULT:      -6.2      2.506      6.519
REMARK  Name = 
REMARK  11 active torsions:
REMARK  status: ('A' for Active; 'I' for Inactive)
REMARK    1  A    between atoms: C_1  and  O_2
REMARK    2  A    between atoms: O_2  and  C_3
REMARK    3  A    between atoms: C_6  and  C_7
REMARK    4  A    between atoms: C_8  and  C_9
REMARK    5  A    between atoms: C_11  and  O_12
REMARK    6  A    between atoms: O_12  and  C_13
REMARK    7  A    between atoms: C_16  and  O_17
REMARK    8  A    between atoms: O_17  and  C_18
REMARK    9  A    between atoms: C_24  and  N_25
REMARK   10  A    between atoms: C_26  and  C_27
REMARK   11  A    between atoms: C_29  and  C_30
REMARK                            x       y       z     vdW  Elec       q    Type
REMARK                         _______ _______ _______ _____ _____    ______ ____
ROOT
ATOM      1  C   UNL     1      -0.838  11.597  20.036  0.00  0.00    +0.000 A 
ATOM      2  C   UNL     1      -0.967  12.512  21.150  0.00  0.00    +0.000 A 
ATOM      3  N   UNL     1       0.111  12.445  21.940  0.00  0.00    +0.000 NA
ATOM      4  O   UNL     1       0.867  11.412  21.478  0.00  0.00    +0.000 OA
ATOM      5  C   UNL     1       0.309  10.873  20.364  0.00  0.00    +0.000 A 
ENDROOT
BRANCH   2   6
ATOM      6  C   UNL     1      -2.134  13.290  21.615  0.00  0.00    +0.000 A 
ATOM      7  C   UNL     1      -3.221  12.559  22.168  0.00  0.00    +0.000 A 
ATOM      8  C   UNL     1      -4.251  13.172  22.871  0.00  0.00    +0.000 A 
ATOM      9  C   UNL     1      -4.087  14.508  23.141  0.00  0.00    +0.000 A 
ATOM     10  C   UNL     1      -3.061  15.254  22.573  0.00  0.00    +0.000 A 
ATOM     11  C   UNL     1      -2.105  14.700  21.735  0.00  0.00    +0.000 A 
ATOM     12  O   UNL     1      -3.024  16.509  23.123  0.00  0.00    +0.000 OA
ATOM     13  C   UNL     1      -3.770  16.256  24.320  0.00  0.00    +0.000 C 
ATOM     14  O   UNL     1      -4.745  15.219  24.109  0.00  0.00    +0.000 OA
BRANCH   8  15
ATOM     15  O   UNL     1      -5.223  12.347  23.345  0.00  0.00    +0.000 OA
ATOM     16  C   UNL     1      -6.530  12.592  22.833  0.00  0.00    +0.000 C 
ENDBRANCH   8  15
BRANCH  11  17
ATOM     17  O   UNL     1      -1.055  15.379  21.188  0.00  0.00    +0.000 OA
ATOM     18  C   UNL     1      -1.205  16.036  19.936  0.00  0.00    +0.000 C 
ENDBRANCH  11  17
ENDBRANCH   2   6
BRANCH   5  19
ATOM     19  N   UNL     1       0.995   9.778  19.853  0.00  0.00    +0.000 N 
ATOM     20  C   UNL     1       1.556   9.824  18.593  0.00  0.00    +0.000 C 
ATOM     21  C   UNL     1       2.284  11.099  18.219  0.00  0.00    +0.000 C 
ATOM     22  O   UNL     1       1.522   8.883  17.796  0.00  0.00    +0.000 OA
ATOM     23  C   UNL     1       0.906   8.622  20.639  0.00  0.00    +0.000 C 
ATOM     24  C   UNL     1       1.856   7.487  20.337  0.00  0.00    +0.000 C 
ATOM     25  O   UNL     1       0.074   8.459  21.538  0.00  0.00    +0.000 OA
ENDBRANCH   5  19
BRANCH   1  29
ATOM     26  C   UNL     1      -3.511  10.810  16.759  0.00  0.00    +0.000 A 
ATOM     27  C   UNL     1      -2.243  10.242  16.794  0.00  0.00    +0.000 A 
ATOM     28  C   UNL     1      -1.410  10.447  17.898  0.00  0.00    +0.000 A 
ATOM     29  C   UNL     1      -1.792  11.306  18.945  0.00  0.00    +0.000 A 
ATOM     30  C   UNL     1      -3.039  11.933  18.859  0.00  0.00    +0.000 A 
ATOM     31  C   UNL     1      -3.900  11.663  17.787  0.00  0.00    +0.000 A 
BRANCH  26  33
ATOM     32  C   UNL     1      -3.520  10.180  14.505  0.00  0.00    +0.000 C 
ATOM     33  O   UNL     1      -4.277  10.516  15.665  0.00  0.00    +0.000 OA
ENDBRANCH  26  33
ENDBRANCH   1  29
TORSDOF 6
ENDMDL
