MODEL 1
REMARK VINA RESULT:      -7.7      0.000      0.000
REMARK  Name = 
REMARK  3 active torsions:
REMARK  status: ('A' for Active; 'I' for Inactive)
REMARK    1  A    between atoms: N_1  and  C_2
REMARK    2  A    between atoms: C_5  and  N_6
REMARK    3  A    between atoms: C_11  and  C_12
REMARK                            x       y       z     vdW  Elec       q    Type
REMARK                         _______ _______ _______ _____ _____    ______ ____
ROOT
ATOM      1  N   UNL     1       4.398   3.408  18.060  0.00  0.00    +0.000 N 
ATOM      2  C   UNL     1       3.517   4.106  18.938  0.00  0.00    +0.000 A 
ATOM      3  N   UNL     1       3.115   3.484  20.081  0.00  0.00    +0.000 NA
ATOM      4  C   UNL     1       2.384   4.138  21.016  0.00  0.00    +0.000 A 
ATOM      5  C   UNL     1       2.012   5.465  20.812  0.00  0.00    +0.000 A 
ATOM      6  C   UNL     1       2.395   6.093  19.619  0.00  0.00    +0.000 A 
ATOM      7  N   UNL     1       3.146   5.398  18.725  0.00  0.00    +0.000 NA
ATOM      8  H   UNL     1       4.550   2.413  18.285  0.00  0.00    +0.000 HD
ENDROOT
BRANCH   1  12
ATOM      9  C   UNL     1       7.017   4.991  15.095  0.00  0.00    +0.000 A 
ATOM     10  C   UNL     1       5.735   4.539  14.766  0.00  0.00    +0.000 A 
ATOM     11  C   UNL     1       4.883   4.053  15.762  0.00  0.00    +0.000 A 
ATOM     12  C   UNL     1       5.297   3.997  17.107  0.00  0.00    +0.000 A 
ATOM     13  C   UNL     1       6.587   4.471  17.423  0.00  0.00    +0.000 A 
ATOM     14  C   UNL     1       7.434   4.954  16.429  0.00  0.00    +0.000 A 
BRANCH   9  15
ATOM     15  N   UNL     1       7.887   5.481  14.091  0.00  0.00    +0.000 N 
ATOM     16  H   UNL     1       8.816   5.852  14.336  0.00  0.00    +0.000 HD
ATOM     17  H   UNL     1       7.600   5.480  13.102  0.00  0.00    +0.000 HD
ENDBRANCH   9  15
ENDBRANCH   1  12
BRANCH   6  18
ATOM     18  C   UNL     1       2.005   7.499  19.333  0.00  0.00    +0.000 A 
ATOM     19  C   UNL     1       2.233   8.080  18.073  0.00  0.00    +0.000 A 
ATOM     20  C   UNL     1       1.846   9.404  17.845  0.00  0.00    +0.000 A 
ATOM     21  C   UNL     1       1.246  10.139  18.866  0.00  0.00    +0.000 A 
ATOM     22  C   UNL     1       1.034   9.532  20.107  0.00  0.00    +0.000 A 
ATOM     23  N   UNL     1       1.410   8.244  20.308  0.00  0.00    +0.000 NA
ENDBRANCH   6  18
TORSDOF 3
ENDMDL
MODEL 2
REMARK VINA RESULT:      -7.5      0.227      1.097
REMARK  Name = 
REMARK  3 active torsions:
REMARK  status: ('A' for Active; 'I' for Inactive)
REMARK    1  A    between atoms: N_1  and  C_2
REMARK    2  A    between atoms: C_5  and  N_6
REMARK    3  A    between atoms: C_11  and  C_12
REMARK                            x       y       z     vdW  Elec       q    Type
REMARK                         _______ _______ _______ _____ _____    ______ ____
ROOT
ATOM      1  N   UNL     1       4.242   3.226  18.168  0.00  0.00    +0.000 N 
ATOM      2  C   UNL     1       3.399   3.992  19.027  0.00  0.00    +0.000 A 
ATOM      3  N   UNL     1       2.988   3.432  20.199  0.00  0.00    +0.000 NA
ATOM      4  C   UNL     1       2.295   4.149  21.115  0.00  0.00    +0.000 A 
ATOM      5  C   UNL     1       1.970   5.480  20.862  0.00  0.00    +0.000 A 
ATOM      6  C   UNL     1       2.361   6.046  19.640  0.00  0.00    +0.000 A 
ATOM      7  N   UNL     1       3.075   5.288  18.767  0.00  0.00    +0.000 NA
ATOM      8  H   UNL     1       4.359   2.235  18.431  0.00  0.00    +0.000 HD
ENDROOT
BRANCH   1  12
ATOM      9  C   UNL     1       6.963   4.933  15.368  0.00  0.00    +0.000 A 
ATOM     10  C   UNL     1       7.229   4.945  16.740  0.00  0.00    +0.000 A 
ATOM     11  C   UNL     1       6.336   4.351  17.636  0.00  0.00    +0.000 A 
ATOM     12  C   UNL     1       5.151   3.741  17.182  0.00  0.00    +0.000 A 
ATOM     13  C   UNL     1       4.904   3.725  15.793  0.00  0.00    +0.000 A 
ATOM     14  C   UNL     1       5.796   4.318  14.903  0.00  0.00    +0.000 A 
BRANCH   9  15
ATOM     15  N   UNL     1       7.861   5.536  14.455  0.00  0.00    +0.000 N 
ATOM     16  H   UNL     1       7.847   6.554  14.299  0.00  0.00    +0.000 HD
ATOM     17  H   UNL     1       8.536   4.964  13.928  0.00  0.00    +0.000 HD
ENDBRANCH   9  15
ENDBRANCH   1  12
BRANCH   6  18
ATOM     18  C   UNL     1       2.022   7.453  19.302  0.00  0.00    +0.000 A 
ATOM     19  C   UNL     1       2.285   7.983  18.026  0.00  0.00    +0.000 A 
ATOM     20  C   UNL     1       1.945   9.311  17.749  0.00  0.00    +0.000 A 
ATOM     21  C   UNL     1       1.355  10.099  18.737  0.00  0.00    +0.000 A 
ATOM     22  C   UNL     1       1.109   9.541  19.994  0.00  0.00    +0.000 A 
ATOM     23  N   UNL     1       1.440   8.249  20.243  0.00  0.00    +0.000 NA
ENDBRANCH   6  18
TORSDOF 3
ENDMDL
MODEL 3
REMARK VINA RESULT:      -7.5      0.625      1.089
REMARK  Name = 
REMARK  3 active torsions:
REMARK  status: ('A' for Active; 'I' for Inactive)
REMARK    1  A    between atoms: N_1  and  C_2
REMARK    2  A    between atoms: C_5  and  N_6
REMARK    3  A    between atoms: C_11  and  C_12
REMARK                            x       y       z     vdW  Elec       q    Type
REMARK                         _______ _______ _______ _____ _____    ______ ____
ROOT
ATOM      1  N   UNL     1       4.459   3.262  17.994  0.00  0.00    +0.000 N 
ATOM      2  C   UNL     1       3.577   3.919  18.902  0.00  0.00    +0.000 A 
ATOM      3  N   UNL     1       3.196   3.257  20.030  0.00  0.00    +0.000 NA
ATOM      4  C   UNL     1       2.467   3.871  20.992  0.00  0.00    +0.000 A 
ATOM      5  C   UNL     1       2.073   5.197  20.833  0.00  0.00    +0.000 A 
ATOM      6  C   UNL     1       2.434   5.868  19.656  0.00  0.00    +0.000 A 
ATOM      7  N   UNL     1       3.185   5.212  18.733  0.00  0.00    +0.000 NA
ATOM      8  H   UNL     1       4.628   2.262  18.187  0.00  0.00    +0.000 HD
ENDROOT
BRANCH   1  12
ATOM      9  C   UNL     1       7.024   4.973  15.053  0.00  0.00    +0.000 A 
ATOM     10  C   UNL     1       5.748   4.506  14.722  0.00  0.00    +0.000 A 
ATOM     11  C   UNL     1       4.913   3.978  15.711  0.00  0.00    +0.000 A 
ATOM     12  C   UNL     1       5.339   3.892  17.050  0.00  0.00    +0.000 A 
ATOM     13  C   UNL     1       6.623   4.381  17.370  0.00  0.00    +0.000 A 
ATOM     14  C   UNL     1       7.453   4.907  16.382  0.00  0.00    +0.000 A 
BRANCH   9  15
ATOM     15  N   UNL     1       7.876   5.506  14.057  0.00  0.00    +0.000 N 
ATOM     16  H   UNL     1       8.892   5.574  14.215  0.00  0.00    +0.000 HD
ATOM     17  H   UNL     1       7.492   5.839  13.160  0.00  0.00    +0.000 HD
ENDBRANCH   9  15
ENDBRANCH   1  12
BRANCH   6  18
ATOM     18  C   UNL     1       2.021   7.275  19.417  0.00  0.00    +0.000 A 
ATOM     19  C   UNL     1       1.453   8.056  20.439  0.00  0.00    +0.000 A 
ATOM     20  C   UNL     1       1.084   9.379  20.171  0.00  0.00    +0.000 A 
ATOM     21  C   UNL     1       1.274   9.910  18.896  0.00  0.00    +0.000 A 
ATOM     22  C   UNL     1       1.840   9.106  17.903  0.00  0.00    +0.000 A 
ATOM     23  N   UNL     1       2.198   7.828  18.182  0.00  0.00    +0.000 NA
ENDBRANCH   6  18
TORSDOF 3
ENDMDL
MODEL 4
REMARK VINA RESULT:      -7.4      1.400      6.195
REMARK  Name = 
REMARK  3 active torsions:
REMARK  status: ('A' for Active; 'I' for Inactive)
REMARK    1  A    between atoms: N_1  and  C_2
REMARK    2  A    between atoms: C_5  and  N_6
REMARK    3  A    between atoms: C_11  and  C_12
REMARK                            x       y       z     vdW  Elec       q    Type
REMARK                         _______ _______ _______ _____ _____    ______ ____
ROOT
ATOM      1  N   UNL     1       2.032   6.321  20.863  0.00  0.00    +0.000 N 
ATOM      2  C   UNL     1       2.740   5.173  20.396  0.00  0.00    +0.000 A 
ATOM      3  N   UNL     1       2.448   3.963  20.949  0.00  0.00    +0.000 NA
ATOM      4  C   UNL     1       2.990   2.821  20.463  0.00  0.00    +0.000 A 
ATOM      5  C   UNL     1       3.879   2.867  19.392  0.00  0.00    +0.000 A 
ATOM      6  C   UNL     1       4.208   4.116  18.847  0.00  0.00    +0.000 A 
ATOM      7  N   UNL     1       3.618   5.229  19.358  0.00  0.00    +0.000 NA
ATOM      8  H   UNL     1       1.449   6.171  21.700  0.00  0.00    +0.000 HD
ENDROOT
BRANCH   1  12
ATOM      9  C   UNL     1       1.196   9.953  18.799  0.00  0.00    +0.000 A 
ATOM     10  C   UNL     1       0.812   9.769  20.130  0.00  0.00    +0.000 A 
ATOM     11  C   UNL     1       1.125   8.580  20.795  0.00  0.00    +0.000 A 
ATOM     12  C   UNL     1       1.819   7.544  20.141  0.00  0.00    +0.000 A 
ATOM     13  C   UNL     1       2.212   7.752  18.802  0.00  0.00    +0.000 A 
ATOM     14  C   UNL     1       1.897   8.938  18.142  0.00  0.00    +0.000 A 
BRANCH   9  15
ATOM     15  N   UNL     1       0.878  11.153  18.117  0.00  0.00    +0.000 N 
ATOM     16  H   UNL     1       1.621  11.737  17.708  0.00  0.00    +0.000 HD
ATOM     17  H   UNL     1      -0.101  11.461  18.027  0.00  0.00    +0.000 HD
ENDBRANCH   9  15
ENDBRANCH   1  12
BRANCH   6  18
ATOM     18  C   UNL     1       5.170   4.233  17.721  0.00  0.00    +0.000 A 
ATOM     19  C   UNL     1       4.762   4.059  16.387  0.00  0.00    +0.000 A 
ATOM     20  C   UNL     1       5.700   4.183  15.357  0.00  0.00    +0.000 A 
ATOM     21  C   UNL     1       7.030   4.471  15.659  0.00  0.00    +0.000 A 
ATOM     22  C   UNL     1       7.403   4.636  16.995  0.00  0.00    +0.000 A 
ATOM     23  N   UNL     1       6.478   4.519  17.981  0.00  0.00    +0.000 NA
ENDBRANCH   6  18
TORSDOF 3
ENDMDL
MODEL 5
REMARK VINA RESULT:      -7.3      0.664      1.538
REMARK  Name = 
REMARK  3 active torsions:
REMARK  status: ('A' for Active; 'I' for Inactive)
REMARK    1  A    between atoms: N_1  and  C_2
REMARK    2  A    between atoms: C_5  and  N_6
REMARK    3  A    between atoms: C_11  and  C_12
REMARK                            x       y       z     vdW  Elec       q    Type
REMARK                         _______ _______ _______ _____ _____    ______ ____
ROOT
ATOM      1  N   UNL     1       4.258   3.215  18.232  0.00  0.00    +0.000 N 
ATOM      2  C   UNL     1       3.414   3.978  19.093  0.00  0.00    +0.000 A 
ATOM      3  N   UNL     1       3.011   3.418  20.268  0.00  0.00    +0.000 NA
ATOM      4  C   UNL     1       2.317   4.134  21.185  0.00  0.00    +0.000 A 
ATOM      5  C   UNL     1       1.984   5.463  20.930  0.00  0.00    +0.000 A 
ATOM      6  C   UNL     1       2.367   6.027  19.705  0.00  0.00    +0.000 A 
ATOM      7  N   UNL     1       3.081   5.271  18.830  0.00  0.00    +0.000 NA
ATOM      8  H   UNL     1       4.382   2.225  18.497  0.00  0.00    +0.000 HD
ENDROOT
BRANCH   1  12
ATOM      9  C   UNL     1       6.959   4.929  15.418  0.00  0.00    +0.000 A 
ATOM     10  C   UNL     1       7.240   4.929  16.787  0.00  0.00    +0.000 A 
ATOM     11  C   UNL     1       6.352   4.332  17.688  0.00  0.00    +0.000 A 
ATOM     12  C   UNL     1       5.159   3.733  17.241  0.00  0.00    +0.000 A 
ATOM     13  C   UNL     1       4.898   3.729  15.854  0.00  0.00    +0.000 A 
ATOM     14  C   UNL     1       5.784   4.324  14.960  0.00  0.00    +0.000 A 
BRANCH   9  15
ATOM     15  N   UNL     1       7.851   5.534  14.500  0.00  0.00    +0.000 N 
ATOM     16  H   UNL     1       7.678   5.481  13.486  0.00  0.00    +0.000 HD
ATOM     17  H   UNL     1       8.689   6.032  14.833  0.00  0.00    +0.000 HD
ENDBRANCH   9  15
ENDBRANCH   1  12
BRANCH   6  18
ATOM     18  C   UNL     1       2.018   7.431  19.364  0.00  0.00    +0.000 A 
ATOM     19  C   UNL     1       1.398   8.280  20.298  0.00  0.00    +0.000 A 
ATOM     20  C   UNL     1       1.091   9.596  19.937  0.00  0.00    +0.000 A 
ATOM     21  C   UNL     1       1.395  10.054  18.656  0.00  0.00    +0.000 A 
ATOM     22  C   UNL     1       2.010   9.185  17.752  0.00  0.00    +0.000 A 
ATOM     23  N   UNL     1       2.306   7.913  18.121  0.00  0.00    +0.000 NA
ENDBRANCH   6  18
TORSDOF 3
ENDMDL
MODEL 6
REMARK VINA RESULT:      -7.3      1.502      6.077
REMARK  Name = 
REMARK  3 active torsions:
REMARK  status: ('A' for Active; 'I' for Inactive)
REMARK    1  A    between atoms: N_1  and  C_2
REMARK    2  A    between atoms: C_5  and  N_6
REMARK    3  A    between atoms: C_11  and  C_12
REMARK                            x       y       z     vdW  Elec       q    Type
REMARK                         _______ _______ _______ _____ _____    ______ ____
ROOT
ATOM      1  N   UNL     1       1.869   6.283  20.992  0.00  0.00    +0.000 N 
ATOM      2  C   UNL     1       2.621   5.142  20.583  0.00  0.00    +0.000 A 
ATOM      3  N   UNL     1       2.321   3.935  21.138  0.00  0.00    +0.000 NA
ATOM      4  C   UNL     1       2.909   2.796  20.700  0.00  0.00    +0.000 A 
ATOM      5  C   UNL     1       3.854   2.843  19.679  0.00  0.00    +0.000 A 
ATOM      6  C   UNL     1       4.190   4.090  19.133  0.00  0.00    +0.000 A 
ATOM      7  N   UNL     1       3.554   5.199  19.594  0.00  0.00    +0.000 NA
ATOM      8  H   UNL     1       1.243   6.134  21.799  0.00  0.00    +0.000 HD
ENDROOT
BRANCH   1  12
ATOM      9  C   UNL     1       1.498   9.854  18.698  0.00  0.00    +0.000 A 
ATOM     10  C   UNL     1       2.117   8.715  18.174  0.00  0.00    +0.000 A 
ATOM     11  C   UNL     1       2.198   7.545  18.936  0.00  0.00    +0.000 A 
ATOM     12  C   UNL     1       1.674   7.492  20.241  0.00  0.00    +0.000 A 
ATOM     13  C   UNL     1       1.040   8.645  20.749  0.00  0.00    +0.000 A 
ATOM     14  C   UNL     1       0.961   9.809  19.988  0.00  0.00    +0.000 A 
BRANCH   9  15
ATOM     15  N   UNL     1       1.416  11.043  17.935  0.00  0.00    +0.000 N 
ATOM     16  H   UNL     1       1.751  11.068  16.961  0.00  0.00    +0.000 HD
ATOM     17  H   UNL     1       1.024  11.904  18.344  0.00  0.00    +0.000 HD
ENDBRANCH   9  15
ENDBRANCH   1  12
BRANCH   6  18
ATOM     18  C   UNL     1       5.211   4.208  18.059  0.00  0.00    +0.000 A 
ATOM     19  C   UNL     1       4.871   4.045  16.704  0.00  0.00    +0.000 A 
ATOM     20  C   UNL     1       5.863   4.170  15.726  0.00  0.00    +0.000 A 
ATOM     21  C   UNL     1       7.177   4.447  16.098  0.00  0.00    +0.000 A 
ATOM     22  C   UNL     1       7.481   4.603  17.453  0.00  0.00    +0.000 A 
ATOM     23  N   UNL     1       6.505   4.485  18.389  0.00  0.00    +0.000 NA
ENDBRANCH   6  18
TORSDOF 3
ENDMDL
MODEL 7
REMARK VINA RESULT:      -7.2      1.321      6.226
REMARK  Name = 
REMARK  3 active torsions:
REMARK  status: ('A' for Active; 'I' for Inactive)
REMARK    1  A    between atoms: N_1  and  C_2
REMARK    2  A    between atoms: C_5  and  N_6
REMARK    3  A    between atoms: C_11  and  C_12
REMARK                            x       y       z     vdW  Elec       q    Type
REMARK                         _______ _______ _______ _____ _____    ______ ____
ROOT
ATOM      1  N   UNL     1       2.091   6.271  20.795  0.00  0.00    +0.000 N 
ATOM      2  C   UNL     1       2.807   5.138  20.306  0.00  0.00    +0.000 A 
ATOM      3  N   UNL     1       2.528   3.916  20.839  0.00  0.00    +0.000 NA
ATOM      4  C   UNL     1       3.078   2.787  20.331  0.00  0.00    +0.000 A 
ATOM      5  C   UNL     1       3.961   2.861  19.257  0.00  0.00    +0.000 A 
ATOM      6  C   UNL     1       4.276   4.122  18.732  0.00  0.00    +0.000 A 
ATOM      7  N   UNL     1       3.679   5.220  19.265  0.00  0.00    +0.000 NA
ATOM      8  H   UNL     1       1.513   6.101  21.633  0.00  0.00    +0.000 HD
ENDROOT
BRANCH   1  12
ATOM      9  C   UNL     1       1.213   9.933  18.801  0.00  0.00    +0.000 A 
ATOM     10  C   UNL     1       0.853   9.728  20.137  0.00  0.00    +0.000 A 
ATOM     11  C   UNL     1       1.180   8.530  20.778  0.00  0.00    +0.000 A 
ATOM     12  C   UNL     1       1.863   7.505  20.096  0.00  0.00    +0.000 A 
ATOM     13  C   UNL     1       2.231   7.733  18.753  0.00  0.00    +0.000 A 
ATOM     14  C   UNL     1       1.903   8.928  18.117  0.00  0.00    +0.000 A 
BRANCH   9  15
ATOM     15  N   UNL     1       0.882  11.142  18.144  0.00  0.00    +0.000 N 
ATOM     16  H   UNL     1       1.616  11.811  17.873  0.00  0.00    +0.000 HD
ATOM     17  H   UNL     1      -0.100  11.372  17.932  0.00  0.00    +0.000 HD
ENDBRANCH   9  15
ENDBRANCH   1  12
BRANCH   6  18
ATOM     18  C   UNL     1       5.232   4.267  17.603  0.00  0.00    +0.000 A 
ATOM     19  C   UNL     1       6.582   4.594  17.823  0.00  0.00    +0.000 A 
ATOM     20  C   UNL     1       7.448   4.715  16.732  0.00  0.00    +0.000 A 
ATOM     21  C   UNL     1       6.969   4.519  15.438  0.00  0.00    +0.000 A 
ATOM     22  C   UNL     1       5.622   4.196  15.254  0.00  0.00    +0.000 A 
ATOM     23  N   UNL     1       4.797   4.076  16.324  0.00  0.00    +0.000 NA
ENDBRANCH   6  18
TORSDOF 3
ENDMDL
MODEL 8
REMARK VINA RESULT:      -7.0      2.725      6.594
REMARK  Name = 
REMARK  3 active torsions:
REMARK  status: ('A' for Active; 'I' for Inactive)
REMARK    1  A    between atoms: N_1  and  C_2
REMARK    2  A    between atoms: C_5  and  N_6
REMARK    3  A    between atoms: C_11  and  C_12
REMARK                            x       y       z     vdW  Elec       q    Type
REMARK                         _______ _______ _______ _____ _____    ______ ____
ROOT
ATOM      1  N   UNL     1       4.393   5.189  19.819  0.00  0.00    +0.000 N 
ATOM      2  C   UNL     1       5.563   5.394  19.030  0.00  0.00    +0.000 A 
ATOM      3  N   UNL     1       6.702   5.806  19.653  0.00  0.00    +0.000 NA
ATOM      4  C   UNL     1       7.876   5.894  18.984  0.00  0.00    +0.000 A 
ATOM      5  C   UNL     1       7.934   5.580  17.628  0.00  0.00    +0.000 A 
ATOM      6  C   UNL     1       6.755   5.191  16.978  0.00  0.00    +0.000 A 
ATOM      7  N   UNL     1       5.609   5.097  17.702  0.00  0.00    +0.000 NA
ATOM      8  H   UNL     1       4.455   5.517  20.796  0.00  0.00    +0.000 HD
ENDROOT
BRANCH   1  12
ATOM      9  C   UNL     1       1.240   2.502  18.823  0.00  0.00    +0.000 A 
ATOM     10  C   UNL     1       2.289   2.113  19.661  0.00  0.00    +0.000 A 
ATOM     11  C   UNL     1       3.295   3.023  19.999  0.00  0.00    +0.000 A 
ATOM     12  C   UNL     1       3.282   4.338  19.496  0.00  0.00    +0.000 A 
ATOM     13  C   UNL     1       2.209   4.718  18.663  0.00  0.00    +0.000 A 
ATOM     14  C   UNL     1       1.208   3.809  18.329  0.00  0.00    +0.000 A 
BRANCH   9  15
ATOM     15  N   UNL     1       0.220   1.585  18.473  0.00  0.00    +0.000 N 
ATOM     16  H   UNL     1      -0.562   1.398  19.117  0.00  0.00    +0.000 HD
ATOM     17  H   UNL     1       0.248   1.087  17.572  0.00  0.00    +0.000 HD
ENDBRANCH   9  15
ENDBRANCH   1  12
BRANCH   6  18
ATOM     18  C   UNL     1       6.749   4.868  15.527  0.00  0.00    +0.000 A 
ATOM     19  C   UNL     1       5.776   4.019  14.969  0.00  0.00    +0.000 A 
ATOM     20  C   UNL     1       5.805   3.746  13.598  0.00  0.00    +0.000 A 
ATOM     21  C   UNL     1       6.796   4.310  12.797  0.00  0.00    +0.000 A 
ATOM     22  C   UNL     1       7.748   5.149  13.383  0.00  0.00    +0.000 A 
ATOM     23  N   UNL     1       7.702   5.407  14.714  0.00  0.00    +0.000 NA
ENDBRANCH   6  18
TORSDOF 3
ENDMDL
MODEL 9
REMARK VINA RESULT:      -6.9      1.371      6.109
REMARK  Name = 
REMARK  3 active torsions:
REMARK  status: ('A' for Active; 'I' for Inactive)
REMARK    1  A    between atoms: N_1  and  C_2
REMARK    2  A    between atoms: C_5  and  N_6
REMARK    3  A    between atoms: C_11  and  C_12
REMARK                            x       y       z     vdW  Elec       q    Type
REMARK                         _______ _______ _______ _____ _____    ______ ____
ROOT
ATOM      1  N   UNL     1       1.936   6.261  20.928  0.00  0.00    +0.000 N 
ATOM      2  C   UNL     1       2.680   5.126  20.488  0.00  0.00    +0.000 A 
ATOM      3  N   UNL     1       2.397   3.912  21.036  0.00  0.00    +0.000 NA
ATOM      4  C   UNL     1       2.975   2.780  20.571  0.00  0.00    +0.000 A 
ATOM      5  C   UNL     1       3.894   2.841  19.526  0.00  0.00    +0.000 A 
ATOM      6  C   UNL     1       4.214   4.094  18.986  0.00  0.00    +0.000 A 
ATOM      7  N   UNL     1       3.587   5.196  19.475  0.00  0.00    +0.000 NA
ATOM      8  H   UNL     1       1.332   6.102  21.749  0.00  0.00    +0.000 HD
ENDROOT
BRANCH   1  12
ATOM      9  C   UNL     1       1.501   9.859  18.687  0.00  0.00    +0.000 A 
ATOM     10  C   UNL     1       2.131   8.735  18.143  0.00  0.00    +0.000 A 
ATOM     11  C   UNL     1       2.233   7.556  18.888  0.00  0.00    +0.000 A 
ATOM     12  C   UNL     1       1.720   7.477  20.196  0.00  0.00    +0.000 A 
ATOM     13  C   UNL     1       1.074   8.616  20.725  0.00  0.00    +0.000 A 
ATOM     14  C   UNL     1       0.974   9.789  19.980  0.00  0.00    +0.000 A 
BRANCH   9  15
ATOM     15  N   UNL     1       1.397  11.057  17.942  0.00  0.00    +0.000 N 
ATOM     16  H   UNL     1       1.139  11.942  18.401  0.00  0.00    +0.000 HD
ATOM     17  H   UNL     1       1.571  11.060  16.926  0.00  0.00    +0.000 HD
ENDBRANCH   9  15
ENDBRANCH   1  12
BRANCH   6  18
ATOM     18  C   UNL     1       5.206   4.227  17.888  0.00  0.00    +0.000 A 
ATOM     19  C   UNL     1       6.515   4.679  18.133  0.00  0.00    +0.000 A 
ATOM     20  C   UNL     1       7.418   4.784  17.071  0.00  0.00    +0.000 A 
ATOM     21  C   UNL     1       7.016   4.447  15.779  0.00  0.00    +0.000 A 
ATOM     22  C   UNL     1       5.708   4.001  15.570  0.00  0.00    +0.000 A 
ATOM     23  N   UNL     1       4.847   3.900  16.613  0.00  0.00    +0.000 NA
ENDBRANCH   6  18
TORSDOF 3
ENDMDL
