MODEL 1
REMARK VINA RESULT:      -7.9      0.000      0.000
REMARK  Name = 
REMARK  3 active torsions:
REMARK  status: ('A' for Active; 'I' for Inactive)
REMARK    1  A    between atoms: N_4  and  N_5
REMARK    2  A    between atoms: C_6  and  C_7
REMARK    3  A    between atoms: C_10  and  C_11
REMARK                            x       y       z     vdW  Elec       q    Type
REMARK                         _______ _______ _______ _____ _____    ______ ____
ROOT
ATOM      1  C   UNL     1       7.316   7.131  17.472  0.00  0.00    +0.000 A 
ATOM      2  N   UNL     1       7.560   6.510  16.333  0.00  0.00    +0.000 NA
ATOM      3  C   UNL     1       6.560   5.585  16.250  0.00  0.00    +0.000 A 
ATOM      4  C   UNL     1       5.741   5.652  17.356  0.00  0.00    +0.000 A 
ATOM      5  O   UNL     1       6.210   6.662  18.148  0.00  0.00    +0.000 OA
ENDROOT
BRANCH   4   6
ATOM      6  C   UNL     1       4.558   4.907  17.774  0.00  0.00    +0.000 A 
ATOM      7  C   UNL     1       4.033   3.917  16.927  0.00  0.00    +0.000 A 
ATOM      8  C   UNL     1       2.880   3.207  17.269  0.00  0.00    +0.000 A 
ATOM      9  C   UNL     1       2.230   3.475  18.472  0.00  0.00    +0.000 A 
ATOM     10 CL   UNL     1       0.803   2.569  18.828  0.00  0.00    +0.000 Cl
ATOM     11  C   UNL     1       2.741   4.453  19.333  0.00  0.00    +0.000 A 
ATOM     12 CL   UNL     1       1.964   4.860  20.823  0.00  0.00    +0.000 Cl
ATOM     13  C   UNL     1       3.906   5.158  18.987  0.00  0.00    +0.000 A 
ENDBRANCH   4   6
BRANCH   1  15
ATOM     14  N   UNL     1       7.794   9.460  17.753  0.00  0.00    +0.000 NA
ATOM     15  C   UNL     1       8.075   8.219  18.020  0.00  0.00    +0.000 C 
BRANCH  14  19
ATOM     16  O   UNL     1      11.009  11.706  20.333  0.00  0.00    +0.000 OA
ATOM     17  C   UNL     1      10.153  11.446  19.491  0.00  0.00    +0.000 C 
ATOM     18  C   UNL     1       9.566  10.089  19.280  0.00  0.00    +0.000 C 
ATOM     19  N   UNL     1       8.612  10.426  18.275  0.00  0.00    +0.000 N 
ATOM     20  C   UNL     1       8.675  11.764  17.931  0.00  0.00    +0.000 C 
ATOM     21  O   UNL     1       7.971  12.324  17.103  0.00  0.00    +0.000 OA
ATOM     22  N   UNL     1       9.606  12.369  18.675  0.00  0.00    +0.000 NA
ENDBRANCH  14  19
ENDBRANCH   1  15
TORSDOF 3
ENDMDL
MODEL 2
REMARK VINA RESULT:      -7.6      5.285      7.220
REMARK  Name = 
REMARK  3 active torsions:
REMARK  status: ('A' for Active; 'I' for Inactive)
REMARK    1  A    between atoms: N_4  and  N_5
REMARK    2  A    between atoms: C_6  and  C_7
REMARK    3  A    between atoms: C_10  and  C_11
REMARK                            x       y       z     vdW  Elec       q    Type
REMARK                         _______ _______ _______ _____ _____    ______ ____
ROOT
ATOM      1  C   UNL     1       3.012   6.234  19.211  0.00  0.00    +0.000 A 
ATOM      2  N   UNL     1       2.516   5.371  20.080  0.00  0.00    +0.000 NA
ATOM      3  C   UNL     1       1.671   6.128  20.838  0.00  0.00    +0.000 A 
ATOM      4  C   UNL     1       1.690   7.442  20.425  0.00  0.00    +0.000 A 
ATOM      5  O   UNL     1       2.543   7.521  19.360  0.00  0.00    +0.000 OA
ENDROOT
BRANCH   4   6
ATOM      6  C   UNL     1       1.004   8.647  20.882  0.00  0.00    +0.000 A 
ATOM      7  C   UNL     1       0.497   8.695  22.191  0.00  0.00    +0.000 A 
ATOM      8  C   UNL     1      -0.201   9.812  22.657  0.00  0.00    +0.000 A 
ATOM      9  C   UNL     1      -0.404  10.906  21.817  0.00  0.00    +0.000 A 
ATOM     10 CL   UNL     1      -1.285  12.249  22.452  0.00  0.00    +0.000 Cl
ATOM     11  C   UNL     1       0.100  10.878  20.511  0.00  0.00    +0.000 A 
ATOM     12 CL   UNL     1      -0.147  12.185  19.407  0.00  0.00    +0.000 Cl
ATOM     13  C   UNL     1       0.808   9.756  20.051  0.00  0.00    +0.000 A 
ENDBRANCH   4   6
BRANCH   1  15
ATOM     14  N   UNL     1       5.087   5.358  18.402  0.00  0.00    +0.000 NA
ATOM     15  C   UNL     1       3.947   5.934  18.165  0.00  0.00    +0.000 C 
BRANCH  14  19
ATOM     16  O   UNL     1       6.878   5.102  14.070  0.00  0.00    +0.000 OA
ATOM     17  C   UNL     1       6.757   5.083  15.293  0.00  0.00    +0.000 C 
ATOM     18  C   UNL     1       5.509   5.466  16.019  0.00  0.00    +0.000 C 
ATOM     19  N   UNL     1       5.938   5.166  17.346  0.00  0.00    +0.000 N 
ATOM     20  C   UNL     1       7.247   4.723  17.378  0.00  0.00    +0.000 C 
ATOM     21  O   UNL     1       7.867   4.392  18.379  0.00  0.00    +0.000 OA
ATOM     22  N   UNL     1       7.728   4.673  16.132  0.00  0.00    +0.000 NA
ENDBRANCH  14  19
ENDBRANCH   1  15
TORSDOF 3
ENDMDL
MODEL 3
REMARK VINA RESULT:      -7.6      5.066      6.994
REMARK  Name = 
REMARK  3 active torsions:
REMARK  status: ('A' for Active; 'I' for Inactive)
REMARK    1  A    between atoms: N_4  and  N_5
REMARK    2  A    between atoms: C_6  and  C_7
REMARK    3  A    between atoms: C_10  and  C_11
REMARK                            x       y       z     vdW  Elec       q    Type
REMARK                         _______ _______ _______ _____ _____    ______ ____
ROOT
ATOM      1  C   UNL     1       3.144   5.824  19.232  0.00  0.00    +0.000 A 
ATOM      2  N   UNL     1       2.615   5.126  20.220  0.00  0.00    +0.000 NA
ATOM      3  C   UNL     1       1.756   6.006  20.813  0.00  0.00    +0.000 A 
ATOM      4  C   UNL     1       1.801   7.230  20.182  0.00  0.00    +0.000 A 
ATOM      5  O   UNL     1       2.683   7.120  19.144  0.00  0.00    +0.000 OA
ENDROOT
BRANCH   4   6
ATOM      6  C   UNL     1       1.114   8.498  20.405  0.00  0.00    +0.000 A 
ATOM      7  C   UNL     1       1.149   9.485  19.405  0.00  0.00    +0.000 A 
ATOM      8  C   UNL     1       0.540  10.728  19.591  0.00  0.00    +0.000 A 
ATOM      9  C   UNL     1      -0.120  11.006  20.787  0.00  0.00    +0.000 A 
ATOM     10 CL   UNL     1      -0.841  12.567  20.957  0.00  0.00    +0.000 Cl
ATOM     11  C   UNL     1      -0.170  10.034  21.793  0.00  0.00    +0.000 A 
ATOM     12 CL   UNL     1      -0.940  10.327  23.313  0.00  0.00    +0.000 Cl
ATOM     13  C   UNL     1       0.437   8.783  21.597  0.00  0.00    +0.000 A 
ENDBRANCH   4   6
BRANCH   1  15
ATOM     14  N   UNL     1       5.226   5.963  18.061  0.00  0.00    +0.000 NA
ATOM     15  C   UNL     1       4.104   5.345  18.280  0.00  0.00    +0.000 C 
BRANCH  14  19
ATOM     16  O   UNL     1       7.049   4.728  13.914  0.00  0.00    +0.000 OA
ATOM     17  C   UNL     1       6.894   4.918  15.119  0.00  0.00    +0.000 C 
ATOM     18  C   UNL     1       5.722   5.627  15.713  0.00  0.00    +0.000 C 
ATOM     19  N   UNL     1       6.053   5.461  17.091  0.00  0.00    +0.000 N 
ATOM     20  C   UNL     1       7.254   4.798  17.257  0.00  0.00    +0.000 C 
ATOM     21  O   UNL     1       7.775   4.518  18.327  0.00  0.00    +0.000 OA
ATOM     22  N   UNL     1       7.750   4.472  16.060  0.00  0.00    +0.000 NA
ENDBRANCH  14  19
ENDBRANCH   1  15
TORSDOF 3
ENDMDL
MODEL 4
REMARK VINA RESULT:      -7.5      5.280      6.973
REMARK  Name = 
REMARK  3 active torsions:
REMARK  status: ('A' for Active; 'I' for Inactive)
REMARK    1  A    between atoms: N_4  and  N_5
REMARK    2  A    between atoms: C_6  and  C_7
REMARK    3  A    between atoms: C_10  and  C_11
REMARK                            x       y       z     vdW  Elec       q    Type
REMARK                         _______ _______ _______ _____ _____    ______ ____
ROOT
ATOM      1  C   UNL     1       4.577   5.079  17.327  0.00  0.00    +0.000 A 
ATOM      2  N   UNL     1       4.861   4.665  18.548  0.00  0.00    +0.000 NA
ATOM      3  C   UNL     1       4.116   5.483  19.347  0.00  0.00    +0.000 A 
ATOM      4  C   UNL     1       3.411   6.393  18.590  0.00  0.00    +0.000 A 
ATOM      5  O   UNL     1       3.688   6.131  17.277  0.00  0.00    +0.000 OA
ENDROOT
BRANCH   4   6
ATOM      6  C   UNL     1       2.492   7.477  18.924  0.00  0.00    +0.000 A 
ATOM      7  C   UNL     1       2.131   8.403  17.931  0.00  0.00    +0.000 A 
ATOM      8  C   UNL     1       1.287   9.478  18.216  0.00  0.00    +0.000 A 
ATOM      9  C   UNL     1       0.784   9.645  19.505  0.00  0.00    +0.000 A 
ATOM     10 CL   UNL     1      -0.246  11.002  19.792  0.00  0.00    +0.000 Cl
ATOM     11  C   UNL     1       1.127   8.729  20.506  0.00  0.00    +0.000 A 
ATOM     12 CL   UNL     1       0.568   8.897  22.133  0.00  0.00    +0.000 Cl
ATOM     13  C   UNL     1       1.971   7.645  20.212  0.00  0.00    +0.000 A 
ENDBRANCH   4   6
BRANCH   1  15
ATOM     14  N   UNL     1       5.812   5.225  15.282  0.00  0.00    +0.000 NA
ATOM     15  C   UNL     1       5.092   4.525  16.107  0.00  0.00    +0.000 C 
BRANCH  14  19
ATOM     16  O   UNL     1       6.030   2.419  11.524  0.00  0.00    +0.000 OA
ATOM     17  C   UNL     1       6.266   3.305  12.342  0.00  0.00    +0.000 C 
ATOM     18  C   UNL     1       5.409   3.602  13.529  0.00  0.00    +0.000 C 
ATOM     19  N   UNL     1       6.209   4.627  14.115  0.00  0.00    +0.000 N 
ATOM     20  C   UNL     1       7.329   4.905  13.356  0.00  0.00    +0.000 C 
ATOM     21  O   UNL     1       8.189   5.733  13.623  0.00  0.00    +0.000 OA
ATOM     22  N   UNL     1       7.355   4.098  12.290  0.00  0.00    +0.000 NA
ENDBRANCH  14  19
ENDBRANCH   1  15
TORSDOF 3
ENDMDL
MODEL 5
REMARK VINA RESULT:      -7.4      0.718      1.473
REMARK  Name = 
REMARK  3 active torsions:
REMARK  status: ('A' for Active; 'I' for Inactive)
REMARK    1  A    between atoms: N_4  and  N_5
REMARK    2  A    between atoms: C_6  and  C_7
REMARK    3  A    between atoms: C_10  and  C_11
REMARK                            x       y       z     vdW  Elec       q    Type
REMARK                         _______ _______ _______ _____ _____    ______ ____
ROOT
ATOM      1  C   UNL     1       7.366   7.326  17.458  0.00  0.00    +0.000 A 
ATOM      2  N   UNL     1       7.533   6.591  16.374  0.00  0.00    +0.000 NA
ATOM      3  C   UNL     1       6.472   5.735  16.397  0.00  0.00    +0.000 A 
ATOM      4  C   UNL     1       5.693   5.955  17.513  0.00  0.00    +0.000 A 
ATOM      5  O   UNL     1       6.252   6.995  18.200  0.00  0.00    +0.000 OA
ENDROOT
BRANCH   4   6
ATOM      6  C   UNL     1       4.476   5.333  18.025  0.00  0.00    +0.000 A 
ATOM      7  C   UNL     1       3.701   6.017  18.976  0.00  0.00    +0.000 A 
ATOM      8  C   UNL     1       2.551   5.443  19.523  0.00  0.00    +0.000 A 
ATOM      9  C   UNL     1       2.153   4.168  19.123  0.00  0.00    +0.000 A 
ATOM     10 CL   UNL     1       0.728   3.512  19.847  0.00  0.00    +0.000 Cl
ATOM     11  C   UNL     1       2.909   3.473  18.173  0.00  0.00    +0.000 A 
ATOM     12 CL   UNL     1       2.492   1.875  17.661  0.00  0.00    +0.000 Cl
ATOM     13  C   UNL     1       4.060   4.058  17.620  0.00  0.00    +0.000 A 
ENDBRANCH   4   6
BRANCH   1  15
ATOM     14  N   UNL     1       7.791   9.630  17.945  0.00  0.00    +0.000 NA
ATOM     15  C   UNL     1       8.212   8.402  17.888  0.00  0.00    +0.000 C 
BRANCH  14  19
ATOM     16  O   UNL     1      11.340  11.912  20.005  0.00  0.00    +0.000 OA
ATOM     17  C   UNL     1      10.386  11.633  19.281  0.00  0.00    +0.000 C 
ATOM     18  C   UNL     1       9.742  10.287  19.223  0.00  0.00    +0.000 C 
ATOM     19  N   UNL     1       8.690  10.597  18.311  0.00  0.00    +0.000 N 
ATOM     20  C   UNL     1       8.751  11.908  17.878  0.00  0.00    +0.000 C 
ATOM     21  O   UNL     1       7.975  12.442  17.099  0.00  0.00    +0.000 OA
ATOM     22  N   UNL     1       9.777  12.524  18.474  0.00  0.00    +0.000 NA
ENDBRANCH  14  19
ENDBRANCH   1  15
TORSDOF 3
ENDMDL
MODEL 6
REMARK VINA RESULT:      -7.4      1.026      1.496
REMARK  Name = 
REMARK  3 active torsions:
REMARK  status: ('A' for Active; 'I' for Inactive)
REMARK    1  A    between atoms: N_4  and  N_5
REMARK    2  A    between atoms: C_6  and  C_7
REMARK    3  A    between atoms: C_10  and  C_11
REMARK                            x       y       z     vdW  Elec       q    Type
REMARK                         _______ _______ _______ _____ _____    ______ ____
ROOT
ATOM      1  C   UNL     1       7.320   7.607  17.353  0.00  0.00    +0.000 A 
ATOM      2  N   UNL     1       7.863   6.714  16.546  0.00  0.00    +0.000 NA
ATOM      3  C   UNL     1       6.985   5.670  16.582  0.00  0.00    +0.000 A 
ATOM      4  C   UNL     1       5.935   5.946  17.431  0.00  0.00    +0.000 A 
ATOM      5  O   UNL     1       6.131   7.206  17.923  0.00  0.00    +0.000 OA
ENDROOT
BRANCH   4   6
ATOM      6  C   UNL     1       4.751   5.196  17.839  0.00  0.00    +0.000 A 
ATOM      7  C   UNL     1       4.139   4.324  16.922  0.00  0.00    +0.000 A 
ATOM      8  C   UNL     1       2.982   3.617  17.257  0.00  0.00    +0.000 A 
ATOM      9  C   UNL     1       2.415   3.769  18.521  0.00  0.00    +0.000 A 
ATOM     10 CL   UNL     1       0.979   2.874  18.865  0.00  0.00    +0.000 Cl
ATOM     11  C   UNL     1       3.014   4.628  19.449  0.00  0.00    +0.000 A 
ATOM     12 CL   UNL     1       2.342   4.890  21.021  0.00  0.00    +0.000 Cl
ATOM     13  C   UNL     1       4.182   5.331  19.110  0.00  0.00    +0.000 A 
ENDBRANCH   4   6
BRANCH   1  15
ATOM     14  N   UNL     1       8.674   9.112  18.629  0.00  0.00    +0.000 NA
ATOM     15  C   UNL     1       7.846   8.909  17.648  0.00  0.00    +0.000 C 
BRANCH  14  19
ATOM     16  O   UNL     1      10.079  13.555  18.061  0.00  0.00    +0.000 OA
ATOM     17  C   UNL     1       9.711  12.496  18.564  0.00  0.00    +0.000 C 
ATOM     18  C   UNL     1       9.298  11.293  17.780  0.00  0.00    +0.000 C 
ATOM     19  N   UNL     1       9.076  10.399  18.869  0.00  0.00    +0.000 N 
ATOM     20  C   UNL     1       9.285  11.011  20.091  0.00  0.00    +0.000 C 
ATOM     21  O   UNL     1       9.172  10.480  21.186  0.00  0.00    +0.000 OA
ATOM     22  N   UNL     1       9.673  12.275  19.893  0.00  0.00    +0.000 NA
ENDBRANCH  14  19
ENDBRANCH   1  15
TORSDOF 3
ENDMDL
MODEL 7
REMARK VINA RESULT:      -7.3      1.360      2.009
REMARK  Name = 
REMARK  3 active torsions:
REMARK  status: ('A' for Active; 'I' for Inactive)
REMARK    1  A    between atoms: N_4  and  N_5
REMARK    2  A    between atoms: C_6  and  C_7
REMARK    3  A    between atoms: C_10  and  C_11
REMARK                            x       y       z     vdW  Elec       q    Type
REMARK                         _______ _______ _______ _____ _____    ______ ____
ROOT
ATOM      1  C   UNL     1       7.340   7.707  17.350  0.00  0.00    +0.000 A 
ATOM      2  N   UNL     1       7.896   6.814  16.552  0.00  0.00    +0.000 NA
ATOM      3  C   UNL     1       6.994   5.789  16.537  0.00  0.00    +0.000 A 
ATOM      4  C   UNL     1       5.917   6.076  17.348  0.00  0.00    +0.000 A 
ATOM      5  O   UNL     1       6.121   7.324  17.867  0.00  0.00    +0.000 OA
ENDROOT
BRANCH   4   6
ATOM      6  C   UNL     1       4.703   5.346  17.697  0.00  0.00    +0.000 A 
ATOM      7  C   UNL     1       3.533   6.063  18.000  0.00  0.00    +0.000 A 
ATOM      8  C   UNL     1       2.359   5.407  18.378  0.00  0.00    +0.000 A 
ATOM      9  C   UNL     1       2.335   4.016  18.458  0.00  0.00    +0.000 A 
ATOM     10 CL   UNL     1       0.854   3.269  18.943  0.00  0.00    +0.000 Cl
ATOM     11  C   UNL     1       3.489   3.285  18.154  0.00  0.00    +0.000 A 
ATOM     12 CL   UNL     1       3.537   1.560  18.268  0.00  0.00    +0.000 Cl
ATOM     13  C   UNL     1       4.664   3.949  17.767  0.00  0.00    +0.000 A 
ENDBRANCH   4   6
BRANCH   1  15
ATOM     14  N   UNL     1       8.705   9.156  18.679  0.00  0.00    +0.000 NA
ATOM     15  C   UNL     1       7.882   8.992  17.686  0.00  0.00    +0.000 C 
BRANCH  14  19
ATOM     16  O   UNL     1      10.236  13.573  18.249  0.00  0.00    +0.000 OA
ATOM     17  C   UNL     1       9.819  12.516  18.717  0.00  0.00    +0.000 C 
ATOM     18  C   UNL     1       9.420  11.334  17.895  0.00  0.00    +0.000 C 
ATOM     19  N   UNL     1       9.123  10.430  18.957  0.00  0.00    +0.000 N 
ATOM     20  C   UNL     1       9.284  11.019  20.197  0.00  0.00    +0.000 C 
ATOM     21  O   UNL     1       9.103  10.476  21.278  0.00  0.00    +0.000 OA
ATOM     22  N   UNL     1       9.709  12.277  20.039  0.00  0.00    +0.000 NA
ENDBRANCH  14  19
ENDBRANCH   1  15
TORSDOF 3
ENDMDL
MODEL 8
REMARK VINA RESULT:      -7.3      5.113      6.969
REMARK  Name = 
REMARK  3 active torsions:
REMARK  status: ('A' for Active; 'I' for Inactive)
REMARK    1  A    between atoms: N_4  and  N_5
REMARK    2  A    between atoms: C_6  and  C_7
REMARK    3  A    between atoms: C_10  and  C_11
REMARK                            x       y       z     vdW  Elec       q    Type
REMARK                         _______ _______ _______ _____ _____    ______ ____
ROOT
ATOM      1  C   UNL     1       3.620   6.340  18.119  0.00  0.00    +0.000 A 
ATOM      2  N   UNL     1       3.323   5.432  19.031  0.00  0.00    +0.000 NA
ATOM      3  C   UNL     1       2.444   6.075  19.852  0.00  0.00    +0.000 A 
ATOM      4  C   UNL     1       2.243   7.372  19.431  0.00  0.00    +0.000 A 
ATOM      5  O   UNL     1       2.986   7.551  18.298  0.00  0.00    +0.000 OA
ENDROOT
BRANCH   4   6
ATOM      6  C   UNL     1       1.432   8.476  19.935  0.00  0.00    +0.000 A 
ATOM      7  C   UNL     1       1.094   9.532  19.072  0.00  0.00    +0.000 A 
ATOM      8  C   UNL     1       0.355  10.627  19.522  0.00  0.00    +0.000 A 
ATOM      9  C   UNL     1      -0.064  10.685  20.850  0.00  0.00    +0.000 A 
ATOM     10 CL   UNL     1      -0.965  12.074  21.344  0.00  0.00    +0.000 Cl
ATOM     11  C   UNL     1       0.258   9.640  21.724  0.00  0.00    +0.000 A 
ATOM     12 CL   UNL     1      -0.199   9.666  23.391  0.00  0.00    +0.000 Cl
ATOM     13  C   UNL     1       0.995   8.537  21.264  0.00  0.00    +0.000 A 
ENDBRANCH   4   6
BRANCH   1  15
ATOM     14  N   UNL     1       4.879   4.976  16.608  0.00  0.00    +0.000 NA
ATOM     15  C   UNL     1       4.499   6.156  17.000  0.00  0.00    +0.000 C 
BRANCH  14  19
ATOM     16  O   UNL     1       6.902   3.960  12.495  0.00  0.00    +0.000 OA
ATOM     17  C   UNL     1       6.678   4.429  13.608  0.00  0.00    +0.000 C 
ATOM     18  C   UNL     1       5.408   4.222  14.367  0.00  0.00    +0.000 C 
ATOM     19  N   UNL     1       5.766   4.905  15.567  0.00  0.00    +0.000 N 
ATOM     20  C   UNL     1       7.031   5.458  15.488  0.00  0.00    +0.000 C 
ATOM     21  O   UNL     1       7.591   6.093  16.370  0.00  0.00    +0.000 OA
ATOM     22  N   UNL     1       7.572   5.160  14.303  0.00  0.00    +0.000 NA
ENDBRANCH  14  19
ENDBRANCH   1  15
TORSDOF 3
ENDMDL
MODEL 9
REMARK VINA RESULT:      -7.2      6.226      8.666
REMARK  Name = 
REMARK  3 active torsions:
REMARK  status: ('A' for Active; 'I' for Inactive)
REMARK    1  A    between atoms: N_4  and  N_5
REMARK    2  A    between atoms: C_6  and  C_7
REMARK    3  A    between atoms: C_10  and  C_11
REMARK                            x       y       z     vdW  Elec       q    Type
REMARK                         _______ _______ _______ _____ _____    ______ ____
ROOT
ATOM      1  C   UNL     1       2.297   7.732  18.541  0.00  0.00    +0.000 A 
ATOM      2  N   UNL     1       2.395   8.633  17.581  0.00  0.00    +0.000 NA
ATOM      3  C   UNL     1       1.700   9.701  18.070  0.00  0.00    +0.000 A 
ATOM      4  C   UNL     1       1.175   9.414  19.311  0.00  0.00    +0.000 A 
ATOM      5  O   UNL     1       1.570   8.146  19.636  0.00  0.00    +0.000 OA
ENDROOT
BRANCH   4   6
ATOM      6  C   UNL     1       0.360  10.172  20.255  0.00  0.00    +0.000 A 
ATOM      7  C   UNL     1       0.350   9.800  21.610  0.00  0.00    +0.000 A 
ATOM      8  C   UNL     1      -0.445  10.472  22.540  0.00  0.00    +0.000 A 
ATOM      9  C   UNL     1      -1.248  11.535  22.130  0.00  0.00    +0.000 A 
ATOM     10 CL   UNL     1      -2.216  12.315  23.329  0.00  0.00    +0.000 Cl
ATOM     11  C   UNL     1      -1.247  11.924  20.786  0.00  0.00    +0.000 A 
ATOM     12 CL   UNL     1      -2.245  13.210  20.204  0.00  0.00    +0.000 Cl
ATOM     13  C   UNL     1      -0.439  11.250  19.856  0.00  0.00    +0.000 A 
ENDBRANCH   4   6
BRANCH   1  15
ATOM     14  N   UNL     1       2.242   5.377  18.965  0.00  0.00    +0.000 NA
ATOM     15  C   UNL     1       2.882   6.421  18.531  0.00  0.00    +0.000 C 
BRANCH  14  19
ATOM     16  O   UNL     1       4.973   1.762  20.193  0.00  0.00    +0.000 OA
ATOM     17  C   UNL     1       4.180   2.481  19.592  0.00  0.00    +0.000 C 
ATOM     18  C   UNL     1       3.699   3.804  20.093  0.00  0.00    +0.000 C 
ATOM     19  N   UNL     1       2.904   4.178  18.969  0.00  0.00    +0.000 N 
ATOM     20  C   UNL     1       2.895   3.198  17.994  0.00  0.00    +0.000 C 
ATOM     21  O   UNL     1       2.301   3.256  16.927  0.00  0.00    +0.000 OA
ATOM     22  N   UNL     1       3.672   2.181  18.380  0.00  0.00    +0.000 NA
ENDBRANCH  14  19
ENDBRANCH   1  15
TORSDOF 3
ENDMDL
