MODEL 1
REMARK VINA RESULT:      -8.3      0.000      0.000
REMARK  Name = 
REMARK  8 active torsions:
REMARK  status: ('A' for Active; 'I' for Inactive)
REMARK    1  A    between atoms: C_1  and  C_2
REMARK    2  A    between atoms: C_4  and  N_5
REMARK    3  A    between atoms: C_7  and  C_8
REMARK    4  A    between atoms: C_8  and  C_9
REMARK    5  A    between atoms: C_9  and  C_10
REMARK    6  A    between atoms: C_15  and  C_16
REMARK    7  A    between atoms: C_16  and  C_17
REMARK    8  A    between atoms: C_17  and  C_18
REMARK                            x       y       z     vdW  Elec       q    Type
REMARK                         _______ _______ _______ _____ _____    ______ ____
ROOT
ATOM      1  C   UNL     1       3.808   6.901  17.561  0.00  0.00    +0.000 A 
ATOM      2  C   UNL     1       3.099   8.106  17.654  0.00  0.00    +0.000 A 
ATOM      3  C   UNL     1       2.199   8.307  18.696  0.00  0.00    +0.000 A 
ATOM      4  F   UNL     1       1.543   9.471  18.783  0.00  0.00    +0.000 F 
ATOM      5  C   UNL     1       1.972   7.325  19.654  0.00  0.00    +0.000 A 
ATOM      6  C   UNL     1       2.642   6.099  19.569  0.00  0.00    +0.000 A 
ATOM      7  C   UNL     1       3.551   5.902  18.517  0.00  0.00    +0.000 A 
ENDROOT
BRANCH   1   8
ATOM      8  C   UNL     1       4.780   6.607  16.439  0.00  0.00    +0.000 C 
BRANCH   8   9
ATOM      9  C   UNL     1       5.423   5.215  16.461  0.00  0.00    +0.000 C 
BRANCH   9  15
ATOM     10  C   UNL     1       5.227   2.941  11.980  0.00  0.00    +0.000 C 
ATOM     11  C   UNL     1       5.927   3.816  12.973  0.00  0.00    +0.000 A 
ATOM     12  C   UNL     1       7.142   4.437  12.668  0.00  0.00    +0.000 A 
ATOM     13  C   UNL     1       7.743   5.249  13.619  0.00  0.00    +0.000 A 
ATOM     14  N   UNL     1       7.203   5.484  14.824  0.00  0.00    +0.000 NA
ATOM     15  C   UNL     1       6.024   4.884  15.121  0.00  0.00    +0.000 A 
ATOM     16  C   UNL     1       5.362   4.049  14.227  0.00  0.00    +0.000 A 
BRANCH  13  17
ATOM     17  N   UNL     1       8.932   5.916  13.336  0.00  0.00    +0.000 N 
ATOM     18  H   UNL     1       9.023   6.120  12.349  0.00  0.00    +0.000 HD
ATOM     19  H   UNL     1       9.683   5.320  13.673  0.00  0.00    +0.000 HD
ENDBRANCH  13  17
ENDBRANCH   9  15
ENDBRANCH   8   9
ENDBRANCH   1   8
BRANCH   6  20
ATOM     20  C   UNL     1       2.436   5.022  20.612  0.00  0.00    +0.000 C 
BRANCH  20  21
ATOM     21  C   UNL     1       1.274   4.072  20.303  0.00  0.00    +0.000 C 
BRANCH  21  22
ATOM     22  C   UNL     1       1.729   2.825  19.540  0.00  0.00    +0.000 C 
ATOM     23  C   UNL     1       3.195   2.465  19.721  0.00  0.00    +0.000 C 
ATOM     24  C   UNL     1       3.464   1.565  18.529  0.00  0.00    +0.000 C 
ATOM     25  C   UNL     1       2.545   2.098  17.440  0.00  0.00    +0.000 C 
ATOM     26  N   UNL     1       1.632   3.040  18.092  0.00  0.00    +0.000 NA
ATOM     27  H   UNL     1       0.676   2.911  17.763  0.00  0.00    +0.000 HD
ENDBRANCH  21  22
ENDBRANCH  20  21
ENDBRANCH   6  20
TORSDOF 7
ENDMDL
MODEL 2
REMARK VINA RESULT:      -8.3      1.329      2.028
REMARK  Name = 
REMARK  8 active torsions:
REMARK  status: ('A' for Active; 'I' for Inactive)
REMARK    1  A    between atoms: C_1  and  C_2
REMARK    2  A    between atoms: C_4  and  N_5
REMARK    3  A    between atoms: C_7  and  C_8
REMARK    4  A    between atoms: C_8  and  C_9
REMARK    5  A    between atoms: C_9  and  C_10
REMARK    6  A    between atoms: C_15  and  C_16
REMARK    7  A    between atoms: C_16  and  C_17
REMARK    8  A    between atoms: C_17  and  C_18
REMARK                            x       y       z     vdW  Elec       q    Type
REMARK                         _______ _______ _______ _____ _____    ______ ____
ROOT
ATOM      1  C   UNL     1       4.796   5.964  17.122  0.00  0.00    +0.000 A 
ATOM      2  C   UNL     1       4.061   7.049  17.618  0.00  0.00    +0.000 A 
ATOM      3  C   UNL     1       2.752   6.864  18.053  0.00  0.00    +0.000 A 
ATOM      4  F   UNL     1       2.069   7.906  18.543  0.00  0.00    +0.000 F 
ATOM      5  C   UNL     1       2.142   5.616  17.997  0.00  0.00    +0.000 A 
ATOM      6  C   UNL     1       2.841   4.520  17.476  0.00  0.00    +0.000 A 
ATOM      7  C   UNL     1       4.162   4.712  17.040  0.00  0.00    +0.000 A 
ENDROOT
BRANCH   1   8
ATOM      8  C   UNL     1       6.213   6.102  16.608  0.00  0.00    +0.000 C 
BRANCH   8   9
ATOM      9  C   UNL     1       6.914   4.793  16.228  0.00  0.00    +0.000 C 
BRANCH   9  15
ATOM     10  C   UNL     1       5.457   2.678  11.904  0.00  0.00    +0.000 C 
ATOM     11  C   UNL     1       6.298   3.658  12.663  0.00  0.00    +0.000 A 
ATOM     12  C   UNL     1       7.151   4.548  12.005  0.00  0.00    +0.000 A 
ATOM     13  C   UNL     1       7.898   5.445  12.754  0.00  0.00    +0.000 A 
ATOM     14  N   UNL     1       7.831   5.513  14.092  0.00  0.00    +0.000 NA
ATOM     15  C   UNL     1       7.003   4.651  14.731  0.00  0.00    +0.000 A 
ATOM     16  C   UNL     1       6.228   3.715  14.055  0.00  0.00    +0.000 A 
BRANCH  13  17
ATOM     17  N   UNL     1       8.728   6.374  12.131  0.00  0.00    +0.000 N 
ATOM     18  H   UNL     1       8.348   7.310  12.181  0.00  0.00    +0.000 HD
ATOM     19  H   UNL     1       8.844   6.059  11.172  0.00  0.00    +0.000 HD
ENDBRANCH  13  17
ENDBRANCH   9  15
ENDBRANCH   8   9
ENDBRANCH   1   8
BRANCH   6  20
ATOM     20  C   UNL     1       2.213   3.145  17.427  0.00  0.00    +0.000 C 
BRANCH  20  21
ATOM     21  C   UNL     1       1.011   2.977  18.364  0.00  0.00    +0.000 C 
BRANCH  21  22
ATOM     22  C   UNL     1       1.427   2.537  19.770  0.00  0.00    +0.000 C 
ATOM     23  C   UNL     1       1.234   3.589  20.852  0.00  0.00    +0.000 C 
ATOM     24  C   UNL     1       2.146   3.094  21.959  0.00  0.00    +0.000 C 
ATOM     25  C   UNL     1       3.288   2.405  21.228  0.00  0.00    +0.000 C 
ATOM     26  N   UNL     1       2.871   2.284  19.829  0.00  0.00    +0.000 NA
ATOM     27  H   UNL     1       3.099   1.363  19.456  0.00  0.00    +0.000 HD
ENDBRANCH  21  22
ENDBRANCH  20  21
ENDBRANCH   6  20
TORSDOF 7
ENDMDL
MODEL 3
REMARK VINA RESULT:      -8.3      1.119      1.309
REMARK  Name = 
REMARK  8 active torsions:
REMARK  status: ('A' for Active; 'I' for Inactive)
REMARK    1  A    between atoms: C_1  and  C_2
REMARK    2  A    between atoms: C_4  and  N_5
REMARK    3  A    between atoms: C_7  and  C_8
REMARK    4  A    between atoms: C_8  and  C_9
REMARK    5  A    between atoms: C_9  and  C_10
REMARK    6  A    between atoms: C_15  and  C_16
REMARK    7  A    between atoms: C_16  and  C_17
REMARK    8  A    between atoms: C_17  and  C_18
REMARK                            x       y       z     vdW  Elec       q    Type
REMARK                         _______ _______ _______ _____ _____    ______ ____
ROOT
ATOM      1  C   UNL     1       4.584   6.128  17.409  0.00  0.00    +0.000 A 
ATOM      2  C   UNL     1       4.126   7.424  17.681  0.00  0.00    +0.000 A 
ATOM      3  C   UNL     1       2.797   7.633  18.035  0.00  0.00    +0.000 A 
ATOM      4  F   UNL     1       2.377   8.874  18.311  0.00  0.00    +0.000 F 
ATOM      5  C   UNL     1       1.895   6.577  18.114  0.00  0.00    +0.000 A 
ATOM      6  C   UNL     1       2.316   5.276  17.816  0.00  0.00    +0.000 A 
ATOM      7  C   UNL     1       3.659   5.070  17.462  0.00  0.00    +0.000 A 
ENDROOT
BRANCH   1   8
ATOM      8  C   UNL     1       6.009   5.833  16.992  0.00  0.00    +0.000 C 
BRANCH   8   9
ATOM      9  C   UNL     1       6.281   4.404  16.510  0.00  0.00    +0.000 C 
BRANCH   9  15
ATOM     10  C   UNL     1       5.278   2.920  11.810  0.00  0.00    +0.000 C 
ATOM     11  C   UNL     1       6.103   3.698  12.789  0.00  0.00    +0.000 A 
ATOM     12  C   UNL     1       7.154   4.517  12.365  0.00  0.00    +0.000 A 
ATOM     13  C   UNL     1       7.878   5.228  13.311  0.00  0.00    +0.000 A 
ATOM     14  N   UNL     1       7.609   5.181  14.624  0.00  0.00    +0.000 NA
ATOM     15  C   UNL     1       6.589   4.389  15.036  0.00  0.00    +0.000 A 
ATOM     16  C   UNL     1       5.820   3.637  14.153  0.00  0.00    +0.000 A 
BRANCH  13  17
ATOM     17  N   UNL     1       8.905   6.085  12.924  0.00  0.00    +0.000 N 
ATOM     18  H   UNL     1       9.805   5.770  13.262  0.00  0.00    +0.000 HD
ATOM     19  H   UNL     1       8.664   7.005  13.281  0.00  0.00    +0.000 HD
ENDBRANCH  13  17
ENDBRANCH   9  15
ENDBRANCH   8   9
ENDBRANCH   1   8
BRANCH   6  20
ATOM     20  C   UNL     1       1.365   4.104  17.920  0.00  0.00    +0.000 C 
BRANCH  20  21
ATOM     21  C   UNL     1       1.204   3.560  19.344  0.00  0.00    +0.000 C 
BRANCH  21  22
ATOM     22  C   UNL     1       2.215   2.455  19.663  0.00  0.00    +0.000 C 
ATOM     23  C   UNL     1       3.543   2.944  20.217  0.00  0.00    +0.000 C 
ATOM     24  C   UNL     1       4.461   1.762  19.966  0.00  0.00    +0.000 C 
ATOM     25  C   UNL     1       3.919   1.127  18.694  0.00  0.00    +0.000 C 
ATOM     26  N   UNL     1       2.621   1.755  18.439  0.00  0.00    +0.000 NA
ATOM     27  H   UNL     1       1.926   1.062  18.162  0.00  0.00    +0.000 HD
ENDBRANCH  21  22
ENDBRANCH  20  21
ENDBRANCH   6  20
TORSDOF 7
ENDMDL
MODEL 4
REMARK VINA RESULT:      -8.1      2.428      4.460
REMARK  Name = 
REMARK  8 active torsions:
REMARK  status: ('A' for Active; 'I' for Inactive)
REMARK    1  A    between atoms: C_1  and  C_2
REMARK    2  A    between atoms: C_4  and  N_5
REMARK    3  A    between atoms: C_7  and  C_8
REMARK    4  A    between atoms: C_8  and  C_9
REMARK    5  A    between atoms: C_9  and  C_10
REMARK    6  A    between atoms: C_15  and  C_16
REMARK    7  A    between atoms: C_16  and  C_17
REMARK    8  A    between atoms: C_17  and  C_18
REMARK                            x       y       z     vdW  Elec       q    Type
REMARK                         _______ _______ _______ _____ _____    ______ ____
ROOT
ATOM      1  C   UNL     1       3.556   4.073  17.662  0.00  0.00    +0.000 A 
ATOM      2  C   UNL     1       2.847   3.082  18.354  0.00  0.00    +0.000 A 
ATOM      3  C   UNL     1       1.990   3.434  19.392  0.00  0.00    +0.000 A 
ATOM      4  F   UNL     1       1.305   2.478  20.032  0.00  0.00    +0.000 F 
ATOM      5  C   UNL     1       1.825   4.761  19.774  0.00  0.00    +0.000 A 
ATOM      6  C   UNL     1       2.544   5.770  19.122  0.00  0.00    +0.000 A 
ATOM      7  C   UNL     1       3.405   5.410  18.074  0.00  0.00    +0.000 A 
ENDROOT
BRANCH   1   8
ATOM      8  C   UNL     1       4.524   3.758  16.542  0.00  0.00    +0.000 C 
BRANCH   8   9
ATOM      9  C   UNL     1       5.553   4.848  16.223  0.00  0.00    +0.000 C 
BRANCH   9  15
ATOM     10  C   UNL     1       5.540   2.678  11.686  0.00  0.00    +0.000 C 
ATOM     11  C   UNL     1       6.152   3.605  12.691  0.00  0.00    +0.000 A 
ATOM     12  C   UNL     1       7.278   4.372  12.383  0.00  0.00    +0.000 A 
ATOM     13  C   UNL     1       7.798   5.226  13.346  0.00  0.00    +0.000 A 
ATOM     14  N   UNL     1       7.258   5.366  14.565  0.00  0.00    +0.000 NA
ATOM     15  C   UNL     1       6.164   4.624  14.865  0.00  0.00    +0.000 A 
ATOM     16  C   UNL     1       5.587   3.738  13.960  0.00  0.00    +0.000 A 
BRANCH  13  17
ATOM     17  N   UNL     1       8.895   6.035  13.062  0.00  0.00    +0.000 N 
ATOM     18  H   UNL     1       9.200   6.554  13.875  0.00  0.00    +0.000 HD
ATOM     19  H   UNL     1       8.612   6.648  12.302  0.00  0.00    +0.000 HD
ENDBRANCH  13  17
ENDBRANCH   9  15
ENDBRANCH   8   9
ENDBRANCH   1   8
BRANCH   6  20
ATOM     20  C   UNL     1       2.363   7.224  19.497  0.00  0.00    +0.000 C 
BRANCH  20  21
ATOM     21  C   UNL     1       2.228   8.164  18.294  0.00  0.00    +0.000 C 
BRANCH  21  22
ATOM     22  C   UNL     1       1.483   9.455  18.645  0.00  0.00    +0.000 C 
ATOM     23  C   UNL     1       0.780   9.440  19.994  0.00  0.00    +0.000 C 
ATOM     24  C   UNL     1      -0.227  10.566  19.853  0.00  0.00    +0.000 C 
ATOM     25  C   UNL     1      -0.591  10.564  18.376  0.00  0.00    +0.000 C 
ATOM     26  N   UNL     1       0.374   9.684  17.713  0.00  0.00    +0.000 NA
ATOM     27  H   UNL     1       0.705  10.094  16.840  0.00  0.00    +0.000 HD
ENDBRANCH  21  22
ENDBRANCH  20  21
ENDBRANCH   6  20
TORSDOF 7
ENDMDL
MODEL 5
REMARK VINA RESULT:      -8.1      3.475      7.763
REMARK  Name = 
REMARK  8 active torsions:
REMARK  status: ('A' for Active; 'I' for Inactive)
REMARK    1  A    between atoms: C_1  and  C_2
REMARK    2  A    between atoms: C_4  and  N_5
REMARK    3  A    between atoms: C_7  and  C_8
REMARK    4  A    between atoms: C_8  and  C_9
REMARK    5  A    between atoms: C_9  and  C_10
REMARK    6  A    between atoms: C_15  and  C_16
REMARK    7  A    between atoms: C_16  and  C_17
REMARK    8  A    between atoms: C_17  and  C_18
REMARK                            x       y       z     vdW  Elec       q    Type
REMARK                         _______ _______ _______ _____ _____    ______ ____
ROOT
ATOM      1  C   UNL     1       1.947   4.788  19.571  0.00  0.00    +0.000 A 
ATOM      2  C   UNL     1       1.015   3.746  19.489  0.00  0.00    +0.000 A 
ATOM      3  C   UNL     1       1.232   2.682  18.620  0.00  0.00    +0.000 A 
ATOM      4  F   UNL     1       0.342   1.683  18.567  0.00  0.00    +0.000 F 
ATOM      5  C   UNL     1       2.361   2.631  17.809  0.00  0.00    +0.000 A 
ATOM      6  C   UNL     1       3.294   3.674  17.845  0.00  0.00    +0.000 A 
ATOM      7  C   UNL     1       3.071   4.744  18.726  0.00  0.00    +0.000 A 
ENDROOT
BRANCH   1   8
ATOM      8  C   UNL     1       1.759   5.988  20.475  0.00  0.00    +0.000 C 
BRANCH   8   9
ATOM      9  C   UNL     1       2.308   7.316  19.944  0.00  0.00    +0.000 C 
BRANCH   9  15
ATOM     10  C   UNL     1      -0.572   9.925  23.136  0.00  0.00    +0.000 C 
ATOM     11  C   UNL     1      -0.005   9.704  21.768  0.00  0.00    +0.000 A 
ATOM     12  C   UNL     1      -0.270  10.589  20.718  0.00  0.00    +0.000 A 
ATOM     13  C   UNL     1       0.292  10.346  19.473  0.00  0.00    +0.000 A 
ATOM     14  N   UNL     1       1.097   9.302  19.226  0.00  0.00    +0.000 NA
ATOM     15  C   UNL     1       1.357   8.444  20.244  0.00  0.00    +0.000 A 
ATOM     16  C   UNL     1       0.826   8.612  21.519  0.00  0.00    +0.000 A 
BRANCH  13  17
ATOM     17  N   UNL     1       0.083  11.225  18.415  0.00  0.00    +0.000 N 
ATOM     18  H   UNL     1      -0.033  12.178  18.735  0.00  0.00    +0.000 HD
ATOM     19  H   UNL     1      -0.736  10.888  17.916  0.00  0.00    +0.000 HD
ENDBRANCH  13  17
ENDBRANCH   9  15
ENDBRANCH   8   9
ENDBRANCH   1   8
BRANCH   6  20
ATOM     20  C   UNL     1       4.545   3.633  16.995  0.00  0.00    +0.000 C 
BRANCH  20  21
ATOM     21  C   UNL     1       4.918   4.983  16.373  0.00  0.00    +0.000 C 
BRANCH  21  22
ATOM     22  C   UNL     1       6.302   5.465  16.816  0.00  0.00    +0.000 C 
ATOM     23  C   UNL     1       6.608   5.257  18.291  0.00  0.00    +0.000 C 
ATOM     24  C   UNL     1       7.751   6.227  18.530  0.00  0.00    +0.000 C 
ATOM     25  C   UNL     1       7.477   7.376  17.572  0.00  0.00    +0.000 C 
ATOM     26  N   UNL     1       6.417   6.920  16.670  0.00  0.00    +0.000 NA
ATOM     27  H   UNL     1       6.618   7.179  15.705  0.00  0.00    +0.000 HD
ENDBRANCH  21  22
ENDBRANCH  20  21
ENDBRANCH   6  20
TORSDOF 7
ENDMDL
MODEL 6
REMARK VINA RESULT:      -8.0      3.539      7.066
REMARK  Name = 
REMARK  8 active torsions:
REMARK  status: ('A' for Active; 'I' for Inactive)
REMARK    1  A    between atoms: C_1  and  C_2
REMARK    2  A    between atoms: C_4  and  N_5
REMARK    3  A    between atoms: C_7  and  C_8
REMARK    4  A    between atoms: C_8  and  C_9
REMARK    5  A    between atoms: C_9  and  C_10
REMARK    6  A    between atoms: C_15  and  C_16
REMARK    7  A    between atoms: C_16  and  C_17
REMARK    8  A    between atoms: C_17  and  C_18
REMARK                            x       y       z     vdW  Elec       q    Type
REMARK                         _______ _______ _______ _____ _____    ______ ____
ROOT
ATOM      1  C   UNL     1       3.718   6.503  17.673  0.00  0.00    +0.000 A 
ATOM      2  C   UNL     1       4.951   6.786  17.069  0.00  0.00    +0.000 A 
ATOM      3  C   UNL     1       5.759   5.748  16.615  0.00  0.00    +0.000 A 
ATOM      4  F   UNL     1       6.924   6.034  16.022  0.00  0.00    +0.000 F 
ATOM      5  C   UNL     1       5.376   4.419  16.759  0.00  0.00    +0.000 A 
ATOM      6  C   UNL     1       4.166   4.105  17.388  0.00  0.00    +0.000 A 
ATOM      7  C   UNL     1       3.353   5.156  17.842  0.00  0.00    +0.000 A 
ENDROOT
BRANCH   1   8
ATOM      8  C   UNL     1       2.804   7.582  18.213  0.00  0.00    +0.000 C 
BRANCH   8   9
ATOM      9  C   UNL     1       2.275   7.359  19.634  0.00  0.00    +0.000 C 
BRANCH   9  15
ATOM     10  C   UNL     1      -0.402   9.815  23.112  0.00  0.00    +0.000 C 
ATOM     11  C   UNL     1       0.104   9.674  21.709  0.00  0.00    +0.000 A 
ATOM     12  C   UNL     1      -0.179  10.633  20.733  0.00  0.00    +0.000 A 
ATOM     13  C   UNL     1       0.325  10.462  19.452  0.00  0.00    +0.000 A 
ATOM     14  N   UNL     1       1.092   9.418  19.102  0.00  0.00    +0.000 NA
ATOM     15  C   UNL     1       1.368   8.487  20.049  0.00  0.00    +0.000 A 
ATOM     16  C   UNL     1       0.893   8.580  21.353  0.00  0.00    +0.000 A 
BRANCH  13  17
ATOM     17  N   UNL     1       0.098  11.416  18.464  0.00  0.00    +0.000 N 
ATOM     18  H   UNL     1      -0.517  11.070  17.740  0.00  0.00    +0.000 HD
ATOM     19  H   UNL     1       1.011  11.675  18.098  0.00  0.00    +0.000 HD
ENDBRANCH  13  17
ENDBRANCH   9  15
ENDBRANCH   8   9
ENDBRANCH   1   8
BRANCH   6  20
ATOM     20  C   UNL     1       3.710   2.669  17.534  0.00  0.00    +0.000 C 
BRANCH  20  21
ATOM     21  C   UNL     1       2.212   2.519  17.816  0.00  0.00    +0.000 C 
BRANCH  21  22
ATOM     22  C   UNL     1       1.925   2.219  19.290  0.00  0.00    +0.000 C 
ATOM     23  C   UNL     1       0.961   3.184  19.962  0.00  0.00    +0.000 C 
ATOM     24  C   UNL     1       1.251   2.966  21.436  0.00  0.00    +0.000 C 
ATOM     25  C   UNL     1       2.730   2.614  21.482  0.00  0.00    +0.000 C 
ATOM     26  N   UNL     1       3.141   2.373  20.097  0.00  0.00    +0.000 NA
ATOM     27  H   UNL     1       3.736   1.549  20.028  0.00  0.00    +0.000 HD
ENDBRANCH  21  22
ENDBRANCH  20  21
ENDBRANCH   6  20
TORSDOF 7
ENDMDL
MODEL 7
REMARK VINA RESULT:      -8.0      2.746      4.458
REMARK  Name = 
REMARK  8 active torsions:
REMARK  status: ('A' for Active; 'I' for Inactive)
REMARK    1  A    between atoms: C_1  and  C_2
REMARK    2  A    between atoms: C_4  and  N_5
REMARK    3  A    between atoms: C_7  and  C_8
REMARK    4  A    between atoms: C_8  and  C_9
REMARK    5  A    between atoms: C_9  and  C_10
REMARK    6  A    between atoms: C_15  and  C_16
REMARK    7  A    between atoms: C_16  and  C_17
REMARK    8  A    between atoms: C_17  and  C_18
REMARK                            x       y       z     vdW  Elec       q    Type
REMARK                         _______ _______ _______ _____ _____    ______ ____
ROOT
ATOM      1  C   UNL     1       3.631   4.926  17.595  0.00  0.00    +0.000 A 
ATOM      2  C   UNL     1       3.152   3.613  17.496  0.00  0.00    +0.000 A 
ATOM      3  C   UNL     1       2.157   3.166  18.360  0.00  0.00    +0.000 A 
ATOM      4  F   UNL     1       1.695   1.916  18.241  0.00  0.00    +0.000 F 
ATOM      5  C   UNL     1       1.628   3.997  19.342  0.00  0.00    +0.000 A 
ATOM      6  C   UNL     1       2.110   5.303  19.486  0.00  0.00    +0.000 A 
ATOM      7  C   UNL     1       3.112   5.749  18.610  0.00  0.00    +0.000 A 
ENDROOT
BRANCH   1   8
ATOM      8  C   UNL     1       4.730   5.466  16.705  0.00  0.00    +0.000 C 
BRANCH   8   9
ATOM      9  C   UNL     1       5.961   4.567  16.545  0.00  0.00    +0.000 C 
BRANCH   9  15
ATOM     10  C   UNL     1       5.212   2.906  11.857  0.00  0.00    +0.000 C 
ATOM     11  C   UNL     1       6.002   3.696  12.854  0.00  0.00    +0.000 A 
ATOM     12  C   UNL     1       7.112   4.453  12.469  0.00  0.00    +0.000 A 
ATOM     13  C   UNL     1       7.802   5.178  13.430  0.00  0.00    +0.000 A 
ATOM     14  N   UNL     1       7.443   5.203  14.722  0.00  0.00    +0.000 NA
ATOM     15  C   UNL     1       6.365   4.471  15.097  0.00  0.00    +0.000 A 
ATOM     16  C   UNL     1       5.626   3.709  14.197  0.00  0.00    +0.000 A 
BRANCH  13  17
ATOM     17  N   UNL     1       8.888   5.974  13.077  0.00  0.00    +0.000 N 
ATOM     18  H   UNL     1       8.796   6.341  12.139  0.00  0.00    +0.000 HD
ATOM     19  H   UNL     1       9.716   5.395  13.181  0.00  0.00    +0.000 HD
ENDBRANCH  13  17
ENDBRANCH   9  15
ENDBRANCH   8   9
ENDBRANCH   1   8
BRANCH   6  20
ATOM     20  C   UNL     1       1.533   6.238  20.527  0.00  0.00    +0.000 C 
BRANCH  20  21
ATOM     21  C   UNL     1       1.795   7.721  20.242  0.00  0.00    +0.000 C 
BRANCH  21  22
ATOM     22  C   UNL     1       1.252   8.630  21.349  0.00  0.00    +0.000 C 
ATOM     23  C   UNL     1      -0.159   8.300  21.811  0.00  0.00    +0.000 C 
ATOM     24  C   UNL     1      -0.593   9.587  22.490  0.00  0.00    +0.000 C 
ATOM     25  C   UNL     1       0.129  10.681  21.718  0.00  0.00    +0.000 C 
ATOM     26  N   UNL     1       1.113  10.008  20.867  0.00  0.00    +0.000 NA
ATOM     27  H   UNL     1       2.008  10.496  20.883  0.00  0.00    +0.000 HD
ENDBRANCH  21  22
ENDBRANCH  20  21
ENDBRANCH   6  20
TORSDOF 7
ENDMDL
MODEL 8
REMARK VINA RESULT:      -7.9      3.646      7.754
REMARK  Name = 
REMARK  8 active torsions:
REMARK  status: ('A' for Active; 'I' for Inactive)
REMARK    1  A    between atoms: C_1  and  C_2
REMARK    2  A    between atoms: C_4  and  N_5
REMARK    3  A    between atoms: C_7  and  C_8
REMARK    4  A    between atoms: C_8  and  C_9
REMARK    5  A    between atoms: C_9  and  C_10
REMARK    6  A    between atoms: C_15  and  C_16
REMARK    7  A    between atoms: C_16  and  C_17
REMARK    8  A    between atoms: C_17  and  C_18
REMARK                            x       y       z     vdW  Elec       q    Type
REMARK                         _______ _______ _______ _____ _____    ______ ____
ROOT
ATOM      1  C   UNL     1       2.719   5.808  18.589  0.00  0.00    +0.000 A 
ATOM      2  C   UNL     1       2.039   4.603  18.814  0.00  0.00    +0.000 A 
ATOM      3  C   UNL     1       2.371   3.468  18.081  0.00  0.00    +0.000 A 
ATOM      4  F   UNL     1       1.726   2.319  18.321  0.00  0.00    +0.000 F 
ATOM      5  C   UNL     1       3.364   3.501  17.108  0.00  0.00    +0.000 A 
ATOM      6  C   UNL     1       4.037   4.698  16.838  0.00  0.00    +0.000 A 
ATOM      7  C   UNL     1       3.701   5.840  17.583  0.00  0.00    +0.000 A 
ENDROOT
BRANCH   1   8
ATOM      8  C   UNL     1       2.390   7.085  19.331  0.00  0.00    +0.000 C 
BRANCH   8   9
ATOM      9  C   UNL     1       2.142   8.319  18.457  0.00  0.00    +0.000 C 
BRANCH   9  15
ATOM     10  C   UNL     1      -0.298   9.965  22.536  0.00  0.00    +0.000 C 
ATOM     11  C   UNL     1       0.029  10.066  21.077  0.00  0.00    +0.000 A 
ATOM     12  C   UNL     1      -0.482  11.098  20.286  0.00  0.00    +0.000 A 
ATOM     13  C   UNL     1      -0.137  11.154  18.943  0.00  0.00    +0.000 A 
ATOM     14  N   UNL     1       0.684  10.265  18.363  0.00  0.00    +0.000 NA
ATOM     15  C   UNL     1       1.181   9.264  19.130  0.00  0.00    +0.000 A 
ATOM     16  C   UNL     1       0.877   9.133  20.481  0.00  0.00    +0.000 A 
BRANCH  13  17
ATOM     17  N   UNL     1      -0.595  12.189  18.134  0.00  0.00    +0.000 N 
ATOM     18  H   UNL     1      -1.319  12.731  18.588  0.00  0.00    +0.000 HD
ATOM     19  H   UNL     1      -0.923  11.759  17.273  0.00  0.00    +0.000 HD
ENDBRANCH  13  17
ENDBRANCH   9  15
ENDBRANCH   8   9
ENDBRANCH   1   8
BRANCH   6  20
ATOM     20  C   UNL     1       5.141   4.757  15.806  0.00  0.00    +0.000 C 
BRANCH  20  21
ATOM     21  C   UNL     1       6.439   4.069  16.243  0.00  0.00    +0.000 C 
BRANCH  21  22
ATOM     22  C   UNL     1       7.402   5.035  16.940  0.00  0.00    +0.000 C 
ATOM     23  C   UNL     1       7.228   5.132  18.448  0.00  0.00    +0.000 C 
ATOM     24  C   UNL     1       7.911   6.448  18.774  0.00  0.00    +0.000 C 
ATOM     25  C   UNL     1       7.682   7.307  17.540  0.00  0.00    +0.000 C 
ATOM     26  N   UNL     1       7.161   6.414  16.503  0.00  0.00    +0.000 NA
ATOM     27  H   UNL     1       7.603   6.598  15.603  0.00  0.00    +0.000 HD
ENDBRANCH  21  22
ENDBRANCH  20  21
ENDBRANCH   6  20
TORSDOF 7
ENDMDL
MODEL 9
REMARK VINA RESULT:      -7.9      3.535      7.309
REMARK  Name = 
REMARK  8 active torsions:
REMARK  status: ('A' for Active; 'I' for Inactive)
REMARK    1  A    between atoms: C_1  and  C_2
REMARK    2  A    between atoms: C_4  and  N_5
REMARK    3  A    between atoms: C_7  and  C_8
REMARK    4  A    between atoms: C_8  and  C_9
REMARK    5  A    between atoms: C_9  and  C_10
REMARK    6  A    between atoms: C_15  and  C_16
REMARK    7  A    between atoms: C_16  and  C_17
REMARK    8  A    between atoms: C_17  and  C_18
REMARK                            x       y       z     vdW  Elec       q    Type
REMARK                         _______ _______ _______ _____ _____    ______ ____
ROOT
ATOM      1  C   UNL     1       3.290   6.661  17.822  0.00  0.00    +0.000 A 
ATOM      2  C   UNL     1       4.555   6.829  17.243  0.00  0.00    +0.000 A 
ATOM      3  C   UNL     1       5.204   5.745  16.660  0.00  0.00    +0.000 A 
ATOM      4  F   UNL     1       6.404   5.924  16.093  0.00  0.00    +0.000 F 
ATOM      5  C   UNL     1       4.628   4.480  16.648  0.00  0.00    +0.000 A 
ATOM      6  C   UNL     1       3.380   4.275  17.248  0.00  0.00    +0.000 A 
ATOM      7  C   UNL     1       2.728   5.373  17.832  0.00  0.00    +0.000 A 
ENDROOT
BRANCH   1   8
ATOM      8  C   UNL     1       2.542   7.791  18.496  0.00  0.00    +0.000 C 
BRANCH   8   9
ATOM      9  C   UNL     1       2.095   7.528  19.939  0.00  0.00    +0.000 C 
BRANCH   9  15
ATOM     10  C   UNL     1      -0.668  11.654  19.142  0.00  0.00    +0.000 C 
ATOM     11  C   UNL     1      -0.121  10.602  20.058  0.00  0.00    +0.000 A 
ATOM     12  C   UNL     1      -0.473  10.560  21.410  0.00  0.00    +0.000 A 
ATOM     13  C   UNL     1       0.050   9.556  22.212  0.00  0.00    +0.000 A 
ATOM     14  N   UNL     1       0.874   8.605  21.747  0.00  0.00    +0.000 NA
ATOM     15  C   UNL     1       1.214   8.644  20.436  0.00  0.00    +0.000 A 
ATOM     16  C   UNL     1       0.740   9.621  19.567  0.00  0.00    +0.000 A 
BRANCH  13  17
ATOM     17  N   UNL     1      -0.308   9.459  23.554  0.00  0.00    +0.000 N 
ATOM     18  H   UNL     1      -1.306   9.331  23.668  0.00  0.00    +0.000 HD
ATOM     19  H   UNL     1       0.022  10.308  24.003  0.00  0.00    +0.000 HD
ENDBRANCH  13  17
ENDBRANCH   9  15
ENDBRANCH   8   9
ENDBRANCH   1   8
BRANCH   6  20
ATOM     20  C   UNL     1       2.717   2.915  17.226  0.00  0.00    +0.000 C 
BRANCH  20  21
ATOM     21  C   UNL     1       3.303   1.922  18.234  0.00  0.00    +0.000 C 
BRANCH  21  22
ATOM     22  C   UNL     1       2.606   1.996  19.596  0.00  0.00    +0.000 C 
ATOM     23  C   UNL     1       1.218   2.616  19.570  0.00  0.00    +0.000 C 
ATOM     24  C   UNL     1       1.003   3.003  21.022  0.00  0.00    +0.000 C 
ATOM     25  C   UNL     1       2.395   3.343  21.531  0.00  0.00    +0.000 C 
ATOM     26  N   UNL     1       3.335   2.889  20.504  0.00  0.00    +0.000 NA
ATOM     27  H   UNL     1       4.136   2.416  20.922  0.00  0.00    +0.000 HD
ENDBRANCH  21  22
ENDBRANCH  20  21
ENDBRANCH   6  20
TORSDOF 7
ENDMDL
