MODEL 1
REMARK VINA RESULT:      -7.8      0.000      0.000
REMARK  Name = 
REMARK  10 active torsions:
REMARK  status: ('A' for Active; 'I' for Inactive)
REMARK    1  A    between atoms: C_2  and  C_8
REMARK    2  A    between atoms: N_3  and  C_4
REMARK    3  A    between atoms: C_4  and  C_5
REMARK    4  A    between atoms: C_5  and  C_6
REMARK    5  A    between atoms: C_6  and  O_7
REMARK    6  A    between atoms: C_8  and  N_27
REMARK    7  A    between atoms: C_9  and  C_10
REMARK    8  A    between atoms: N_12  and  C_13
REMARK    9  A    between atoms: C_20  and  C_21
REMARK   10  A    between atoms: C_28  and  C_30
REMARK                            x       y       z     vdW  Elec       q    Type
REMARK                         _______ _______ _______ _____ _____    ______ ____
ROOT
ATOM      1  C   UNL     1       1.097   8.853  20.314  0.00  0.00    +0.000 C 
ATOM      2  C   UNL     1       1.176   9.515  19.141  0.00  0.00    +0.000 C 
ENDROOT
BRANCH   2   3
ATOM      3  C   UNL     1       1.019  10.906  18.911  0.00  0.00    +0.000 A 
ATOM      4  C   UNL     1       2.059  11.796  18.935  0.00  0.00    +0.000 A 
ATOM      5  N   UNL     1       1.513  13.035  18.716  0.00  0.00    +0.000 N 
ATOM      6  N   UNL     1       0.173  12.962  18.486  0.00  0.00    +0.000 NA
ATOM      7  C   UNL     1      -0.138  11.656  18.568  0.00  0.00    +0.000 A 
BRANCH   5   8
ATOM      8  C   UNL     1       2.203  14.279  18.705  0.00  0.00    +0.000 A 
ATOM      9  C   UNL     1       1.612  15.433  19.245  0.00  0.00    +0.000 A 
ATOM     10  C   UNL     1       2.297  16.649  19.221  0.00  0.00    +0.000 A 
ATOM     11  C   UNL     1       3.566  16.724  18.652  0.00  0.00    +0.000 A 
ATOM     12  C   UNL     1       4.158  15.581  18.114  0.00  0.00    +0.000 A 
ATOM     13  C   UNL     1       3.483  14.359  18.145  0.00  0.00    +0.000 A 
ENDBRANCH   5   8
BRANCH   7  14
ATOM     14  C   UNL     1      -1.497  11.177  18.300  0.00  0.00    +0.000 A 
ATOM     15  C   UNL     1      -1.749  10.081  17.468  0.00  0.00    +0.000 A 
ATOM     16  C   UNL     1      -3.057   9.673  17.216  0.00  0.00    +0.000 A 
ATOM     17  C   UNL     1      -4.089  10.383  17.802  0.00  0.00    +0.000 A 
ATOM     18  N   UNL     1      -3.899  11.445  18.613  0.00  0.00    +0.000 NA
ATOM     19  C   UNL     1      -2.610  11.816  18.840  0.00  0.00    +0.000 A 
ENDBRANCH   7  14
ENDBRANCH   2   3
BRANCH   1  21
ATOM     20  O   UNL     1       1.725   9.926  22.387  0.00  0.00    +0.000 OA
ATOM     21  C   UNL     1       0.838   9.644  21.586  0.00  0.00    +0.000 C 
ATOM     22  N   UNL     1      -0.474  10.013  21.802  0.00  0.00    +0.000 N 
ATOM     23  H   UNL     1      -1.210   9.614  21.236  0.00  0.00    +0.000 HD
BRANCH  22  24
ATOM     24  C   UNL     1      -0.840  10.671  23.049  0.00  0.00    +0.000 C 
BRANCH  24  25
ATOM     25  C   UNL     1      -1.672  11.938  22.854  0.00  0.00    +0.000 C 
BRANCH  25  26
ATOM     26  C   UNL     1      -1.029  12.974  21.936  0.00  0.00    +0.000 C 
BRANCH  26  27
ATOM     27  O   UNL     1       0.383  12.774  21.930  0.00  0.00    +0.000 OA
ATOM     28  H   UNL     1       0.680  12.781  22.855  0.00  0.00    +0.000 HD
ENDBRANCH  26  27
ENDBRANCH  25  26
ENDBRANCH  24  25
ENDBRANCH  22  24
ENDBRANCH   1  21
BRANCH   1  29
ATOM     29  N   UNL     1       1.193   7.464  20.426  0.00  0.00    +0.000 N 
ATOM     30  C   UNL     1       2.106   6.649  19.766  0.00  0.00    +0.000 C 
ATOM     31  O   UNL     1       3.020   7.033  19.041  0.00  0.00    +0.000 OA
ATOM     32  H   UNL     1       0.405   7.016  20.877  0.00  0.00    +0.000 HD
BRANCH  30  33
ATOM     33  C   UNL     1       1.929   5.181  19.897  0.00  0.00    +0.000 A 
ATOM     34  C   UNL     1       1.771   4.441  18.712  0.00  0.00    +0.000 A 
ATOM     35  C   UNL     1       1.623   3.057  18.756  0.00  0.00    +0.000 A 
ATOM     36  C   UNL     1       1.639   2.403  19.984  0.00  0.00    +0.000 A 
ATOM     37  C   UNL     1       1.817   3.129  21.165  0.00  0.00    +0.000 A 
ATOM     38  C   UNL     1       1.965   4.517  21.126  0.00  0.00    +0.000 A 
ENDBRANCH  30  33
ENDBRANCH   1  29
TORSDOF 10
ENDMDL
MODEL 2
REMARK VINA RESULT:      -7.5      0.489      1.415
REMARK  Name = 
REMARK  10 active torsions:
REMARK  status: ('A' for Active; 'I' for Inactive)
REMARK    1  A    between atoms: C_2  and  C_8
REMARK    2  A    between atoms: N_3  and  C_4
REMARK    3  A    between atoms: C_4  and  C_5
REMARK    4  A    between atoms: C_5  and  C_6
REMARK    5  A    between atoms: C_6  and  O_7
REMARK    6  A    between atoms: C_8  and  N_27
REMARK    7  A    between atoms: C_9  and  C_10
REMARK    8  A    between atoms: N_12  and  C_13
REMARK    9  A    between atoms: C_20  and  C_21
REMARK   10  A    between atoms: C_28  and  C_30
REMARK                            x       y       z     vdW  Elec       q    Type
REMARK                         _______ _______ _______ _____ _____    ______ ____
ROOT
ATOM      1  C   UNL     1       1.093   8.879  20.236  0.00  0.00    +0.000 C 
ATOM      2  C   UNL     1       1.164   9.558  19.073  0.00  0.00    +0.000 C 
ENDROOT
BRANCH   2   3
ATOM      3  C   UNL     1       1.007  10.953  18.865  0.00  0.00    +0.000 A 
ATOM      4  C   UNL     1       2.044  11.844  18.914  0.00  0.00    +0.000 A 
ATOM      5  N   UNL     1       1.498  13.086  18.712  0.00  0.00    +0.000 N 
ATOM      6  N   UNL     1       0.161  13.015  18.467  0.00  0.00    +0.000 NA
ATOM      7  C   UNL     1      -0.148  11.706  18.523  0.00  0.00    +0.000 A 
BRANCH   5   8
ATOM      8  C   UNL     1       2.186  14.331  18.729  0.00  0.00    +0.000 A 
ATOM      9  C   UNL     1       3.476  14.447  18.187  0.00  0.00    +0.000 A 
ATOM     10  C   UNL     1       4.143  15.673  18.218  0.00  0.00    +0.000 A 
ATOM     11  C   UNL     1       3.533  16.784  18.795  0.00  0.00    +0.000 A 
ATOM     12  C   UNL     1       2.252  16.676  19.335  0.00  0.00    +0.000 A 
ATOM     13  C   UNL     1       1.574  15.455  19.298  0.00  0.00    +0.000 A 
ENDBRANCH   5   8
BRANCH   7  14
ATOM     14  C   UNL     1      -1.504  11.230  18.234  0.00  0.00    +0.000 A 
ATOM     15  C   UNL     1      -2.640  11.860  18.755  0.00  0.00    +0.000 A 
ATOM     16  C   UNL     1      -3.911  11.361  18.481  0.00  0.00    +0.000 A 
ATOM     17  C   UNL     1      -4.015  10.230  17.691  0.00  0.00    +0.000 A 
ATOM     18  N   UNL     1      -2.950   9.588  17.163  0.00  0.00    +0.000 NA
ATOM     19  C   UNL     1      -1.724  10.102  17.449  0.00  0.00    +0.000 A 
ENDBRANCH   7  14
ENDBRANCH   2   3
BRANCH   1  21
ATOM     20  O   UNL     1       1.750  10.013  22.267  0.00  0.00    +0.000 OA
ATOM     21  C   UNL     1       0.844   9.651  21.522  0.00  0.00    +0.000 C 
ATOM     22  N   UNL     1      -0.480   9.905  21.818  0.00  0.00    +0.000 N 
ATOM     23  H   UNL     1      -1.211   9.439  21.299  0.00  0.00    +0.000 HD
BRANCH  22  24
ATOM     24  C   UNL     1      -0.825  10.534  23.086  0.00  0.00    +0.000 C 
BRANCH  24  25
ATOM     25  C   UNL     1      -1.591  11.847  22.930  0.00  0.00    +0.000 C 
BRANCH  25  26
ATOM     26  C   UNL     1      -1.056  12.758  21.829  0.00  0.00    +0.000 C 
BRANCH  26  27
ATOM     27  O   UNL     1       0.365  12.818  21.928  0.00  0.00    +0.000 OA
ATOM     28  H   UNL     1       0.631  12.213  22.641  0.00  0.00    +0.000 HD
ENDBRANCH  26  27
ENDBRANCH  25  26
ENDBRANCH  24  25
ENDBRANCH  22  24
ENDBRANCH   1  21
BRANCH   1  29
ATOM     29  N   UNL     1       1.188   7.488  20.326  0.00  0.00    +0.000 N 
ATOM     30  C   UNL     1       2.127   6.687  19.685  0.00  0.00    +0.000 C 
ATOM     31  O   UNL     1       3.066   7.086  19.001  0.00  0.00    +0.000 OA
ATOM     32  H   UNL     1       0.386   7.030  20.740  0.00  0.00    +0.000 HD
BRANCH  30  33
ATOM     33  C   UNL     1       1.950   5.216  19.783  0.00  0.00    +0.000 A 
ATOM     34  C   UNL     1       1.953   4.649  21.068  0.00  0.00    +0.000 A 
ATOM     35  C   UNL     1       1.770   3.279  21.238  0.00  0.00    +0.000 A 
ATOM     36  C   UNL     1       1.575   2.468  20.124  0.00  0.00    +0.000 A 
ATOM     37  C   UNL     1       1.549   3.028  18.843  0.00  0.00    +0.000 A 
ATOM     38  C   UNL     1       1.734   4.401  18.668  0.00  0.00    +0.000 A 
ENDBRANCH  30  33
ENDBRANCH   1  29
TORSDOF 10
ENDMDL
MODEL 3
REMARK VINA RESULT:      -7.2      2.680      4.404
REMARK  Name = 
REMARK  10 active torsions:
REMARK  status: ('A' for Active; 'I' for Inactive)
REMARK    1  A    between atoms: C_2  and  C_8
REMARK    2  A    between atoms: N_3  and  C_4
REMARK    3  A    between atoms: C_4  and  C_5
REMARK    4  A    between atoms: C_5  and  C_6
REMARK    5  A    between atoms: C_6  and  O_7
REMARK    6  A    between atoms: C_8  and  N_27
REMARK    7  A    between atoms: C_9  and  C_10
REMARK    8  A    between atoms: N_12  and  C_13
REMARK    9  A    between atoms: C_20  and  C_21
REMARK   10  A    between atoms: C_28  and  C_30
REMARK                            x       y       z     vdW  Elec       q    Type
REMARK                         _______ _______ _______ _____ _____    ______ ____
ROOT
ATOM      1  C   UNL     1       0.967  10.070  18.311  0.00  0.00    +0.000 C 
ATOM      2  C   UNL     1       1.643  11.161  18.726  0.00  0.00    +0.000 C 
ENDROOT
BRANCH   2   3
ATOM      3  C   UNL     1       1.118  12.424  19.100  0.00  0.00    +0.000 A 
ATOM      4  C   UNL     1       1.221  13.545  18.322  0.00  0.00    +0.000 A 
ATOM      5  N   UNL     1       0.641  14.565  19.032  0.00  0.00    +0.000 N 
ATOM      6  N   UNL     1       0.111  14.124  20.205  0.00  0.00    +0.000 NA
ATOM      7  C   UNL     1       0.365  12.803  20.245  0.00  0.00    +0.000 A 
BRANCH   5   8
ATOM      8  C   UNL     1       0.558  15.931  18.645  0.00  0.00    +0.000 A 
ATOM      9  C   UNL     1       1.709  16.644  18.273  0.00  0.00    +0.000 A 
ATOM     10  C   UNL     1       1.615  17.986  17.903  0.00  0.00    +0.000 A 
ATOM     11  C   UNL     1       0.378  18.627  17.911  0.00  0.00    +0.000 A 
ATOM     12  C   UNL     1      -0.769  17.925  18.280  0.00  0.00    +0.000 A 
ATOM     13  C   UNL     1      -0.684  16.578  18.640  0.00  0.00    +0.000 A 
ENDBRANCH   5   8
BRANCH   7  14
ATOM     14  C   UNL     1      -0.126  11.964  21.340  0.00  0.00    +0.000 A 
ATOM     15  C   UNL     1       0.554  10.815  21.760  0.00  0.00    +0.000 A 
ATOM     16  C   UNL     1       0.040  10.027  22.787  0.00  0.00    +0.000 A 
ATOM     17  C   UNL     1      -1.156  10.407  23.370  0.00  0.00    +0.000 A 
ATOM     18  N   UNL     1      -1.848  11.507  23.003  0.00  0.00    +0.000 NA
ATOM     19  C   UNL     1      -1.318  12.255  21.999  0.00  0.00    +0.000 A 
ENDBRANCH   7  14
ENDBRANCH   2   3
BRANCH   1  21
ATOM     20  O   UNL     1      -1.277   9.640  19.099  0.00  0.00    +0.000 OA
ATOM     21  C   UNL     1      -0.551  10.131  18.240  0.00  0.00    +0.000 C 
ATOM     22  N   UNL     1      -1.071  10.760  17.127  0.00  0.00    +0.000 N 
ATOM     23  H   UNL     1      -0.469  10.987  16.348  0.00  0.00    +0.000 HD
BRANCH  22  24
ATOM     24  C   UNL     1      -2.511  10.765  16.912  0.00  0.00    +0.000 C 
BRANCH  24  25
ATOM     25  C   UNL     1      -2.991   9.682  15.947  0.00  0.00    +0.000 C 
BRANCH  25  26
ATOM     26  C   UNL     1      -3.093  10.139  14.494  0.00  0.00    +0.000 C 
BRANCH  26  27
ATOM     27  O   UNL     1      -4.425   9.922  14.033  0.00  0.00    +0.000 OA
ATOM     28  H   UNL     1      -4.998   9.877  14.816  0.00  0.00    +0.000 HD
ENDBRANCH  26  27
ENDBRANCH  25  26
ENDBRANCH  24  25
ENDBRANCH  22  24
ENDBRANCH   1  21
BRANCH   1  29
ATOM     29  N   UNL     1       1.586   8.890  17.891  0.00  0.00    +0.000 N 
ATOM     30  C   UNL     1       2.091   7.891  18.715  0.00  0.00    +0.000 C 
ATOM     31  O   UNL     1       2.003   7.855  19.940  0.00  0.00    +0.000 OA
ATOM     32  H   UNL     1       1.849   8.869  16.913  0.00  0.00    +0.000 HD
BRANCH  30  33
ATOM     33  C   UNL     1       2.859   6.796  18.069  0.00  0.00    +0.000 A 
ATOM     34  C   UNL     1       4.047   7.146  17.404  0.00  0.00    +0.000 A 
ATOM     35  C   UNL     1       4.830   6.169  16.795  0.00  0.00    +0.000 A 
ATOM     36  C   UNL     1       4.435   4.836  16.852  0.00  0.00    +0.000 A 
ATOM     37  C   UNL     1       3.267   4.478  17.529  0.00  0.00    +0.000 A 
ATOM     38  C   UNL     1       2.476   5.454  18.141  0.00  0.00    +0.000 A 
ENDBRANCH  30  33
ENDBRANCH   1  29
TORSDOF 10
ENDMDL
MODEL 4
REMARK VINA RESULT:      -7.1      2.459      4.045
REMARK  Name = 
REMARK  10 active torsions:
REMARK  status: ('A' for Active; 'I' for Inactive)
REMARK    1  A    between atoms: C_2  and  C_8
REMARK    2  A    between atoms: N_3  and  C_4
REMARK    3  A    between atoms: C_4  and  C_5
REMARK    4  A    between atoms: C_5  and  C_6
REMARK    5  A    between atoms: C_6  and  O_7
REMARK    6  A    between atoms: C_8  and  N_27
REMARK    7  A    between atoms: C_9  and  C_10
REMARK    8  A    between atoms: N_12  and  C_13
REMARK    9  A    between atoms: C_20  and  C_21
REMARK   10  A    between atoms: C_28  and  C_30
REMARK                            x       y       z     vdW  Elec       q    Type
REMARK                         _______ _______ _______ _____ _____    ______ ____
ROOT
ATOM      1  C   UNL     1       1.118   9.859  18.262  0.00  0.00    +0.000 C 
ATOM      2  C   UNL     1       1.784  10.962  18.662  0.00  0.00    +0.000 C 
ENDROOT
BRANCH   2   3
ATOM      3  C   UNL     1       1.244  12.208  19.070  0.00  0.00    +0.000 A 
ATOM      4  C   UNL     1       1.294  13.340  18.301  0.00  0.00    +0.000 A 
ATOM      5  N   UNL     1       0.716  14.338  19.044  0.00  0.00    +0.000 N 
ATOM      6  N   UNL     1       0.238  13.873  20.229  0.00  0.00    +0.000 NA
ATOM      7  C   UNL     1       0.523  12.558  20.244  0.00  0.00    +0.000 A 
BRANCH   5   8
ATOM      8  C   UNL     1       0.589  15.707  18.676  0.00  0.00    +0.000 A 
ATOM      9  C   UNL     1      -0.667  16.336  18.673  0.00  0.00    +0.000 A 
ATOM     10  C   UNL     1      -0.779  17.677  18.303  0.00  0.00    +0.000 A 
ATOM     11  C   UNL     1       0.354  18.394  17.925  0.00  0.00    +0.000 A 
ATOM     12  C   UNL     1       1.604  17.774  17.925  0.00  0.00    +0.000 A 
ATOM     13  C   UNL     1       1.725  16.436  18.306  0.00  0.00    +0.000 A 
ENDBRANCH   5   8
BRANCH   7  14
ATOM     14  C   UNL     1       0.090  11.695  21.346  0.00  0.00    +0.000 A 
ATOM     15  C   UNL     1       0.789  10.536  21.703  0.00  0.00    +0.000 A 
ATOM     16  C   UNL     1       0.329   9.726  22.739  0.00  0.00    +0.000 A 
ATOM     17  C   UNL     1      -0.832  10.095  23.393  0.00  0.00    +0.000 A 
ATOM     18  N   UNL     1      -1.541  11.204  23.089  0.00  0.00    +0.000 NA
ATOM     19  C   UNL     1      -1.064  11.973  22.074  0.00  0.00    +0.000 A 
ENDBRANCH   7  14
ENDBRANCH   2   3
BRANCH   1  21
ATOM     20  O   UNL     1      -1.079   9.622  19.240  0.00  0.00    +0.000 OA
ATOM     21  C   UNL     1      -0.402   9.884  18.250  0.00  0.00    +0.000 C 
ATOM     22  N   UNL     1      -0.984  10.202  17.040  0.00  0.00    +0.000 N 
ATOM     23  H   UNL     1      -0.421  10.227  16.201  0.00  0.00    +0.000 HD
BRANCH  22  24
ATOM     24  C   UNL     1      -2.432  10.136  16.900  0.00  0.00    +0.000 C 
BRANCH  24  25
ATOM     25  C   UNL     1      -3.146  11.427  17.299  0.00  0.00    +0.000 C 
BRANCH  25  26
ATOM     26  C   UNL     1      -4.592  11.518  16.818  0.00  0.00    +0.000 C 
BRANCH  26  27
ATOM     27  O   UNL     1      -5.229  12.613  17.473  0.00  0.00    +0.000 OA
ATOM     28  H   UNL     1      -5.513  12.301  18.348  0.00  0.00    +0.000 HD
ENDBRANCH  26  27
ENDBRANCH  25  26
ENDBRANCH  24  25
ENDBRANCH  22  24
ENDBRANCH   1  21
BRANCH   1  29
ATOM     29  N   UNL     1       1.749   8.699  17.806  0.00  0.00    +0.000 N 
ATOM     30  C   UNL     1       2.276   7.686  18.600  0.00  0.00    +0.000 C 
ATOM     31  O   UNL     1       2.203   7.619  19.824  0.00  0.00    +0.000 OA
ATOM     32  H   UNL     1       2.001   8.706  16.826  0.00  0.00    +0.000 HD
BRANCH  30  33
ATOM     33  C   UNL     1       3.052   6.619  17.919  0.00  0.00    +0.000 A 
ATOM     34  C   UNL     1       4.226   7.002  17.247  0.00  0.00    +0.000 A 
ATOM     35  C   UNL     1       5.016   6.052  16.605  0.00  0.00    +0.000 A 
ATOM     36  C   UNL     1       4.641   4.712  16.636  0.00  0.00    +0.000 A 
ATOM     37  C   UNL     1       3.487   4.320  17.319  0.00  0.00    +0.000 A 
ATOM     38  C   UNL     1       2.690   5.270  17.964  0.00  0.00    +0.000 A 
ENDBRANCH  30  33
ENDBRANCH   1  29
TORSDOF 10
ENDMDL
MODEL 5
REMARK VINA RESULT:      -7.1      1.870      4.892
REMARK  Name = 
REMARK  10 active torsions:
REMARK  status: ('A' for Active; 'I' for Inactive)
REMARK    1  A    between atoms: C_2  and  C_8
REMARK    2  A    between atoms: N_3  and  C_4
REMARK    3  A    between atoms: C_4  and  C_5
REMARK    4  A    between atoms: C_5  and  C_6
REMARK    5  A    between atoms: C_6  and  O_7
REMARK    6  A    between atoms: C_8  and  N_27
REMARK    7  A    between atoms: C_9  and  C_10
REMARK    8  A    between atoms: N_12  and  C_13
REMARK    9  A    between atoms: C_20  and  C_21
REMARK   10  A    between atoms: C_28  and  C_30
REMARK                            x       y       z     vdW  Elec       q    Type
REMARK                         _______ _______ _______ _____ _____    ______ ____
ROOT
ATOM      1  C   UNL     1       0.986   8.733  20.053  0.00  0.00    +0.000 C 
ATOM      2  C   UNL     1       0.763   9.601  19.045  0.00  0.00    +0.000 C 
ENDROOT
BRANCH   2   3
ATOM      3  C   UNL     1      -0.207  10.633  18.980  0.00  0.00    +0.000 A 
ATOM      4  C   UNL     1      -1.548  10.402  18.828  0.00  0.00    +0.000 A 
ATOM      5  N   UNL     1      -2.149  11.632  18.764  0.00  0.00    +0.000 N 
ATOM      6  N   UNL     1      -1.252  12.641  18.936  0.00  0.00    +0.000 NA
ATOM      7  C   UNL     1      -0.060  12.041  19.106  0.00  0.00    +0.000 A 
BRANCH   5   8
ATOM      8  C   UNL     1      -3.532  11.894  18.557  0.00  0.00    +0.000 A 
ATOM      9  C   UNL     1      -4.133  11.639  17.313  0.00  0.00    +0.000 A 
ATOM     10  C   UNL     1      -5.489  11.908  17.122  0.00  0.00    +0.000 A 
ATOM     11  C   UNL     1      -6.249  12.439  18.161  0.00  0.00    +0.000 A 
ATOM     12  C   UNL     1      -5.658  12.694  19.398  0.00  0.00    +0.000 A 
ATOM     13  C   UNL     1      -4.305  12.417  19.601  0.00  0.00    +0.000 A 
ENDBRANCH   5   8
BRANCH   7  14
ATOM     14  C   UNL     1       1.149  12.816  19.396  0.00  0.00    +0.000 A 
ATOM     15  C   UNL     1       1.910  13.415  18.385  0.00  0.00    +0.000 A 
ATOM     16  C   UNL     1       3.070  14.120  18.699  0.00  0.00    +0.000 A 
ATOM     17  C   UNL     1       3.447  14.204  20.027  0.00  0.00    +0.000 A 
ATOM     18  N   UNL     1       2.747  13.647  21.039  0.00  0.00    +0.000 NA
ATOM     19  C   UNL     1       1.619  12.967  20.698  0.00  0.00    +0.000 A 
ENDBRANCH   7  14
ENDBRANCH   2   3
BRANCH   1  21
ATOM     20  O   UNL     1      -0.712   8.014  21.615  0.00  0.00    +0.000 OA
ATOM     21  C   UNL     1       0.143   8.842  21.314  0.00  0.00    +0.000 C 
ATOM     22  N   UNL     1       0.383   9.952  22.097  0.00  0.00    +0.000 N 
ATOM     23  H   UNL     1       0.948  10.709  21.740  0.00  0.00    +0.000 HD
BRANCH  22  24
ATOM     24  C   UNL     1      -0.456  10.204  23.262  0.00  0.00    +0.000 C 
BRANCH  24  25
ATOM     25  C   UNL     1      -1.585  11.200  23.000  0.00  0.00    +0.000 C 
BRANCH  25  26
ATOM     26  C   UNL     1      -1.139  12.660  22.976  0.00  0.00    +0.000 C 
BRANCH  26  27
ATOM     27  O   UNL     1      -1.753  13.313  21.868  0.00  0.00    +0.000 OA
ATOM     28  H   UNL     1      -2.393  13.952  22.227  0.00  0.00    +0.000 HD
ENDBRANCH  26  27
ENDBRANCH  25  26
ENDBRANCH  24  25
ENDBRANCH  22  24
ENDBRANCH   1  21
BRANCH   1  29
ATOM     29  N   UNL     1       1.921   7.697  19.989  0.00  0.00    +0.000 N 
ATOM     30  C   UNL     1       2.588   7.264  18.848  0.00  0.00    +0.000 C 
ATOM     31  O   UNL     1       2.513   7.774  17.734  0.00  0.00    +0.000 OA
ATOM     32  H   UNL     1       1.961   7.105  20.809  0.00  0.00    +0.000 HD
BRANCH  30  33
ATOM     33  C   UNL     1       3.418   6.038  18.967  0.00  0.00    +0.000 A 
ATOM     34  C   UNL     1       2.899   4.978  19.729  0.00  0.00    +0.000 A 
ATOM     35  C   UNL     1       3.612   3.789  19.866  0.00  0.00    +0.000 A 
ATOM     36  C   UNL     1       4.845   3.651  19.236  0.00  0.00    +0.000 A 
ATOM     37  C   UNL     1       5.359   4.693  18.459  0.00  0.00    +0.000 A 
ATOM     38  C   UNL     1       4.648   5.888  18.320  0.00  0.00    +0.000 A 
ENDBRANCH  30  33
ENDBRANCH   1  29
TORSDOF 10
ENDMDL
MODEL 6
REMARK VINA RESULT:      -7.1      2.500      4.294
REMARK  Name = 
REMARK  10 active torsions:
REMARK  status: ('A' for Active; 'I' for Inactive)
REMARK    1  A    between atoms: C_2  and  C_8
REMARK    2  A    between atoms: N_3  and  C_4
REMARK    3  A    between atoms: C_4  and  C_5
REMARK    4  A    between atoms: C_5  and  C_6
REMARK    5  A    between atoms: C_6  and  O_7
REMARK    6  A    between atoms: C_8  and  N_27
REMARK    7  A    between atoms: C_9  and  C_10
REMARK    8  A    between atoms: N_12  and  C_13
REMARK    9  A    between atoms: C_20  and  C_21
REMARK   10  A    between atoms: C_28  and  C_30
REMARK                            x       y       z     vdW  Elec       q    Type
REMARK                         _______ _______ _______ _____ _____    ______ ____
ROOT
ATOM      1  C   UNL     1       1.257   9.855  18.294  0.00  0.00    +0.000 C 
ATOM      2  C   UNL     1       1.892  10.977  18.692  0.00  0.00    +0.000 C 
ENDROOT
BRANCH   2   3
ATOM      3  C   UNL     1       1.318  12.205  19.109  0.00  0.00    +0.000 A 
ATOM      4  C   UNL     1       1.341  13.345  18.353  0.00  0.00    +0.000 A 
ATOM      5  N   UNL     1       0.735  14.320  19.102  0.00  0.00    +0.000 N 
ATOM      6  N   UNL     1       0.265  13.830  20.281  0.00  0.00    +0.000 NA
ATOM      7  C   UNL     1       0.584  12.523  20.284  0.00  0.00    +0.000 A 
BRANCH   5   8
ATOM      8  C   UNL     1       0.573  15.688  18.747  0.00  0.00    +0.000 A 
ATOM      9  C   UNL     1       1.682  16.477  18.399  0.00  0.00    +0.000 A 
ATOM     10  C   UNL     1       1.509  17.819  18.061  0.00  0.00    +0.000 A 
ATOM     11  C   UNL     1       0.237  18.386  18.077  0.00  0.00    +0.000 A 
ATOM     12  C   UNL     1      -0.869  17.608  18.423  0.00  0.00    +0.000 A 
ATOM     13  C   UNL     1      -0.705  16.261  18.751  0.00  0.00    +0.000 A 
ENDBRANCH   5   8
BRANCH   7  14
ATOM     14  C   UNL     1       0.169  11.639  21.376  0.00  0.00    +0.000 A 
ATOM     15  C   UNL     1       0.911  10.509  21.741  0.00  0.00    +0.000 A 
ATOM     16  C   UNL     1       0.469   9.676  22.767  0.00  0.00    +0.000 A 
ATOM     17  C   UNL     1      -0.718   9.994  23.403  0.00  0.00    +0.000 A 
ATOM     18  N   UNL     1      -1.468  11.072  23.090  0.00  0.00    +0.000 NA
ATOM     19  C   UNL     1      -1.007  11.865  22.085  0.00  0.00    +0.000 A 
ENDBRANCH   7  14
ENDBRANCH   2   3
BRANCH   1  21
ATOM     20  O   UNL     1      -0.923   9.550  19.292  0.00  0.00    +0.000 OA
ATOM     21  C   UNL     1      -0.263   9.835  18.296  0.00  0.00    +0.000 C 
ATOM     22  N   UNL     1      -0.866  10.136  17.092  0.00  0.00    +0.000 N 
ATOM     23  H   UNL     1      -0.312  10.180  16.247  0.00  0.00    +0.000 HD
BRANCH  22  24
ATOM     24  C   UNL     1      -2.313  10.027  16.965  0.00  0.00    +0.000 C 
BRANCH  24  25
ATOM     25  C   UNL     1      -2.794   9.897  15.520  0.00  0.00    +0.000 C 
BRANCH  25  26
ATOM     26  C   UNL     1      -3.992  10.779  15.178  0.00  0.00    +0.000 C 
BRANCH  26  27
ATOM     27  O   UNL     1      -4.109  11.804  16.162  0.00  0.00    +0.000 OA
ATOM     28  H   UNL     1      -4.841  12.383  15.892  0.00  0.00    +0.000 HD
ENDBRANCH  26  27
ENDBRANCH  25  26
ENDBRANCH  24  25
ENDBRANCH  22  24
ENDBRANCH   1  21
BRANCH   1  29
ATOM     29  N   UNL     1       1.918   8.717  17.827  0.00  0.00    +0.000 N 
ATOM     30  C   UNL     1       2.368   7.655  18.603  0.00  0.00    +0.000 C 
ATOM     31  O   UNL     1       2.187   7.518  19.810  0.00  0.00    +0.000 OA
ATOM     32  H   UNL     1       2.256   8.778  16.875  0.00  0.00    +0.000 HD
BRANCH  30  33
ATOM     33  C   UNL     1       3.195   6.620  17.931  0.00  0.00    +0.000 A 
ATOM     34  C   UNL     1       2.743   5.291  17.993  0.00  0.00    +0.000 A 
ATOM     35  C   UNL     1       3.454   4.271  17.367  0.00  0.00    +0.000 A 
ATOM     36  C   UNL     1       4.619   4.574  16.669  0.00  0.00    +0.000 A 
ATOM     37  C   UNL     1       5.064   5.896  16.584  0.00  0.00    +0.000 A 
ATOM     38  C   UNL     1       4.354   6.923  17.212  0.00  0.00    +0.000 A 
ENDBRANCH  30  33
ENDBRANCH   1  29
TORSDOF 10
ENDMDL
MODEL 7
REMARK VINA RESULT:      -7.1      2.389      4.042
REMARK  Name = 
REMARK  10 active torsions:
REMARK  status: ('A' for Active; 'I' for Inactive)
REMARK    1  A    between atoms: C_2  and  C_8
REMARK    2  A    between atoms: N_3  and  C_4
REMARK    3  A    between atoms: C_4  and  C_5
REMARK    4  A    between atoms: C_5  and  C_6
REMARK    5  A    between atoms: C_6  and  O_7
REMARK    6  A    between atoms: C_8  and  N_27
REMARK    7  A    between atoms: C_9  and  C_10
REMARK    8  A    between atoms: N_12  and  C_13
REMARK    9  A    between atoms: C_20  and  C_21
REMARK   10  A    between atoms: C_28  and  C_30
REMARK                            x       y       z     vdW  Elec       q    Type
REMARK                         _______ _______ _______ _____ _____    ______ ____
ROOT
ATOM      1  C   UNL     1       0.656  10.431  19.410  0.00  0.00    +0.000 C 
ATOM      2  C   UNL     1       1.203  11.602  19.797  0.00  0.00    +0.000 C 
ENDROOT
BRANCH   2   3
ATOM      3  C   UNL     1       0.653  12.904  19.678  0.00  0.00    +0.000 A 
ATOM      4  C   UNL     1       1.058  13.811  18.737  0.00  0.00    +0.000 A 
ATOM      5  N   UNL     1       0.337  14.955  18.965  0.00  0.00    +0.000 N 
ATOM      6  N   UNL     1      -0.563  14.791  19.973  0.00  0.00    +0.000 NA
ATOM      7  C   UNL     1      -0.405  13.524  20.397  0.00  0.00    +0.000 A 
BRANCH   5   8
ATOM      8  C   UNL     1       0.454  16.188  18.266  0.00  0.00    +0.000 A 
ATOM      9  C   UNL     1       1.703  16.642  17.813  0.00  0.00    +0.000 A 
ATOM     10  C   UNL     1       1.805  17.858  17.136  0.00  0.00    +0.000 A 
ATOM     11  C   UNL     1       0.668  18.631  16.915  0.00  0.00    +0.000 A 
ATOM     12  C   UNL     1      -0.577  18.186  17.362  0.00  0.00    +0.000 A 
ATOM     13  C   UNL     1      -0.687  16.965  18.031  0.00  0.00    +0.000 A 
ENDBRANCH   5   8
BRANCH   7  14
ATOM     14  C   UNL     1      -1.264  12.955  21.439  0.00  0.00    +0.000 A 
ATOM     15  C   UNL     1      -2.639  13.211  21.490  0.00  0.00    +0.000 A 
ATOM     16  C   UNL     1      -3.419  12.675  22.513  0.00  0.00    +0.000 A 
ATOM     17  C   UNL     1      -2.796  11.896  23.471  0.00  0.00    +0.000 A 
ATOM     18  N   UNL     1      -1.475  11.618  23.465  0.00  0.00    +0.000 NA
ATOM     19  C   UNL     1      -0.743  12.155  22.452  0.00  0.00    +0.000 A 
ENDBRANCH   7  14
ENDBRANCH   2   3
BRANCH   1  21
ATOM     20  O   UNL     1      -1.758  10.546  19.453  0.00  0.00    +0.000 OA
ATOM     21  C   UNL     1      -0.731  10.440  18.788  0.00  0.00    +0.000 C 
ATOM     22  N   UNL     1      -0.770  10.297  17.416  0.00  0.00    +0.000 N 
ATOM     23  H   UNL     1       0.063  10.023  16.913  0.00  0.00    +0.000 HD
BRANCH  22  24
ATOM     24  C   UNL     1      -2.056  10.176  16.742  0.00  0.00    +0.000 C 
BRANCH  24  25
ATOM     25  C   UNL     1      -2.850  11.480  16.697  0.00  0.00    +0.000 C 
BRANCH  25  26
ATOM     26  C   UNL     1      -4.364  11.291  16.651  0.00  0.00    +0.000 C 
BRANCH  26  27
ATOM     27  O   UNL     1      -4.995  12.552  16.859  0.00  0.00    +0.000 OA
ATOM     28  H   UNL     1      -5.949  12.425  16.724  0.00  0.00    +0.000 HD
ENDBRANCH  26  27
ENDBRANCH  25  26
ENDBRANCH  24  25
ENDBRANCH  22  24
ENDBRANCH   1  21
BRANCH   1  29
ATOM     29  N   UNL     1       1.314   9.202  19.504  0.00  0.00    +0.000 N 
ATOM     30  C   UNL     1       2.014   8.567  18.484  0.00  0.00    +0.000 C 
ATOM     31  O   UNL     1       2.226   9.024  17.364  0.00  0.00    +0.000 OA
ATOM     32  H   UNL     1       1.091   8.658  20.328  0.00  0.00    +0.000 HD
BRANCH  30  33
ATOM     33  C   UNL     1       2.499   7.188  18.745  0.00  0.00    +0.000 A 
ATOM     34  C   UNL     1       3.331   6.602  17.776  0.00  0.00    +0.000 A 
ATOM     35  C   UNL     1       3.842   5.320  17.963  0.00  0.00    +0.000 A 
ATOM     36  C   UNL     1       3.530   4.619  19.124  0.00  0.00    +0.000 A 
ATOM     37  C   UNL     1       2.720   5.203  20.102  0.00  0.00    +0.000 A 
ATOM     38  C   UNL     1       2.204   6.488  19.918  0.00  0.00    +0.000 A 
ENDBRANCH  30  33
ENDBRANCH   1  29
TORSDOF 10
ENDMDL
MODEL 8
REMARK VINA RESULT:      -7.0      1.916      4.847
REMARK  Name = 
REMARK  10 active torsions:
REMARK  status: ('A' for Active; 'I' for Inactive)
REMARK    1  A    between atoms: C_2  and  C_8
REMARK    2  A    between atoms: N_3  and  C_4
REMARK    3  A    between atoms: C_4  and  C_5
REMARK    4  A    between atoms: C_5  and  C_6
REMARK    5  A    between atoms: C_6  and  O_7
REMARK    6  A    between atoms: C_8  and  N_27
REMARK    7  A    between atoms: C_9  and  C_10
REMARK    8  A    between atoms: N_12  and  C_13
REMARK    9  A    between atoms: C_20  and  C_21
REMARK   10  A    between atoms: C_28  and  C_30
REMARK                            x       y       z     vdW  Elec       q    Type
REMARK                         _______ _______ _______ _____ _____    ______ ____
ROOT
ATOM      1  C   UNL     1       1.024   8.758  20.017  0.00  0.00    +0.000 C 
ATOM      2  C   UNL     1       0.784   9.644  19.029  0.00  0.00    +0.000 C 
ENDROOT
BRANCH   2   3
ATOM      3  C   UNL     1      -0.193  10.672  18.996  0.00  0.00    +0.000 A 
ATOM      4  C   UNL     1      -1.534  10.434  18.852  0.00  0.00    +0.000 A 
ATOM      5  N   UNL     1      -2.143  11.662  18.820  0.00  0.00    +0.000 N 
ATOM      6  N   UNL     1      -1.252  12.673  19.007  0.00  0.00    +0.000 NA
ATOM      7  C   UNL     1      -0.054  12.078  19.152  0.00  0.00    +0.000 A 
BRANCH   5   8
ATOM      8  C   UNL     1      -3.530  11.918  18.632  0.00  0.00    +0.000 A 
ATOM      9  C   UNL     1      -4.297  12.508  19.650  0.00  0.00    +0.000 A 
ATOM     10  C   UNL     1      -5.658  12.747  19.455  0.00  0.00    +0.000 A 
ATOM     11  C   UNL     1      -6.263  12.392  18.252  0.00  0.00    +0.000 A 
ATOM     12  C   UNL     1      -5.508  11.806  17.236  0.00  0.00    +0.000 A 
ATOM     13  C   UNL     1      -4.143  11.574  17.421  0.00  0.00    +0.000 A 
ENDBRANCH   5   8
BRANCH   7  14
ATOM     14  C   UNL     1       1.153  12.854  19.448  0.00  0.00    +0.000 A 
ATOM     15  C   UNL     1       1.958  13.392  18.437  0.00  0.00    +0.000 A 
ATOM     16  C   UNL     1       3.113  14.101  18.759  0.00  0.00    +0.000 A 
ATOM     17  C   UNL     1       3.441  14.249  20.094  0.00  0.00    +0.000 A 
ATOM     18  N   UNL     1       2.697  13.752  21.106  0.00  0.00    +0.000 NA
ATOM     19  C   UNL     1       1.575  13.067  20.758  0.00  0.00    +0.000 A 
ENDBRANCH   7  14
ENDBRANCH   2   3
BRANCH   1  21
ATOM     20  O   UNL     1      -0.640   7.987  21.592  0.00  0.00    +0.000 OA
ATOM     21  C   UNL     1       0.195   8.835  21.289  0.00  0.00    +0.000 C 
ATOM     22  N   UNL     1       0.422   9.941  22.082  0.00  0.00    +0.000 N 
ATOM     23  H   UNL     1       0.968  10.714  21.727  0.00  0.00    +0.000 HD
BRANCH  22  24
ATOM     24  C   UNL     1      -0.407  10.163  23.260  0.00  0.00    +0.000 C 
BRANCH  24  25
ATOM     25  C   UNL     1      -1.563  11.134  23.022  0.00  0.00    +0.000 C 
BRANCH  25  26
ATOM     26  C   UNL     1      -1.153  12.604  23.001  0.00  0.00    +0.000 C 
BRANCH  26  27
ATOM     27  O   UNL     1      -1.846  13.263  21.944  0.00  0.00    +0.000 OA
ATOM     28  H   UNL     1      -1.987  12.610  21.238  0.00  0.00    +0.000 HD
ENDBRANCH  26  27
ENDBRANCH  25  26
ENDBRANCH  24  25
ENDBRANCH  22  24
ENDBRANCH   1  21
BRANCH   1  29
ATOM     29  N   UNL     1       1.966   7.730  19.921  0.00  0.00    +0.000 N 
ATOM     30  C   UNL     1       2.543   7.254  18.750  0.00  0.00    +0.000 C 
ATOM     31  O   UNL     1       2.372   7.714  17.624  0.00  0.00    +0.000 OA
ATOM     32  H   UNL     1       2.079   7.174  20.760  0.00  0.00    +0.000 HD
BRANCH  30  33
ATOM     33  C   UNL     1       3.397   6.043  18.853  0.00  0.00    +0.000 A 
ATOM     34  C   UNL     1       4.624   6.057  18.167  0.00  0.00    +0.000 A 
ATOM     35  C   UNL     1       5.486   4.966  18.236  0.00  0.00    +0.000 A 
ATOM     36  C   UNL     1       5.131   3.857  18.997  0.00  0.00    +0.000 A 
ATOM     37  C   UNL     1       3.923   3.843  19.700  0.00  0.00    +0.000 A 
ATOM     38  C   UNL     1       3.054   4.935  19.632  0.00  0.00    +0.000 A 
ENDBRANCH  30  33
ENDBRANCH   1  29
TORSDOF 10
ENDMDL
MODEL 9
REMARK VINA RESULT:      -6.9      2.385      4.628
REMARK  Name = 
REMARK  10 active torsions:
REMARK  status: ('A' for Active; 'I' for Inactive)
REMARK    1  A    between atoms: C_2  and  C_8
REMARK    2  A    between atoms: N_3  and  C_4
REMARK    3  A    between atoms: C_4  and  C_5
REMARK    4  A    between atoms: C_5  and  C_6
REMARK    5  A    between atoms: C_6  and  O_7
REMARK    6  A    between atoms: C_8  and  N_27
REMARK    7  A    between atoms: C_9  and  C_10
REMARK    8  A    between atoms: N_12  and  C_13
REMARK    9  A    between atoms: C_20  and  C_21
REMARK   10  A    between atoms: C_28  and  C_30
REMARK                            x       y       z     vdW  Elec       q    Type
REMARK                         _______ _______ _______ _____ _____    ______ ____
ROOT
ATOM      1  C   UNL     1       0.686  10.446  20.045  0.00  0.00    +0.000 C 
ATOM      2  C   UNL     1      -0.609  10.378  20.417  0.00  0.00    +0.000 C 
ENDROOT
BRANCH   2   3
ATOM      3  C   UNL     1      -1.469  11.444  20.785  0.00  0.00    +0.000 A 
ATOM      4  C   UNL     1      -1.349  12.141  21.957  0.00  0.00    +0.000 A 
ATOM      5  N   UNL     1      -2.375  13.050  21.975  0.00  0.00    +0.000 N 
ATOM      6  N   UNL     1      -3.106  13.007  20.828  0.00  0.00    +0.000 NA
ATOM      7  C   UNL     1      -2.539  12.049  20.072  0.00  0.00    +0.000 A 
BRANCH   5   8
ATOM      8  C   UNL     1      -2.686  13.961  23.022  0.00  0.00    +0.000 A 
ATOM      9  C   UNL     1      -3.974  14.510  23.138  0.00  0.00    +0.000 A 
ATOM     10  C   UNL     1      -4.263  15.409  24.165  0.00  0.00    +0.000 A 
ATOM     11  C   UNL     1      -3.273  15.773  25.074  0.00  0.00    +0.000 A 
ATOM     12  C   UNL     1      -1.991  15.232  24.964  0.00  0.00    +0.000 A 
ATOM     13  C   UNL     1      -1.698  14.323  23.945  0.00  0.00    +0.000 A 
ENDBRANCH   5   8
BRANCH   7  14
ATOM     14  C   UNL     1      -3.017  11.765  18.716  0.00  0.00    +0.000 A 
ATOM     15  C   UNL     1      -4.378  11.626  18.421  0.00  0.00    +0.000 A 
ATOM     16  C   UNL     1      -4.792  11.327  17.124  0.00  0.00    +0.000 A 
ATOM     17  C   UNL     1      -3.824  11.167  16.149  0.00  0.00    +0.000 A 
ATOM     18  N   UNL     1      -2.500  11.293  16.382  0.00  0.00    +0.000 NA
ATOM     19  C   UNL     1      -2.131  11.586  17.658  0.00  0.00    +0.000 A 
ENDBRANCH   7  14
ENDBRANCH   2   3
BRANCH   1  21
ATOM     20  O   UNL     1       1.977  12.300  20.906  0.00  0.00    +0.000 OA
ATOM     21  C   UNL     1       1.355  11.809  19.967  0.00  0.00    +0.000 C 
ATOM     22  N   UNL     1       1.203  12.481  18.772  0.00  0.00    +0.000 N 
ATOM     23  H   UNL     1       0.537  12.149  18.088  0.00  0.00    +0.000 HD
BRANCH  22  24
ATOM     24  C   UNL     1       1.707  13.842  18.643  0.00  0.00    +0.000 C 
BRANCH  24  25
ATOM     25  C   UNL     1       0.608  14.903  18.609  0.00  0.00    +0.000 C 
BRANCH  25  26
ATOM     26  C   UNL     1      -0.120  15.093  19.937  0.00  0.00    +0.000 C 
BRANCH  26  27
ATOM     27  O   UNL     1      -1.497  15.359  19.677  0.00  0.00    +0.000 OA
ATOM     28  H   UNL     1      -1.591  15.480  18.717  0.00  0.00    +0.000 HD
ENDBRANCH  26  27
ENDBRANCH  25  26
ENDBRANCH  24  25
ENDBRANCH  22  24
ENDBRANCH   1  21
BRANCH   1  29
ATOM     29  N   UNL     1       1.472   9.324  19.773  0.00  0.00    +0.000 N 
ATOM     30  C   UNL     1       1.986   8.964  18.532  0.00  0.00    +0.000 C 
ATOM     31  O   UNL     1       1.891   9.618  17.497  0.00  0.00    +0.000 OA
ATOM     32  H   UNL     1       1.498   8.630  20.510  0.00  0.00    +0.000 HD
BRANCH  30  33
ATOM     33  C   UNL     1       2.657   7.644  18.428  0.00  0.00    +0.000 A 
ATOM     34  C   UNL     1       2.276   6.651  19.346  0.00  0.00    +0.000 A 
ATOM     35  C   UNL     1       2.847   5.382  19.294  0.00  0.00    +0.000 A 
ATOM     36  C   UNL     1       3.797   5.095  18.319  0.00  0.00    +0.000 A 
ATOM     37  C   UNL     1       4.167   6.071  17.389  0.00  0.00    +0.000 A 
ATOM     38  C   UNL     1       3.598   7.346  17.438  0.00  0.00    +0.000 A 
ENDBRANCH  30  33
ENDBRANCH   1  29
TORSDOF 10
ENDMDL
