MODEL 1
REMARK VINA RESULT:      -8.3      0.000      0.000
REMARK  Name = 
REMARK  10 active torsions:
REMARK  status: ('A' for Active; 'I' for Inactive)
REMARK    1  A    between atoms: C_1  and  C_2
REMARK    2  A    between atoms: C_2  and  O_3
REMARK    3  A    between atoms: O_3  and  C_4
REMARK    4  A    between atoms: C_4  and  C_6
REMARK    5  A    between atoms: C_11  and  C_13
REMARK    6  A    between atoms: C_16  and  S_17
REMARK    7  A    between atoms: S_17  and  N_20
REMARK    8  A    between atoms: N_20  and  C_21
REMARK    9  A    between atoms: C_26  and  O_27
REMARK   10  A    between atoms: O_27  and  C_28
REMARK                            x       y       z     vdW  Elec       q    Type
REMARK                         _______ _______ _______ _____ _____    ______ ____
ROOT
ATOM      1  C   UNL     1       2.438   7.139  19.527  0.00  0.00    +0.000 A 
ATOM      2  C   UNL     1       1.826   7.595  20.705  0.00  0.00    +0.000 A 
ATOM      3  C   UNL     1       1.049   8.759  20.710  0.00  0.00    +0.000 A 
ATOM      4  C   UNL     1       0.884   9.479  19.522  0.00  0.00    +0.000 A 
ATOM      5  C   UNL     1       1.521   9.059  18.352  0.00  0.00    +0.000 A 
ATOM      6  C   UNL     1       2.333   7.919  18.371  0.00  0.00    +0.000 A 
ENDROOT
BRANCH   1  12
ATOM      7  C   UNL     1       2.967   2.476  19.015  0.00  0.00    +0.000 C 
ATOM      8  C   UNL     1       1.487   2.197  19.341  0.00  0.00    +0.000 C 
ATOM      9  C   UNL     1       0.677   3.481  19.557  0.00  0.00    +0.000 C 
ATOM     10  C   UNL     1       1.381   4.405  20.552  0.00  0.00    +0.000 C 
ATOM     11  N   UNL     1       2.734   4.685  20.074  0.00  0.00    +0.000 N 
ATOM     12  C   UNL     1       3.255   5.893  19.603  0.00  0.00    +0.000 C 
ATOM     13  O   UNL     1       4.434   5.995  19.250  0.00  0.00    +0.000 OA
ATOM     14  C   UNL     1       3.572   3.488  19.986  0.00  0.00    +0.000 C 
BRANCH   7  15
ATOM     15  C   UNL     1       3.148   2.917  17.574  0.00  0.00    +0.000 C 
ATOM     16  O   UNL     1       2.269   2.898  16.722  0.00  0.00    +0.000 OA
BRANCH  15  17
ATOM     17  O   UNL     1       4.462   3.174  17.336  0.00  0.00    +0.000 OA
BRANCH  17  19
ATOM     18  C   UNL     1       5.906   3.744  15.540  0.00  0.00    +0.000 C 
ATOM     19  C   UNL     1       4.722   4.203  16.373  0.00  0.00    +0.000 C 
ENDBRANCH  17  19
ENDBRANCH  15  17
ENDBRANCH   7  15
ENDBRANCH   1  12
BRANCH   4  20
ATOM     20  S   UNL     1      -0.062  10.995  19.508  0.00  0.00    +0.000 S 
ATOM     21  O   UNL     1       0.121  11.601  20.808  0.00  0.00    +0.000 OA
ATOM     22  O   UNL     1       0.240  11.702  18.282  0.00  0.00    +0.000 OA
BRANCH  20  23
ATOM     23  N   UNL     1      -1.663  10.412  19.477  0.00  0.00    +0.000 N 
ATOM     24  H   UNL     1      -2.145  10.874  20.253  0.00  0.00    +0.000 HD
BRANCH  23  25
ATOM     25  C   UNL     1      -2.397  10.575  18.247  0.00  0.00    +0.000 A 
ATOM     26  C   UNL     1      -1.914   9.891  17.115  0.00  0.00    +0.000 A 
ATOM     27  C   UNL     1      -2.526  10.046  15.866  0.00  0.00    +0.000 A 
ATOM     28  C   UNL     1      -3.644  10.858  15.739  0.00  0.00    +0.000 A 
ATOM     29  C   UNL     1      -4.130  11.536  16.855  0.00  0.00    +0.000 A 
ATOM     30  C   UNL     1      -3.511  11.420  18.112  0.00  0.00    +0.000 A 
BRANCH  30  31
ATOM     31  O   UNL     1      -4.078  12.276  19.017  0.00  0.00    +0.000 OA
ATOM     32  C   UNL     1      -5.447  12.135  19.329  0.00  0.00    +0.000 C 
ENDBRANCH  30  31
ENDBRANCH  23  25
ENDBRANCH  20  23
ENDBRANCH   4  20
TORSDOF 8
ENDMDL
MODEL 2
REMARK VINA RESULT:      -8.0      2.401      3.136
REMARK  Name = 
REMARK  10 active torsions:
REMARK  status: ('A' for Active; 'I' for Inactive)
REMARK    1  A    between atoms: C_1  and  C_2
REMARK    2  A    between atoms: C_2  and  O_3
REMARK    3  A    between atoms: O_3  and  C_4
REMARK    4  A    between atoms: C_4  and  C_6
REMARK    5  A    between atoms: C_11  and  C_13
REMARK    6  A    between atoms: C_16  and  S_17
REMARK    7  A    between atoms: S_17  and  N_20
REMARK    8  A    between atoms: N_20  and  C_21
REMARK    9  A    between atoms: C_26  and  O_27
REMARK   10  A    between atoms: O_27  and  C_28
REMARK                            x       y       z     vdW  Elec       q    Type
REMARK                         _______ _______ _______ _____ _____    ______ ____
ROOT
ATOM      1  C   UNL     1       2.461   7.025  19.729  0.00  0.00    +0.000 A 
ATOM      2  C   UNL     1       2.381   7.725  18.515  0.00  0.00    +0.000 A 
ATOM      3  C   UNL     1       1.661   8.921  18.419  0.00  0.00    +0.000 A 
ATOM      4  C   UNL     1       1.009   9.423  19.550  0.00  0.00    +0.000 A 
ATOM      5  C   UNL     1       1.047   8.715  20.754  0.00  0.00    +0.000 A 
ATOM      6  C   UNL     1       1.732   7.497  20.825  0.00  0.00    +0.000 A 
ENDROOT
BRANCH   1  12
ATOM      7  C   UNL     1       2.887   2.387  18.956  0.00  0.00    +0.000 C 
ATOM      8  C   UNL     1       1.393   2.129  19.228  0.00  0.00    +0.000 C 
ATOM      9  C   UNL     1       0.609   3.419  19.498  0.00  0.00    +0.000 C 
ATOM     10  C   UNL     1       1.309   4.265  20.563  0.00  0.00    +0.000 C 
ATOM     11  N   UNL     1       2.680   4.536  20.137  0.00  0.00    +0.000 N 
ATOM     12  C   UNL     1       3.244   5.756  19.752  0.00  0.00    +0.000 C 
ATOM     13  O   UNL     1       4.434   5.846  19.436  0.00  0.00    +0.000 OA
ATOM     14  C   UNL     1       3.491   3.325  20.001  0.00  0.00    +0.000 C 
BRANCH   7  15
ATOM     15  C   UNL     1       3.117   2.906  17.549  0.00  0.00    +0.000 C 
ATOM     16  O   UNL     1       2.269   2.935  16.667  0.00  0.00    +0.000 OA
BRANCH  15  17
ATOM     17  O   UNL     1       4.440   3.176  17.371  0.00  0.00    +0.000 OA
BRANCH  17  19
ATOM     18  C   UNL     1       5.894   3.761  15.590  0.00  0.00    +0.000 C 
ATOM     19  C   UNL     1       4.733   4.231  16.448  0.00  0.00    +0.000 C 
ENDBRANCH  17  19
ENDBRANCH  15  17
ENDBRANCH   7  15
ENDBRANCH   1  12
BRANCH   4  20
ATOM     20  S   UNL     1       0.041  10.922  19.446  0.00  0.00    +0.000 S 
ATOM     21  O   UNL     1       0.740  11.795  18.530  0.00  0.00    +0.000 OA
ATOM     22  O   UNL     1      -1.343  10.550  19.248  0.00  0.00    +0.000 OA
BRANCH  20  23
ATOM     23  N   UNL     1       0.260  11.592  20.999  0.00  0.00    +0.000 N 
ATOM     24  H   UNL     1       1.000  12.291  20.901  0.00  0.00    +0.000 HD
BRANCH  23  25
ATOM     25  C   UNL     1      -0.902  12.159  21.637  0.00  0.00    +0.000 A 
ATOM     26  C   UNL     1      -1.426  11.471  22.748  0.00  0.00    +0.000 A 
ATOM     27  C   UNL     1      -2.590  11.915  23.385  0.00  0.00    +0.000 A 
ATOM     28  C   UNL     1      -3.225  13.067  22.942  0.00  0.00    +0.000 A 
ATOM     29  C   UNL     1      -2.711  13.755  21.845  0.00  0.00    +0.000 A 
ATOM     30  C   UNL     1      -1.562  13.309  21.170  0.00  0.00    +0.000 A 
BRANCH  30  31
ATOM     31  O   UNL     1      -1.327  14.061  20.052  0.00  0.00    +0.000 OA
ATOM     32  C   UNL     1      -0.340  15.068  20.100  0.00  0.00    +0.000 C 
ENDBRANCH  30  31
ENDBRANCH  23  25
ENDBRANCH  20  23
ENDBRANCH   4  20
TORSDOF 8
ENDMDL
MODEL 3
REMARK VINA RESULT:      -8.0      2.738      3.715
REMARK  Name = 
REMARK  10 active torsions:
REMARK  status: ('A' for Active; 'I' for Inactive)
REMARK    1  A    between atoms: C_1  and  C_2
REMARK    2  A    between atoms: C_2  and  O_3
REMARK    3  A    between atoms: O_3  and  C_4
REMARK    4  A    between atoms: C_4  and  C_6
REMARK    5  A    between atoms: C_11  and  C_13
REMARK    6  A    between atoms: C_16  and  S_17
REMARK    7  A    between atoms: S_17  and  N_20
REMARK    8  A    between atoms: N_20  and  C_21
REMARK    9  A    between atoms: C_26  and  O_27
REMARK   10  A    between atoms: O_27  and  C_28
REMARK                            x       y       z     vdW  Elec       q    Type
REMARK                         _______ _______ _______ _____ _____    ______ ____
ROOT
ATOM      1  C   UNL     1       2.450   7.142  19.502  0.00  0.00    +0.000 A 
ATOM      2  C   UNL     1       1.834   7.605  20.675  0.00  0.00    +0.000 A 
ATOM      3  C   UNL     1       1.070   8.778  20.673  0.00  0.00    +0.000 A 
ATOM      4  C   UNL     1       0.924   9.500  19.484  0.00  0.00    +0.000 A 
ATOM      5  C   UNL     1       1.566   9.072  18.319  0.00  0.00    +0.000 A 
ATOM      6  C   UNL     1       2.364   7.923  18.345  0.00  0.00    +0.000 A 
ENDROOT
BRANCH   1  12
ATOM      7  C   UNL     1       2.915   2.467  19.038  0.00  0.00    +0.000 C 
ATOM      8  C   UNL     1       1.435   2.210  19.379  0.00  0.00    +0.000 C 
ATOM      9  C   UNL     1       0.643   3.507  19.587  0.00  0.00    +0.000 C 
ATOM     10  C   UNL     1       1.367   4.433  20.566  0.00  0.00    +0.000 C 
ATOM     11  N   UNL     1       2.719   4.690  20.074  0.00  0.00    +0.000 N 
ATOM     12  C   UNL     1       3.251   5.886  19.585  0.00  0.00    +0.000 C 
ATOM     13  O   UNL     1       4.428   5.969  19.222  0.00  0.00    +0.000 OA
ATOM     14  C   UNL     1       3.541   3.482  19.993  0.00  0.00    +0.000 C 
BRANCH   7  15
ATOM     15  C   UNL     1       3.089   2.889  17.591  0.00  0.00    +0.000 C 
ATOM     16  O   UNL     1       2.182   2.971  16.772  0.00  0.00    +0.000 OA
BRANCH  15  17
ATOM     17  O   UNL     1       4.415   2.999  17.302  0.00  0.00    +0.000 OA
BRANCH  17  19
ATOM     18  C   UNL     1       6.219   4.371  16.600  0.00  0.00    +0.000 C 
ATOM     19  C   UNL     1       4.757   4.032  16.370  0.00  0.00    +0.000 C 
ENDBRANCH  17  19
ENDBRANCH  15  17
ENDBRANCH   7  15
ENDBRANCH   1  12
BRANCH   4  20
ATOM     20  S   UNL     1      -0.004  11.027  19.461  0.00  0.00    +0.000 S 
ATOM     21  O   UNL     1      -1.290  10.713  18.879  0.00  0.00    +0.000 OA
ATOM     22  O   UNL     1       0.119  11.647  20.762  0.00  0.00    +0.000 OA
BRANCH  20  23
ATOM     23  N   UNL     1       0.838  11.934  18.289  0.00  0.00    +0.000 N 
ATOM     24  H   UNL     1       0.384  11.729  17.396  0.00  0.00    +0.000 HD
BRANCH  23  25
ATOM     25  C   UNL     1       0.930  13.357  18.504  0.00  0.00    +0.000 A 
ATOM     26  C   UNL     1      -0.279  14.067  18.637  0.00  0.00    +0.000 A 
ATOM     27  C   UNL     1      -0.283  15.459  18.781  0.00  0.00    +0.000 A 
ATOM     28  C   UNL     1       0.917  16.153  18.829  0.00  0.00    +0.000 A 
ATOM     29  C   UNL     1       2.117  15.458  18.703  0.00  0.00    +0.000 A 
ATOM     30  C   UNL     1       2.144  14.064  18.524  0.00  0.00    +0.000 A 
BRANCH  30  31
ATOM     31  O   UNL     1       3.419  13.625  18.290  0.00  0.00    +0.000 OA
ATOM     32  C   UNL     1       4.451  14.574  18.132  0.00  0.00    +0.000 C 
ENDBRANCH  30  31
ENDBRANCH  23  25
ENDBRANCH  20  23
ENDBRANCH   4  20
TORSDOF 8
ENDMDL
MODEL 4
REMARK VINA RESULT:      -7.9      1.078      1.750
REMARK  Name = 
REMARK  10 active torsions:
REMARK  status: ('A' for Active; 'I' for Inactive)
REMARK    1  A    between atoms: C_1  and  C_2
REMARK    2  A    between atoms: C_2  and  O_3
REMARK    3  A    between atoms: O_3  and  C_4
REMARK    4  A    between atoms: C_4  and  C_6
REMARK    5  A    between atoms: C_11  and  C_13
REMARK    6  A    between atoms: C_16  and  S_17
REMARK    7  A    between atoms: S_17  and  N_20
REMARK    8  A    between atoms: N_20  and  C_21
REMARK    9  A    between atoms: C_26  and  O_27
REMARK   10  A    between atoms: O_27  and  C_28
REMARK                            x       y       z     vdW  Elec       q    Type
REMARK                         _______ _______ _______ _____ _____    ______ ____
ROOT
ATOM      1  C   UNL     1       2.489   7.025  19.560  0.00  0.00    +0.000 A 
ATOM      2  C   UNL     1       1.864   7.467  20.736  0.00  0.00    +0.000 A 
ATOM      3  C   UNL     1       1.102   8.642  20.749  0.00  0.00    +0.000 A 
ATOM      4  C   UNL     1       0.967   9.385  19.572  0.00  0.00    +0.000 A 
ATOM      5  C   UNL     1       1.618   8.977  18.405  0.00  0.00    +0.000 A 
ATOM      6  C   UNL     1       2.414   7.826  18.417  0.00  0.00    +0.000 A 
ENDROOT
BRANCH   1  12
ATOM      7  C   UNL     1       2.939   2.353  19.047  0.00  0.00    +0.000 C 
ATOM      8  C   UNL     1       1.460   2.097  19.393  0.00  0.00    +0.000 C 
ATOM      9  C   UNL     1       0.673   3.393  19.617  0.00  0.00    +0.000 C 
ATOM     10  C   UNL     1       1.403   4.308  20.602  0.00  0.00    +0.000 C 
ATOM     11  N   UNL     1       2.754   4.566  20.106  0.00  0.00    +0.000 N 
ATOM     12  C   UNL     1       3.287   5.766  19.627  0.00  0.00    +0.000 C 
ATOM     13  O   UNL     1       4.463   5.849  19.259  0.00  0.00    +0.000 OA
ATOM     14  C   UNL     1       3.572   3.357  20.009  0.00  0.00    +0.000 C 
BRANCH   7  15
ATOM     15  C   UNL     1       3.108   2.789  17.604  0.00  0.00    +0.000 C 
ATOM     16  O   UNL     1       2.222   2.767  16.758  0.00  0.00    +0.000 OA
BRANCH  15  17
ATOM     17  O   UNL     1       4.421   3.048  17.354  0.00  0.00    +0.000 OA
BRANCH  17  19
ATOM     18  C   UNL     1       6.158   4.360  16.409  0.00  0.00    +0.000 C 
ATOM     19  C   UNL     1       4.672   4.052  16.363  0.00  0.00    +0.000 C 
ENDBRANCH  17  19
ENDBRANCH  15  17
ENDBRANCH   7  15
ENDBRANCH   1  12
BRANCH   4  20
ATOM     20  S   UNL     1       0.042  10.914  19.569  0.00  0.00    +0.000 S 
ATOM     21  O   UNL     1      -1.059  10.726  20.488  0.00  0.00    +0.000 OA
ATOM     22  O   UNL     1       0.980  12.007  19.709  0.00  0.00    +0.000 OA
BRANCH  20  23
ATOM     23  N   UNL     1      -0.638  10.913  18.006  0.00  0.00    +0.000 N 
ATOM     24  H   UNL     1      -0.413  10.000  17.603  0.00  0.00    +0.000 HD
BRANCH  23  25
ATOM     25  C   UNL     1      -2.051  11.183  17.907  0.00  0.00    +0.000 A 
ATOM     26  C   UNL     1      -2.644  11.901  18.963  0.00  0.00    +0.000 A 
ATOM     27  C   UNL     1      -4.021  12.149  18.980  0.00  0.00    +0.000 A 
ATOM     28  C   UNL     1      -4.816  11.713  17.929  0.00  0.00    +0.000 A 
ATOM     29  C   UNL     1      -4.235  11.006  16.878  0.00  0.00    +0.000 A 
ATOM     30  C   UNL     1      -2.860  10.717  16.857  0.00  0.00    +0.000 A 
BRANCH  30  31
ATOM     31  O   UNL     1      -2.547   9.901  15.804  0.00  0.00    +0.000 OA
ATOM     32  C   UNL     1      -3.156  10.135  14.553  0.00  0.00    +0.000 C 
ENDBRANCH  30  31
ENDBRANCH  23  25
ENDBRANCH  20  23
ENDBRANCH   4  20
TORSDOF 8
ENDMDL
MODEL 5
REMARK VINA RESULT:      -7.9      0.940      1.347
REMARK  Name = 
REMARK  10 active torsions:
REMARK  status: ('A' for Active; 'I' for Inactive)
REMARK    1  A    between atoms: C_1  and  C_2
REMARK    2  A    between atoms: C_2  and  O_3
REMARK    3  A    between atoms: O_3  and  C_4
REMARK    4  A    between atoms: C_4  and  C_6
REMARK    5  A    between atoms: C_11  and  C_13
REMARK    6  A    between atoms: C_16  and  S_17
REMARK    7  A    between atoms: S_17  and  N_20
REMARK    8  A    between atoms: N_20  and  C_21
REMARK    9  A    between atoms: C_26  and  O_27
REMARK   10  A    between atoms: O_27  and  C_28
REMARK                            x       y       z     vdW  Elec       q    Type
REMARK                         _______ _______ _______ _____ _____    ______ ____
ROOT
ATOM      1  C   UNL     1       2.566   6.779  19.931  0.00  0.00    +0.000 A 
ATOM      2  C   UNL     1       2.467   7.570  18.776  0.00  0.00    +0.000 A 
ATOM      3  C   UNL     1       1.774   8.786  18.793  0.00  0.00    +0.000 A 
ATOM      4  C   UNL     1       1.168   9.215  19.978  0.00  0.00    +0.000 A 
ATOM      5  C   UNL     1       1.224   8.417  21.124  0.00  0.00    +0.000 A 
ATOM      6  C   UNL     1       1.881   7.183  21.082  0.00  0.00    +0.000 A 
ENDROOT
BRANCH   1  12
ATOM      7  C   UNL     1       2.877   2.222  18.737  0.00  0.00    +0.000 C 
ATOM      8  C   UNL     1       1.378   1.976  18.990  0.00  0.00    +0.000 C 
ATOM      9  C   UNL     1       0.627   3.254  19.381  0.00  0.00    +0.000 C 
ATOM     10  C   UNL     1       1.349   3.982  20.516  0.00  0.00    +0.000 C 
ATOM     11  N   UNL     1       2.726   4.259  20.110  0.00  0.00    +0.000 N 
ATOM     12  C   UNL     1       3.318   5.494  19.834  0.00  0.00    +0.000 C 
ATOM     13  O   UNL     1       4.509   5.585  19.523  0.00  0.00    +0.000 OA
ATOM     14  C   UNL     1       3.506   3.046  19.859  0.00  0.00    +0.000 C 
BRANCH   7  15
ATOM     15  C   UNL     1       3.117   2.862  17.382  0.00  0.00    +0.000 C 
ATOM     16  O   UNL     1       2.273   2.971  16.501  0.00  0.00    +0.000 OA
BRANCH  15  17
ATOM     17  O   UNL     1       4.441   3.141  17.234  0.00  0.00    +0.000 OA
BRANCH  17  19
ATOM     18  C   UNL     1       5.941   3.843  15.536  0.00  0.00    +0.000 C 
ATOM     19  C   UNL     1       4.744   4.248  16.377  0.00  0.00    +0.000 C 
ENDBRANCH  17  19
ENDBRANCH  15  17
ENDBRANCH   7  15
ENDBRANCH   1  12
BRANCH   4  20
ATOM     20  S   UNL     1       0.235  10.738  20.017  0.00  0.00    +0.000 S 
ATOM     21  O   UNL     1      -1.018  10.432  20.671  0.00  0.00    +0.000 OA
ATOM     22  O   UNL     1       1.110  11.790  20.488  0.00  0.00    +0.000 OA
BRANCH  20  23
ATOM     23  N   UNL     1      -0.135  10.968  18.369  0.00  0.00    +0.000 N 
ATOM     24  H   UNL     1       0.418  10.275  17.858  0.00  0.00    +0.000 HD
BRANCH  23  25
ATOM     25  C   UNL     1      -1.525  10.893  17.993  0.00  0.00    +0.000 A 
ATOM     26  C   UNL     1      -1.886   9.910  17.052  0.00  0.00    +0.000 A 
ATOM     27  C   UNL     1      -3.200   9.811  16.583  0.00  0.00    +0.000 A 
ATOM     28  C   UNL     1      -4.176  10.669  17.071  0.00  0.00    +0.000 A 
ATOM     29  C   UNL     1      -3.828  11.642  18.006  0.00  0.00    +0.000 A 
ATOM     30  C   UNL     1      -2.507  11.780  18.466  0.00  0.00    +0.000 A 
BRANCH  30  31
ATOM     31  O   UNL     1      -2.381  12.881  19.269  0.00  0.00    +0.000 OA
ATOM     32  C   UNL     1      -3.245  13.023  20.377  0.00  0.00    +0.000 C 
ENDBRANCH  30  31
ENDBRANCH  23  25
ENDBRANCH  20  23
ENDBRANCH   4  20
TORSDOF 8
ENDMDL
MODEL 6
REMARK VINA RESULT:      -7.9      2.039      2.851
REMARK  Name = 
REMARK  10 active torsions:
REMARK  status: ('A' for Active; 'I' for Inactive)
REMARK    1  A    between atoms: C_1  and  C_2
REMARK    2  A    between atoms: C_2  and  O_3
REMARK    3  A    between atoms: O_3  and  C_4
REMARK    4  A    between atoms: C_4  and  C_6
REMARK    5  A    between atoms: C_11  and  C_13
REMARK    6  A    between atoms: C_16  and  S_17
REMARK    7  A    between atoms: S_17  and  N_20
REMARK    8  A    between atoms: N_20  and  C_21
REMARK    9  A    between atoms: C_26  and  O_27
REMARK   10  A    between atoms: O_27  and  C_28
REMARK                            x       y       z     vdW  Elec       q    Type
REMARK                         _______ _______ _______ _____ _____    ______ ____
ROOT
ATOM      1  C   UNL     1       2.455   7.027  19.704  0.00  0.00    +0.000 A 
ATOM      2  C   UNL     1       2.385   7.727  18.490  0.00  0.00    +0.000 A 
ATOM      3  C   UNL     1       1.661   8.921  18.387  0.00  0.00    +0.000 A 
ATOM      4  C   UNL     1       0.996   9.419  19.511  0.00  0.00    +0.000 A 
ATOM      5  C   UNL     1       1.023   8.711  20.715  0.00  0.00    +0.000 A 
ATOM      6  C   UNL     1       1.713   7.496  20.793  0.00  0.00    +0.000 A 
ENDROOT
BRANCH   1  12
ATOM      7  C   UNL     1       2.906   2.391  18.938  0.00  0.00    +0.000 C 
ATOM      8  C   UNL     1       1.411   2.126  19.197  0.00  0.00    +0.000 C 
ATOM      9  C   UNL     1       0.620   3.413  19.460  0.00  0.00    +0.000 C 
ATOM     10  C   UNL     1       1.307   4.263  20.530  0.00  0.00    +0.000 C 
ATOM     11  N   UNL     1       2.681   4.540  20.116  0.00  0.00    +0.000 N 
ATOM     12  C   UNL     1       3.243   5.761  19.735  0.00  0.00    +0.000 C 
ATOM     13  O   UNL     1       4.435   5.856  19.429  0.00  0.00    +0.000 OA
ATOM     14  C   UNL     1       3.498   3.332  19.987  0.00  0.00    +0.000 C 
BRANCH   7  15
ATOM     15  C   UNL     1       3.147   2.910  17.533  0.00  0.00    +0.000 C 
ATOM     16  O   UNL     1       2.321   2.891  16.630  0.00  0.00    +0.000 OA
BRANCH  15  17
ATOM     17  O   UNL     1       4.459   3.241  17.385  0.00  0.00    +0.000 OA
BRANCH  17  19
ATOM     18  C   UNL     1       5.882   3.777  15.564  0.00  0.00    +0.000 C 
ATOM     19  C   UNL     1       4.730   4.267  16.422  0.00  0.00    +0.000 C 
ENDBRANCH  17  19
ENDBRANCH  15  17
ENDBRANCH   7  15
ENDBRANCH   1  12
BRANCH   4  20
ATOM     20  S   UNL     1       0.023  10.914  19.398  0.00  0.00    +0.000 S 
ATOM     21  O   UNL     1       0.943  12.014  19.588  0.00  0.00    +0.000 OA
ATOM     22  O   UNL     1      -0.822  10.813  18.228  0.00  0.00    +0.000 OA
BRANCH  20  23
ATOM     23  N   UNL     1      -0.918  10.832  20.818  0.00  0.00    +0.000 N 
ATOM     24  H   UNL     1      -0.344  10.339  21.506  0.00  0.00    +0.000 HD
BRANCH  23  25
ATOM     25  C   UNL     1      -1.404  12.080  21.353  0.00  0.00    +0.000 A 
ATOM     26  C   UNL     1      -0.798  12.554  22.532  0.00  0.00    +0.000 A 
ATOM     27  C   UNL     1      -1.253  13.720  23.156  0.00  0.00    +0.000 A 
ATOM     28  C   UNL     1      -2.295  14.444  22.593  0.00  0.00    +0.000 A 
ATOM     29  C   UNL     1      -2.897  13.984  21.424  0.00  0.00    +0.000 A 
ATOM     30  C   UNL     1      -2.478  12.797  20.799  0.00  0.00    +0.000 A 
BRANCH  30  31
ATOM     31  O   UNL     1      -3.300  12.477  19.753  0.00  0.00    +0.000 OA
ATOM     32  C   UNL     1      -4.684  12.728  19.869  0.00  0.00    +0.000 C 
ENDBRANCH  30  31
ENDBRANCH  23  25
ENDBRANCH  20  23
ENDBRANCH   4  20
TORSDOF 8
ENDMDL
MODEL 7
REMARK VINA RESULT:      -7.8      2.577      3.253
REMARK  Name = 
REMARK  10 active torsions:
REMARK  status: ('A' for Active; 'I' for Inactive)
REMARK    1  A    between atoms: C_1  and  C_2
REMARK    2  A    between atoms: C_2  and  O_3
REMARK    3  A    between atoms: O_3  and  C_4
REMARK    4  A    between atoms: C_4  and  C_6
REMARK    5  A    between atoms: C_11  and  C_13
REMARK    6  A    between atoms: C_16  and  S_17
REMARK    7  A    between atoms: S_17  and  N_20
REMARK    8  A    between atoms: N_20  and  C_21
REMARK    9  A    between atoms: C_26  and  O_27
REMARK   10  A    between atoms: O_27  and  C_28
REMARK                            x       y       z     vdW  Elec       q    Type
REMARK                         _______ _______ _______ _____ _____    ______ ____
ROOT
ATOM      1  C   UNL     1       2.385   7.155  19.618  0.00  0.00    +0.000 A 
ATOM      2  C   UNL     1       1.802   7.628  20.803  0.00  0.00    +0.000 A 
ATOM      3  C   UNL     1       1.035   8.799  20.811  0.00  0.00    +0.000 A 
ATOM      4  C   UNL     1       0.852   9.508  19.620  0.00  0.00    +0.000 A 
ATOM      5  C   UNL     1       1.461   9.070  18.442  0.00  0.00    +0.000 A 
ATOM      6  C   UNL     1       2.263   7.923  18.456  0.00  0.00    +0.000 A 
ENDROOT
BRANCH   1  12
ATOM      7  C   UNL     1       2.923   2.511  18.960  0.00  0.00    +0.000 C 
ATOM      8  C   UNL     1       1.428   2.228  19.196  0.00  0.00    +0.000 C 
ATOM      9  C   UNL     1       0.612   3.507  19.416  0.00  0.00    +0.000 C 
ATOM     10  C   UNL     1       1.265   4.390  20.481  0.00  0.00    +0.000 C 
ATOM     11  N   UNL     1       2.642   4.680  20.086  0.00  0.00    +0.000 N 
ATOM     12  C   UNL     1       3.192   5.902  19.690  0.00  0.00    +0.000 C 
ATOM     13  O   UNL     1       4.388   6.010  19.404  0.00  0.00    +0.000 OA
ATOM     14  C   UNL     1       3.480   3.483  19.999  0.00  0.00    +0.000 C 
BRANCH   7  15
ATOM     15  C   UNL     1       3.182   3.004  17.548  0.00  0.00    +0.000 C 
ATOM     16  O   UNL     1       2.388   2.916  16.620  0.00  0.00    +0.000 OA
BRANCH  15  17
ATOM     17  O   UNL     1       4.479   3.401  17.432  0.00  0.00    +0.000 OA
BRANCH  17  19
ATOM     18  C   UNL     1       5.176   5.345  16.264  0.00  0.00    +0.000 C 
ATOM     19  C   UNL     1       4.866   3.864  16.133  0.00  0.00    +0.000 C 
ENDBRANCH  17  19
ENDBRANCH  15  17
ENDBRANCH   7  15
ENDBRANCH   1  12
BRANCH   4  20
ATOM     20  S   UNL     1      -0.080  11.032  19.609  0.00  0.00    +0.000 S 
ATOM     21  O   UNL     1      -1.450  10.670  19.319  0.00  0.00    +0.000 OA
ATOM     22  O   UNL     1       0.280  11.789  20.788  0.00  0.00    +0.000 OA
BRANCH  20  23
ATOM     23  N   UNL     1       0.514  11.799  18.207  0.00  0.00    +0.000 N 
ATOM     24  H   UNL     1      -0.298  11.947  17.602  0.00  0.00    +0.000 HD
BRANCH  23  25
ATOM     25  C   UNL     1       1.247  13.028  18.393  0.00  0.00    +0.000 A 
ATOM     26  C   UNL     1       2.648  12.965  18.274  0.00  0.00    +0.000 A 
ATOM     27  C   UNL     1       3.440  14.095  18.505  0.00  0.00    +0.000 A 
ATOM     28  C   UNL     1       2.842  15.306  18.824  0.00  0.00    +0.000 A 
ATOM     29  C   UNL     1       1.456  15.377  18.940  0.00  0.00    +0.000 A 
ATOM     30  C   UNL     1       0.643  14.247  18.745  0.00  0.00    +0.000 A 
BRANCH  30  31
ATOM     31  O   UNL     1      -0.663  14.525  19.044  0.00  0.00    +0.000 OA
ATOM     32  C   UNL     1      -0.967  15.136  20.279  0.00  0.00    +0.000 C 
ENDBRANCH  30  31
ENDBRANCH  23  25
ENDBRANCH  20  23
ENDBRANCH   4  20
TORSDOF 8
ENDMDL
MODEL 8
REMARK VINA RESULT:      -7.8      1.915      3.270
REMARK  Name = 
REMARK  10 active torsions:
REMARK  status: ('A' for Active; 'I' for Inactive)
REMARK    1  A    between atoms: C_1  and  C_2
REMARK    2  A    between atoms: C_2  and  O_3
REMARK    3  A    between atoms: O_3  and  C_4
REMARK    4  A    between atoms: C_4  and  C_6
REMARK    5  A    between atoms: C_11  and  C_13
REMARK    6  A    between atoms: C_16  and  S_17
REMARK    7  A    between atoms: S_17  and  N_20
REMARK    8  A    between atoms: N_20  and  C_21
REMARK    9  A    between atoms: C_26  and  O_27
REMARK   10  A    between atoms: O_27  and  C_28
REMARK                            x       y       z     vdW  Elec       q    Type
REMARK                         _______ _______ _______ _____ _____    ______ ____
ROOT
ATOM      1  C   UNL     1       2.449   7.309  18.381  0.00  0.00    +0.000 A 
ATOM      2  C   UNL     1       2.127   7.281  19.747  0.00  0.00    +0.000 A 
ATOM      3  C   UNL     1       1.493   8.369  20.360  0.00  0.00    +0.000 A 
ATOM      4  C   UNL     1       1.182   9.500  19.599  0.00  0.00    +0.000 A 
ATOM      5  C   UNL     1       1.535   9.557  18.249  0.00  0.00    +0.000 A 
ATOM      6  C   UNL     1       2.209   8.482  17.658  0.00  0.00    +0.000 A 
ENDROOT
BRANCH   1  12
ATOM      7  C   UNL     1       6.320   4.795  17.391  0.00  0.00    +0.000 C 
ATOM      8  C   UNL     1       7.196   6.055  17.258  0.00  0.00    +0.000 C 
ATOM      9  C   UNL     1       6.429   7.344  17.575  0.00  0.00    +0.000 C 
ATOM     10  C   UNL     1       5.116   7.400  16.792  0.00  0.00    +0.000 C 
ATOM     11  N   UNL     1       4.327   6.206  17.091  0.00  0.00    +0.000 N 
ATOM     12  C   UNL     1       3.127   6.114  17.801  0.00  0.00    +0.000 C 
ATOM     13  O   UNL     1       2.551   5.034  17.958  0.00  0.00    +0.000 OA
ATOM     14  C   UNL     1       4.982   4.965  16.674  0.00  0.00    +0.000 C 
BRANCH   7  15
ATOM     15  C   UNL     1       6.122   4.403  18.844  0.00  0.00    +0.000 C 
ATOM     16  O   UNL     1       6.575   5.018  19.801  0.00  0.00    +0.000 OA
BRANCH  15  17
ATOM     17  O   UNL     1       5.514   3.188  18.912  0.00  0.00    +0.000 OA
BRANCH  17  19
ATOM     18  C   UNL     1       3.479   2.025  19.283  0.00  0.00    +0.000 C 
ATOM     19  C   UNL     1       4.403   3.106  19.814  0.00  0.00    +0.000 C 
ENDBRANCH  17  19
ENDBRANCH  15  17
ENDBRANCH   7  15
ENDBRANCH   1  12
BRANCH   4  20
ATOM     20  S   UNL     1       0.418  10.923  20.365  0.00  0.00    +0.000 S 
ATOM     21  O   UNL     1      -0.698  10.421  21.135  0.00  0.00    +0.000 OA
ATOM     22  O   UNL     1       1.462  11.727  20.961  0.00  0.00    +0.000 OA
BRANCH  20  23
ATOM     23  N   UNL     1      -0.256  11.728  19.021  0.00  0.00    +0.000 N 
ATOM     24  H   UNL     1       0.374  11.541  18.237  0.00  0.00    +0.000 HD
BRANCH  23  25
ATOM     25  C   UNL     1      -1.617  11.399  18.677  0.00  0.00    +0.000 A 
ATOM     26  C   UNL     1      -1.811  10.401  17.702  0.00  0.00    +0.000 A 
ATOM     27  C   UNL     1      -3.096  10.067  17.261  0.00  0.00    +0.000 A 
ATOM     28  C   UNL     1      -4.203  10.701  17.810  0.00  0.00    +0.000 A 
ATOM     29  C   UNL     1      -4.019  11.686  18.778  0.00  0.00    +0.000 A 
ATOM     30  C   UNL     1      -2.736  12.060  19.212  0.00  0.00    +0.000 A 
BRANCH  30  31
ATOM     31  O   UNL     1      -2.799  13.133  20.059  0.00  0.00    +0.000 OA
ATOM     32  C   UNL     1      -3.183  12.923  21.401  0.00  0.00    +0.000 C 
ENDBRANCH  30  31
ENDBRANCH  23  25
ENDBRANCH  20  23
ENDBRANCH   4  20
TORSDOF 8
ENDMDL
MODEL 9
REMARK VINA RESULT:      -7.8      2.553      3.382
REMARK  Name = 
REMARK  10 active torsions:
REMARK  status: ('A' for Active; 'I' for Inactive)
REMARK    1  A    between atoms: C_1  and  C_2
REMARK    2  A    between atoms: C_2  and  O_3
REMARK    3  A    between atoms: O_3  and  C_4
REMARK    4  A    between atoms: C_4  and  C_6
REMARK    5  A    between atoms: C_11  and  C_13
REMARK    6  A    between atoms: C_16  and  S_17
REMARK    7  A    between atoms: S_17  and  N_20
REMARK    8  A    between atoms: N_20  and  C_21
REMARK    9  A    between atoms: C_26  and  O_27
REMARK   10  A    between atoms: O_27  and  C_28
REMARK                            x       y       z     vdW  Elec       q    Type
REMARK                         _______ _______ _______ _____ _____    ______ ____
ROOT
ATOM      1  C   UNL     1       2.528   7.058  19.455  0.00  0.00    +0.000 A 
ATOM      2  C   UNL     1       1.933   7.543  20.630  0.00  0.00    +0.000 A 
ATOM      3  C   UNL     1       1.195   8.733  20.626  0.00  0.00    +0.000 A 
ATOM      4  C   UNL     1       1.054   9.449  19.433  0.00  0.00    +0.000 A 
ATOM      5  C   UNL     1       1.676   8.999  18.266  0.00  0.00    +0.000 A 
ATOM      6  C   UNL     1       2.449   7.832  18.293  0.00  0.00    +0.000 A 
ENDROOT
BRANCH   1  12
ATOM      7  C   UNL     1       2.903   2.378  18.962  0.00  0.00    +0.000 C 
ATOM      8  C   UNL     1       1.413   2.150  19.280  0.00  0.00    +0.000 C 
ATOM      9  C   UNL     1       0.645   3.461  19.486  0.00  0.00    +0.000 C 
ATOM     10  C   UNL     1       1.373   4.365  20.482  0.00  0.00    +0.000 C 
ATOM     11  N   UNL     1       2.738   4.597  20.012  0.00  0.00    +0.000 N 
ATOM     12  C   UNL     1       3.302   5.786  19.540  0.00  0.00    +0.000 C 
ATOM     13  O   UNL     1       4.485   5.846  19.195  0.00  0.00    +0.000 OA
ATOM     14  C   UNL     1       3.536   3.373  19.933  0.00  0.00    +0.000 C 
BRANCH   7  15
ATOM     15  C   UNL     1       3.107   2.807  17.521  0.00  0.00    +0.000 C 
ATOM     16  O   UNL     1       2.221   2.871  16.678  0.00  0.00    +0.000 OA
BRANCH  15  17
ATOM     17  O   UNL     1       4.437   2.946  17.269  0.00  0.00    +0.000 OA
BRANCH  17  19
ATOM     18  C   UNL     1       6.233   4.319  16.548  0.00  0.00    +0.000 C 
ATOM     19  C   UNL     1       4.779   3.955  16.310  0.00  0.00    +0.000 C 
ENDBRANCH  17  19
ENDBRANCH  15  17
ENDBRANCH   7  15
ENDBRANCH   1  12
BRANCH   4  20
ATOM     20  S   UNL     1       0.161  10.996  19.407  0.00  0.00    +0.000 S 
ATOM     21  O   UNL     1       0.826  11.835  18.435  0.00  0.00    +0.000 OA
ATOM     22  O   UNL     1      -1.252  10.698  19.324  0.00  0.00    +0.000 OA
BRANCH  20  23
ATOM     23  N   UNL     1       0.541  11.649  20.936  0.00  0.00    +0.000 N 
ATOM     24  H   UNL     1       1.203  12.409  20.759  0.00  0.00    +0.000 HD
BRANCH  23  25
ATOM     25  C   UNL     1      -0.562  12.105  21.745  0.00  0.00    +0.000 A 
ATOM     26  C   UNL     1      -0.872  13.478  21.697  0.00  0.00    +0.000 A 
ATOM     27  C   UNL     1      -1.882  14.016  22.501  0.00  0.00    +0.000 A 
ATOM     28  C   UNL     1      -2.617  13.186  23.336  0.00  0.00    +0.000 A 
ATOM     29  C   UNL     1      -2.319  11.826  23.387  0.00  0.00    +0.000 A 
ATOM     30  C   UNL     1      -1.287  11.270  22.613  0.00  0.00    +0.000 A 
BRANCH  30  31
ATOM     31  O   UNL     1      -1.091   9.953  22.929  0.00  0.00    +0.000 OA
ATOM     32  C   UNL     1       0.061   9.588  23.657  0.00  0.00    +0.000 C 
ENDBRANCH  30  31
ENDBRANCH  23  25
ENDBRANCH  20  23
ENDBRANCH   4  20
TORSDOF 8
ENDMDL
