MODEL 1
REMARK VINA RESULT:      -7.4      0.000      0.000
REMARK  Name = 
REMARK  6 active torsions:
REMARK  status: ('A' for Active; 'I' for Inactive)
REMARK    1  A    between atoms: C_1  and  C_2
REMARK    2  A    between atoms: C_5  and  C_6
REMARK    3  A    between atoms: C_6  and  N_7
REMARK    4  A    between atoms: N_7  and  C_8
REMARK    5  A    between atoms: N_7  and  C_9
REMARK    6  A    between atoms: C_14  and  C_15
REMARK                            x       y       z     vdW  Elec       q    Type
REMARK                         _______ _______ _______ _____ _____    ______ ____
ROOT
ATOM      1  C   UNL     1       2.640   4.500  18.910  0.00  0.00    +0.000 A 
ATOM      2  N   UNL     1       1.368   4.064  18.686  0.00  0.00    +0.000 NA
ATOM      3  C   UNL     1       1.170   2.825  18.181  0.00  0.00    +0.000 A 
ATOM      4  C   UNL     1       2.191   1.959  17.866  0.00  0.00    +0.000 A 
ATOM      5  C   UNL     1       3.492   2.410  18.048  0.00  0.00    +0.000 A 
ATOM      6  C   UNL     1       3.746   3.703  18.560  0.00  0.00    +0.000 A 
ENDROOT
BRANCH   6   7
ATOM      7  C   UNL     1       5.188   4.008  18.802  0.00  0.00    +0.000 C 
ATOM      8  O   UNL     1       5.663   3.503  19.826  0.00  0.00    +0.000 OA
ATOM      9  N   UNL     1       5.989   4.770  17.944  0.00  0.00    +0.000 N 
ATOM     10  C   UNL     1       7.391   4.979  18.309  0.00  0.00    +0.000 C 
ATOM     11  C   UNL     1       7.678   6.471  18.480  0.00  0.00    +0.000 C 
ATOM     12  C   UNL     1       7.280   7.257  17.229  0.00  0.00    +0.000 C 
ATOM     13  C   UNL     1       5.841   6.952  16.818  0.00  0.00    +0.000 C 
ATOM     14  C   UNL     1       5.613   5.439  16.692  0.00  0.00    +0.000 C 
ENDBRANCH   6   7
BRANCH   1  15
ATOM     15  N   UNL     1       2.768   5.725  19.586  0.00  0.00    +0.000 N 
ATOM     16  C   UNL     1       1.850   5.783  20.725  0.00  0.00    +0.000 C 
BRANCH  15  17
ATOM     17  C   UNL     1       2.771   6.931  18.721  0.00  0.00    +0.000 C 
BRANCH  17  22
ATOM     18  C   UNL     1       0.181   9.898  21.807  0.00  0.00    +0.000 C 
ATOM     19  C   UNL     1       0.783   9.500  20.507  0.00  0.00    +0.000 A 
ATOM     20  C   UNL     1       0.635  10.168  19.308  0.00  0.00    +0.000 A 
ATOM     21  S   UNL     1       1.477   9.349  18.063  0.00  0.00    +0.000 S 
ATOM     22  C   UNL     1       1.979   8.149  19.193  0.00  0.00    +0.000 A 
ATOM     23  N   UNL     1       1.556   8.347  20.432  0.00  0.00    +0.000 NA
ENDBRANCH  17  22
ENDBRANCH  15  17
ENDBRANCH   1  15
TORSDOF 4
ENDMDL
MODEL 2
REMARK VINA RESULT:      -7.4      3.316      6.980
REMARK  Name = 
REMARK  6 active torsions:
REMARK  status: ('A' for Active; 'I' for Inactive)
REMARK    1  A    between atoms: C_1  and  C_2
REMARK    2  A    between atoms: C_5  and  C_6
REMARK    3  A    between atoms: C_6  and  N_7
REMARK    4  A    between atoms: N_7  and  C_8
REMARK    5  A    between atoms: N_7  and  C_9
REMARK    6  A    between atoms: C_14  and  C_15
REMARK                            x       y       z     vdW  Elec       q    Type
REMARK                         _______ _______ _______ _____ _____    ______ ____
ROOT
ATOM      1  C   UNL     1       4.621   5.755  17.037  0.00  0.00    +0.000 A 
ATOM      2  N   UNL     1       4.975   7.064  16.897  0.00  0.00    +0.000 NA
ATOM      3  C   UNL     1       4.117   8.029  17.296  0.00  0.00    +0.000 A 
ATOM      4  C   UNL     1       2.881   7.773  17.841  0.00  0.00    +0.000 A 
ATOM      5  C   UNL     1       2.492   6.443  17.946  0.00  0.00    +0.000 A 
ATOM      6  C   UNL     1       3.351   5.402  17.528  0.00  0.00    +0.000 A 
ENDROOT
BRANCH   6   7
ATOM      7  C   UNL     1       2.842   4.024  17.802  0.00  0.00    +0.000 C 
ATOM      8  O   UNL     1       2.448   3.406  16.807  0.00  0.00    +0.000 OA
ATOM      9  N   UNL     1       2.830   3.424  19.067  0.00  0.00    +0.000 N 
ATOM     10  C   UNL     1       2.308   2.062  19.182  0.00  0.00    +0.000 C 
ATOM     11  C   UNL     1       1.102   2.033  20.122  0.00  0.00    +0.000 C 
ATOM     12  C   UNL     1       1.449   2.639  21.484  0.00  0.00    +0.000 C 
ATOM     13  C   UNL     1       2.075   4.024  21.329  0.00  0.00    +0.000 C 
ATOM     14  C   UNL     1       3.259   3.988  20.353  0.00  0.00    +0.000 C 
ENDBRANCH   6   7
BRANCH   1  15
ATOM     15  N   UNL     1       5.620   4.807  16.757  0.00  0.00    +0.000 N 
ATOM     16  C   UNL     1       6.108   4.193  17.993  0.00  0.00    +0.000 C 
BRANCH  15  17
ATOM     17  C   UNL     1       6.678   5.257  15.820  0.00  0.00    +0.000 C 
BRANCH  17  22
ATOM     18  C   UNL     1       5.015   2.739  11.828  0.00  0.00    +0.000 C 
ATOM     19  C   UNL     1       5.942   3.636  12.568  0.00  0.00    +0.000 A 
ATOM     20  C   UNL     1       7.116   4.171  12.075  0.00  0.00    +0.000 A 
ATOM     21  S   UNL     1       7.882   5.126  13.272  0.00  0.00    +0.000 S 
ATOM     22  C   UNL     1       6.609   4.763  14.376  0.00  0.00    +0.000 A 
ATOM     23  N   UNL     1       5.658   3.983  13.884  0.00  0.00    +0.000 NA
ENDBRANCH  17  22
ENDBRANCH  15  17
ENDBRANCH   1  15
TORSDOF 4
ENDMDL
MODEL 3
REMARK VINA RESULT:      -7.4      2.250      4.487
REMARK  Name = 
REMARK  6 active torsions:
REMARK  status: ('A' for Active; 'I' for Inactive)
REMARK    1  A    between atoms: C_1  and  C_2
REMARK    2  A    between atoms: C_5  and  C_6
REMARK    3  A    between atoms: C_6  and  N_7
REMARK    4  A    between atoms: N_7  and  C_8
REMARK    5  A    between atoms: N_7  and  C_9
REMARK    6  A    between atoms: C_14  and  C_15
REMARK                            x       y       z     vdW  Elec       q    Type
REMARK                         _______ _______ _______ _____ _____    ______ ____
ROOT
ATOM      1  C   UNL     1       3.923   6.260  17.692  0.00  0.00    +0.000 A 
ATOM      2  N   UNL     1       5.050   6.801  17.148  0.00  0.00    +0.000 NA
ATOM      3  C   UNL     1       5.767   6.083  16.254  0.00  0.00    +0.000 A 
ATOM      4  C   UNL     1       5.429   4.812  15.852  0.00  0.00    +0.000 A 
ATOM      5  C   UNL     1       4.308   4.233  16.434  0.00  0.00    +0.000 A 
ATOM      6  C   UNL     1       3.538   4.942  17.384  0.00  0.00    +0.000 A 
ENDROOT
BRANCH   6   7
ATOM      7  C   UNL     1       2.303   4.235  17.841  0.00  0.00    +0.000 C 
ATOM      8  O   UNL     1       1.272   4.542  17.232  0.00  0.00    +0.000 OA
ATOM      9  N   UNL     1       2.276   3.265  18.850  0.00  0.00    +0.000 N 
ATOM     10  C   UNL     1       0.991   2.651  19.186  0.00  0.00    +0.000 C 
ATOM     11  C   UNL     1       0.638   2.924  20.648  0.00  0.00    +0.000 C 
ATOM     12  C   UNL     1       1.761   2.468  21.582  0.00  0.00    +0.000 C 
ATOM     13  C   UNL     1       3.107   3.052  21.155  0.00  0.00    +0.000 C 
ATOM     14  C   UNL     1       3.386   2.768  19.673  0.00  0.00    +0.000 C 
ENDBRANCH   6   7
BRANCH   1  15
ATOM     15  N   UNL     1       3.141   7.117  18.483  0.00  0.00    +0.000 N 
ATOM     16  C   UNL     1       2.691   6.432  19.695  0.00  0.00    +0.000 C 
BRANCH  15  17
ATOM     17  C   UNL     1       2.085   7.864  17.756  0.00  0.00    +0.000 C 
BRANCH  17  22
ATOM     18  C   UNL     1       2.443  12.846  18.068  0.00  0.00    +0.000 C 
ATOM     19  C   UNL     1       1.911  11.505  18.431  0.00  0.00    +0.000 A 
ATOM     20  C   UNL     1       1.013  11.239  19.445  0.00  0.00    +0.000 A 
ATOM     21  S   UNL     1       0.692   9.559  19.528  0.00  0.00    +0.000 S 
ATOM     22  C   UNL     1       1.774   9.288  18.215  0.00  0.00    +0.000 A 
ATOM     23  N   UNL     1       2.339  10.384  17.730  0.00  0.00    +0.000 NA
ENDBRANCH  17  22
ENDBRANCH  15  17
ENDBRANCH   1  15
TORSDOF 4
ENDMDL
MODEL 4
REMARK VINA RESULT:      -7.3      2.963      6.707
REMARK  Name = 
REMARK  6 active torsions:
REMARK  status: ('A' for Active; 'I' for Inactive)
REMARK    1  A    between atoms: C_1  and  C_2
REMARK    2  A    between atoms: C_5  and  C_6
REMARK    3  A    between atoms: C_6  and  N_7
REMARK    4  A    between atoms: N_7  and  C_8
REMARK    5  A    between atoms: N_7  and  C_9
REMARK    6  A    between atoms: C_14  and  C_15
REMARK                            x       y       z     vdW  Elec       q    Type
REMARK                         _______ _______ _______ _____ _____    ______ ____
ROOT
ATOM      1  C   UNL     1       4.566   6.141  17.703  0.00  0.00    +0.000 A 
ATOM      2  N   UNL     1       4.748   7.486  17.570  0.00  0.00    +0.000 NA
ATOM      3  C   UNL     1       3.671   8.304  17.566  0.00  0.00    +0.000 A 
ATOM      4  C   UNL     1       2.376   7.859  17.685  0.00  0.00    +0.000 A 
ATOM      5  C   UNL     1       2.177   6.487  17.775  0.00  0.00    +0.000 A 
ATOM      6  C   UNL     1       3.272   5.594  17.768  0.00  0.00    +0.000 A 
ENDROOT
BRANCH   6   7
ATOM      7  C   UNL     1       2.910   4.160  17.982  0.00  0.00    +0.000 C 
ATOM      8  O   UNL     1       2.665   3.525  16.950  0.00  0.00    +0.000 OA
ATOM      9  N   UNL     1       2.877   3.532  19.232  0.00  0.00    +0.000 N 
ATOM     10  C   UNL     1       2.511   2.115  19.286  0.00  0.00    +0.000 C 
ATOM     11  C   UNL     1       1.252   1.924  20.132  0.00  0.00    +0.000 C 
ATOM     12  C   UNL     1       1.424   2.533  21.525  0.00  0.00    +0.000 C 
ATOM     13  C   UNL     1       1.893   3.985  21.440  0.00  0.00    +0.000 C 
ATOM     14  C   UNL     1       3.141   4.110  20.556  0.00  0.00    +0.000 C 
ENDBRANCH   6   7
BRANCH   1  15
ATOM     15  N   UNL     1       5.729   5.370  17.864  0.00  0.00    +0.000 N 
ATOM     16  C   UNL     1       6.111   5.303  19.275  0.00  0.00    +0.000 C 
BRANCH  15  17
ATOM     17  C   UNL     1       6.836   5.685  16.928  0.00  0.00    +0.000 C 
BRANCH  17  22
ATOM     18  C   UNL     1       7.723   5.120  12.036  0.00  0.00    +0.000 C 
ATOM     19  C   UNL     1       7.121   4.765  13.348  0.00  0.00    +0.000 A 
ATOM     20  C   UNL     1       6.217   3.746  13.575  0.00  0.00    +0.000 A 
ATOM     21  S   UNL     1       5.768   3.707  15.226  0.00  0.00    +0.000 S 
ATOM     22  C   UNL     1       6.796   5.053  15.537  0.00  0.00    +0.000 A 
ATOM     23  N   UNL     1       7.449   5.506  14.478  0.00  0.00    +0.000 NA
ENDBRANCH  17  22
ENDBRANCH  15  17
ENDBRANCH   1  15
TORSDOF 4
ENDMDL
MODEL 5
REMARK VINA RESULT:      -7.2      1.970      4.369
REMARK  Name = 
REMARK  6 active torsions:
REMARK  status: ('A' for Active; 'I' for Inactive)
REMARK    1  A    between atoms: C_1  and  C_2
REMARK    2  A    between atoms: C_5  and  C_6
REMARK    3  A    between atoms: C_6  and  N_7
REMARK    4  A    between atoms: N_7  and  C_8
REMARK    5  A    between atoms: N_7  and  C_9
REMARK    6  A    between atoms: C_14  and  C_15
REMARK                            x       y       z     vdW  Elec       q    Type
REMARK                         _______ _______ _______ _____ _____    ______ ____
ROOT
ATOM      1  C   UNL     1       3.647   6.378  17.658  0.00  0.00    +0.000 A 
ATOM      2  N   UNL     1       4.759   7.037  17.224  0.00  0.00    +0.000 NA
ATOM      3  C   UNL     1       5.723   6.352  16.569  0.00  0.00    +0.000 A 
ATOM      4  C   UNL     1       5.658   5.004  16.310  0.00  0.00    +0.000 A 
ATOM      5  C   UNL     1       4.550   4.313  16.787  0.00  0.00    +0.000 A 
ATOM      6  C   UNL     1       3.525   4.986  17.490  0.00  0.00    +0.000 A 
ENDROOT
BRANCH   6   7
ATOM      7  C   UNL     1       2.349   4.136  17.845  0.00  0.00    +0.000 C 
ATOM      8  O   UNL     1       1.390   4.222  17.069  0.00  0.00    +0.000 OA
ATOM      9  N   UNL     1       2.306   3.266  18.941  0.00  0.00    +0.000 N 
ATOM     10  C   UNL     1       1.085   2.488  19.160  0.00  0.00    +0.000 C 
ATOM     11  C   UNL     1       0.476   2.829  20.520  0.00  0.00    +0.000 C 
ATOM     12  C   UNL     1       1.496   2.639  21.645  0.00  0.00    +0.000 C 
ATOM     13  C   UNL     1       2.794   3.388  21.348  0.00  0.00    +0.000 C 
ATOM     14  C   UNL     1       3.335   3.023  19.959  0.00  0.00    +0.000 C 
ENDBRANCH   6   7
BRANCH   1  15
ATOM     15  N   UNL     1       2.616   7.175  18.182  0.00  0.00    +0.000 N 
ATOM     16  C   UNL     1       2.684   8.531  17.635  0.00  0.00    +0.000 C 
BRANCH  15  17
ATOM     17  C   UNL     1       2.440   7.100  19.653  0.00  0.00    +0.000 C 
BRANCH  17  22
ATOM     18  C   UNL     1      -0.029   9.495  23.288  0.00  0.00    +0.000 C 
ATOM     19  C   UNL     1       0.415   9.255  21.889  0.00  0.00    +0.000 A 
ATOM     20  C   UNL     1      -0.006   9.954  20.776  0.00  0.00    +0.000 A 
ATOM     21  S   UNL     1       0.739   9.331  19.366  0.00  0.00    +0.000 S 
ATOM     22  C   UNL     1       1.570   8.163  20.322  0.00  0.00    +0.000 A 
ATOM     23  N   UNL     1       1.319   8.234  21.621  0.00  0.00    +0.000 NA
ENDBRANCH  17  22
ENDBRANCH  15  17
ENDBRANCH   1  15
TORSDOF 4
ENDMDL
MODEL 6
REMARK VINA RESULT:      -7.1      1.178      1.536
REMARK  Name = 
REMARK  6 active torsions:
REMARK  status: ('A' for Active; 'I' for Inactive)
REMARK    1  A    between atoms: C_1  and  C_2
REMARK    2  A    between atoms: C_5  and  C_6
REMARK    3  A    between atoms: C_6  and  N_7
REMARK    4  A    between atoms: N_7  and  C_8
REMARK    5  A    between atoms: N_7  and  C_9
REMARK    6  A    between atoms: C_14  and  C_15
REMARK                            x       y       z     vdW  Elec       q    Type
REMARK                         _______ _______ _______ _____ _____    ______ ____
ROOT
ATOM      1  C   UNL     1       2.457   4.547  18.513  0.00  0.00    +0.000 A 
ATOM      2  N   UNL     1       1.209   4.014  18.650  0.00  0.00    +0.000 NA
ATOM      3  C   UNL     1       1.073   2.682  18.834  0.00  0.00    +0.000 A 
ATOM      4  C   UNL     1       2.132   1.808  18.889  0.00  0.00    +0.000 A 
ATOM      5  C   UNL     1       3.406   2.334  18.706  0.00  0.00    +0.000 A 
ATOM      6  C   UNL     1       3.594   3.719  18.496  0.00  0.00    +0.000 A 
ENDROOT
BRANCH   6   7
ATOM      7  C   UNL     1       5.022   4.152  18.425  0.00  0.00    +0.000 C 
ATOM      8  O   UNL     1       5.500   4.552  19.492  0.00  0.00    +0.000 OA
ATOM      9  N   UNL     1       5.809   4.091  17.268  0.00  0.00    +0.000 N 
ATOM     10  C   UNL     1       7.198   4.544  17.351  0.00  0.00    +0.000 C 
ATOM     11  C   UNL     1       7.433   5.712  16.394  0.00  0.00    +0.000 C 
ATOM     12  C   UNL     1       7.026   5.346  14.965  0.00  0.00    +0.000 C 
ATOM     13  C   UNL     1       5.603   4.792  14.920  0.00  0.00    +0.000 C 
ATOM     14  C   UNL     1       5.427   3.643  15.923  0.00  0.00    +0.000 C 
ENDBRANCH   6   7
BRANCH   1  15
ATOM     15  N   UNL     1       2.535   5.949  18.491  0.00  0.00    +0.000 N 
ATOM     16  C   UNL     1       3.445   6.398  17.435  0.00  0.00    +0.000 C 
BRANCH  15  17
ATOM     17  C   UNL     1       2.740   6.595  19.811  0.00  0.00    +0.000 C 
BRANCH  17  22
ATOM     18  C   UNL     1      -0.404   9.406  22.504  0.00  0.00    +0.000 C 
ATOM     19  C   UNL     1       0.406   9.056  21.307  0.00  0.00    +0.000 A 
ATOM     20  C   UNL     1       0.421   9.745  20.111  0.00  0.00    +0.000 A 
ATOM     21  S   UNL     1       1.476   8.982  18.999  0.00  0.00    +0.000 S 
ATOM     22  C   UNL     1       1.840   7.776  20.174  0.00  0.00    +0.000 A 
ATOM     23  N   UNL     1       1.223   7.932  21.335  0.00  0.00    +0.000 NA
ENDBRANCH  17  22
ENDBRANCH  15  17
ENDBRANCH   1  15
TORSDOF 4
ENDMDL
MODEL 7
REMARK VINA RESULT:      -7.0      1.989      4.225
REMARK  Name = 
REMARK  6 active torsions:
REMARK  status: ('A' for Active; 'I' for Inactive)
REMARK    1  A    between atoms: C_1  and  C_2
REMARK    2  A    between atoms: C_5  and  C_6
REMARK    3  A    between atoms: C_6  and  N_7
REMARK    4  A    between atoms: N_7  and  C_8
REMARK    5  A    between atoms: N_7  and  C_9
REMARK    6  A    between atoms: C_14  and  C_15
REMARK                            x       y       z     vdW  Elec       q    Type
REMARK                         _______ _______ _______ _____ _____    ______ ____
ROOT
ATOM      1  C   UNL     1       4.947   5.181  17.292  0.00  0.00    +0.000 A 
ATOM      2  N   UNL     1       6.126   5.591  16.746  0.00  0.00    +0.000 NA
ATOM      3  C   UNL     1       6.666   4.886  15.726  0.00  0.00    +0.000 A 
ATOM      4  C   UNL     1       6.094   3.754  15.195  0.00  0.00    +0.000 A 
ATOM      5  C   UNL     1       4.914   3.302  15.775  0.00  0.00    +0.000 A 
ATOM      6  C   UNL     1       4.323   3.999  16.852  0.00  0.00    +0.000 A 
ENDROOT
BRANCH   6   7
ATOM      7  C   UNL     1       3.004   3.457  17.299  0.00  0.00    +0.000 C 
ATOM      8  O   UNL     1       2.058   3.694  16.540  0.00  0.00    +0.000 OA
ATOM      9  N   UNL     1       2.814   2.701  18.462  0.00  0.00    +0.000 N 
ATOM     10  C   UNL     1       1.463   2.230  18.769  0.00  0.00    +0.000 C 
ATOM     11  C   UNL     1       0.995   2.796  20.109  0.00  0.00    +0.000 C 
ATOM     12  C   UNL     1       1.991   2.469  21.225  0.00  0.00    +0.000 C 
ATOM     13  C   UNL     1       3.408   2.891  20.841  0.00  0.00    +0.000 C 
ATOM     14  C   UNL     1       3.804   2.314  19.475  0.00  0.00    +0.000 C 
ENDBRANCH   6   7
BRANCH   1  15
ATOM     15  N   UNL     1       4.362   6.047  18.231  0.00  0.00    +0.000 N 
ATOM     16  C   UNL     1       4.754   5.674  19.591  0.00  0.00    +0.000 C 
BRANCH  15  17
ATOM     17  C   UNL     1       2.912   6.301  18.044  0.00  0.00    +0.000 C 
BRANCH  17  22
ATOM     18  C   UNL     1       0.801   8.881  21.776  0.00  0.00    +0.000 C 
ATOM     19  C   UNL     1       1.314   8.681  20.395  0.00  0.00    +0.000 A 
ATOM     20  C   UNL     1       1.224   9.590  19.359  0.00  0.00    +0.000 A 
ATOM     21  S   UNL     1       1.924   8.940  17.937  0.00  0.00    +0.000 S 
ATOM     22  C   UNL     1       2.295   7.487  18.785  0.00  0.00    +0.000 A 
ATOM     23  N   UNL     1       1.931   7.482  20.058  0.00  0.00    +0.000 NA
ENDBRANCH  17  22
ENDBRANCH  15  17
ENDBRANCH   1  15
TORSDOF 4
ENDMDL
MODEL 8
REMARK VINA RESULT:      -7.0      2.158      4.519
REMARK  Name = 
REMARK  6 active torsions:
REMARK  status: ('A' for Active; 'I' for Inactive)
REMARK    1  A    between atoms: C_1  and  C_2
REMARK    2  A    between atoms: C_5  and  C_6
REMARK    3  A    between atoms: C_6  and  N_7
REMARK    4  A    between atoms: N_7  and  C_8
REMARK    5  A    between atoms: N_7  and  C_9
REMARK    6  A    between atoms: C_14  and  C_15
REMARK                            x       y       z     vdW  Elec       q    Type
REMARK                         _______ _______ _______ _____ _____    ______ ____
ROOT
ATOM      1  C   UNL     1       3.435   6.660  17.789  0.00  0.00    +0.000 A 
ATOM      2  N   UNL     1       4.526   7.374  17.390  0.00  0.00    +0.000 NA
ATOM      3  C   UNL     1       5.544   6.739  16.768  0.00  0.00    +0.000 A 
ATOM      4  C   UNL     1       5.556   5.388  16.510  0.00  0.00    +0.000 A 
ATOM      5  C   UNL     1       4.469   4.643  16.952  0.00  0.00    +0.000 A 
ATOM      6  C   UNL     1       3.389   5.264  17.620  0.00  0.00    +0.000 A 
ENDROOT
BRANCH   6   7
ATOM      7  C   UNL     1       2.246   4.356  17.939  0.00  0.00    +0.000 C 
ATOM      8  O   UNL     1       1.271   4.460  17.185  0.00  0.00    +0.000 OA
ATOM      9  N   UNL     1       2.249   3.417  18.977  0.00  0.00    +0.000 N 
ATOM     10  C   UNL     1       1.058   2.589  19.166  0.00  0.00    +0.000 C 
ATOM     11  C   UNL     1       0.463   2.823  20.554  0.00  0.00    +0.000 C 
ATOM     12  C   UNL     1       1.508   2.594  21.649  0.00  0.00    +0.000 C 
ATOM     13  C   UNL     1       2.777   3.402  21.379  0.00  0.00    +0.000 C 
ATOM     14  C   UNL     1       3.304   3.144  19.961  0.00  0.00    +0.000 C 
ENDBRANCH   6   7
BRANCH   1  15
ATOM     15  N   UNL     1       2.349   7.405  18.276  0.00  0.00    +0.000 N 
ATOM     16  C   UNL     1       2.269   8.702  17.603  0.00  0.00    +0.000 C 
BRANCH  15  17
ATOM     17  C   UNL     1       2.227   7.457  19.755  0.00  0.00    +0.000 C 
BRANCH  17  22
ATOM     18  C   UNL     1      -1.066  11.221  19.929  0.00  0.00    +0.000 C 
ATOM     19  C   UNL     1      -0.113  10.234  20.502  0.00  0.00    +0.000 A 
ATOM     20  C   UNL     1       0.271  10.154  21.826  0.00  0.00    +0.000 A 
ATOM     21  S   UNL     1       1.403   8.888  22.041  0.00  0.00    +0.000 S 
ATOM     22  C   UNL     1       1.320   8.529  20.358  0.00  0.00    +0.000 A 
ATOM     23  N   UNL     1       0.490   9.298  19.670  0.00  0.00    +0.000 NA
ENDBRANCH  17  22
ENDBRANCH  15  17
ENDBRANCH   1  15
TORSDOF 4
ENDMDL
MODEL 9
REMARK VINA RESULT:      -7.0      1.861      4.131
REMARK  Name = 
REMARK  6 active torsions:
REMARK  status: ('A' for Active; 'I' for Inactive)
REMARK    1  A    between atoms: C_1  and  C_2
REMARK    2  A    between atoms: C_5  and  C_6
REMARK    3  A    between atoms: C_6  and  N_7
REMARK    4  A    between atoms: N_7  and  C_8
REMARK    5  A    between atoms: N_7  and  C_9
REMARK    6  A    between atoms: C_14  and  C_15
REMARK                            x       y       z     vdW  Elec       q    Type
REMARK                         _______ _______ _______ _____ _____    ______ ____
ROOT
ATOM      1  C   UNL     1       3.927   5.870  17.429  0.00  0.00    +0.000 A 
ATOM      2  N   UNL     1       4.849   6.718  16.893  0.00  0.00    +0.000 NA
ATOM      3  C   UNL     1       5.812   6.225  16.081  0.00  0.00    +0.000 A 
ATOM      4  C   UNL     1       5.927   4.894  15.757  0.00  0.00    +0.000 A 
ATOM      5  C   UNL     1       5.019   4.014  16.334  0.00  0.00    +0.000 A 
ATOM      6  C   UNL     1       4.006   4.484  17.200  0.00  0.00    +0.000 A 
ENDROOT
BRANCH   6   7
ATOM      7  C   UNL     1       3.039   3.439  17.657  0.00  0.00    +0.000 C 
ATOM      8  O   UNL     1       2.390   2.900  16.754  0.00  0.00    +0.000 OA
ATOM      9  N   UNL     1       2.876   3.043  18.989  0.00  0.00    +0.000 N 
ATOM     10  C   UNL     1       1.894   1.999  19.286  0.00  0.00    +0.000 C 
ATOM     11  C   UNL     1       0.817   2.536  20.229  0.00  0.00    +0.000 C 
ATOM     12  C   UNL     1       1.437   3.127  21.497  0.00  0.00    +0.000 C 
ATOM     13  C   UNL     1       2.522   4.148  21.158  0.00  0.00    +0.000 C 
ATOM     14  C   UNL     1       3.553   3.556  20.187  0.00  0.00    +0.000 C 
ENDBRANCH   6   7
BRANCH   1  15
ATOM     15  N   UNL     1       2.864   6.467  18.126  0.00  0.00    +0.000 N 
ATOM     16  C   UNL     1       1.591   5.846  17.756  0.00  0.00    +0.000 C 
BRANCH  15  17
ATOM     17  C   UNL     1       2.859   7.951  18.128  0.00  0.00    +0.000 C 
BRANCH  17  22
ATOM     18  C   UNL     1       0.015   8.938  22.125  0.00  0.00    +0.000 C 
ATOM     19  C   UNL     1       0.496   9.127  20.731  0.00  0.00    +0.000 A 
ATOM     20  C   UNL     1      -0.035  10.002  19.804  0.00  0.00    +0.000 A 
ATOM     21  S   UNL     1       0.807   9.877  18.319  0.00  0.00    +0.000 S 
ATOM     22  C   UNL     1       1.821   8.660  18.997  0.00  0.00    +0.000 A 
ATOM     23  N   UNL     1       1.560   8.366  20.262  0.00  0.00    +0.000 NA
ENDBRANCH  17  22
ENDBRANCH  15  17
ENDBRANCH   1  15
TORSDOF 4
ENDMDL
