MODEL 1
REMARK VINA RESULT:      -7.9      0.000      0.000
REMARK  Name = 
REMARK  5 active torsions:
REMARK  status: ('A' for Active; 'I' for Inactive)
REMARK    1  A    between atoms: C_4  and  N_5
REMARK    2  A    between atoms: N_10  and  C_11
REMARK    3  A    between atoms: C_11  and  C_12
REMARK    4  A    between atoms: C_12  and  S_13
REMARK    5  A    between atoms: S_13  and  C_14
REMARK                            x       y       z     vdW  Elec       q    Type
REMARK                         _______ _______ _______ _____ _____    ______ ____
ROOT
ATOM      1  C   UNL     1       1.527   9.090  17.677  0.00  0.00    +0.000 C 
ENDROOT
BRANCH   1   7
ATOM      2  N   UNL     1       3.170   5.809  18.567  0.00  0.00    +0.000 N 
ATOM      3  C   UNL     1       4.484   5.385  18.094  0.00  0.00    +0.000 C 
ATOM      4  C   UNL     1       4.726   6.292  16.894  0.00  0.00    +0.000 C 
ATOM      5  C   UNL     1       3.985   7.577  17.243  0.00  0.00    +0.000 C 
ATOM      6  C   UNL     1       2.800   7.066  18.072  0.00  0.00    +0.000 C 
ATOM      7  N   UNL     1       1.707   7.744  18.273  0.00  0.00    +0.000 NA
BRANCH   2  11
ATOM      8  C   UNL     1       1.159   2.878  20.898  0.00  0.00    +0.000 A 
ATOM      9  C   UNL     1       2.057   3.750  21.501  0.00  0.00    +0.000 A 
ATOM     10  C   UNL     1       2.689   4.731  20.728  0.00  0.00    +0.000 A 
ATOM     11  C   UNL     1       2.447   4.876  19.341  0.00  0.00    +0.000 A 
ATOM     12  C   UNL     1       1.498   4.018  18.776  0.00  0.00    +0.000 A 
ATOM     13  C   UNL     1       0.874   3.026  19.540  0.00  0.00    +0.000 A 
ENDBRANCH   2  11
ENDBRANCH   1   7
BRANCH   1  14
ATOM     14  C   UNL     1       1.597  10.242  18.755  0.00  0.00    +0.000 C 
BRANCH  14  15
ATOM     15  S   UNL     1       0.102  10.255  19.795  0.00  0.00    +0.000 S 
BRANCH  15  16
ATOM     16  C   UNL     1      -1.344  10.885  19.002  0.00  0.00    +0.000 A 
ATOM     17  C   UNL     1      -1.937  12.013  19.544  0.00  0.00    +0.000 A 
ATOM     18  N   UNL     1      -3.186  12.135  19.011  0.00  0.00    +0.000 N 
ATOM     19  C   UNL     1      -3.228  11.451  17.825  0.00  0.00    +0.000 A 
ATOM     20  C   UNL     1      -4.172  11.551  16.798  0.00  0.00    +0.000 A 
ATOM     21  C   UNL     1      -3.970  10.771  15.664  0.00  0.00    +0.000 A 
ATOM     22  C   UNL     1      -2.909   9.872  15.617  0.00  0.00    +0.000 A 
ATOM     23  C   UNL     1      -1.987   9.749  16.685  0.00  0.00    +0.000 A 
ATOM     24  C   UNL     1      -2.106  10.596  17.810  0.00  0.00    +0.000 A 
ATOM     25  H   UNL     1      -3.923  12.738  19.353  0.00  0.00    +0.000 HD
ENDBRANCH  15  16
ENDBRANCH  14  15
ENDBRANCH   1  14
TORSDOF 5
ENDMDL
MODEL 2
REMARK VINA RESULT:      -7.8      1.392      3.316
REMARK  Name = 
REMARK  5 active torsions:
REMARK  status: ('A' for Active; 'I' for Inactive)
REMARK    1  A    between atoms: C_4  and  N_5
REMARK    2  A    between atoms: N_10  and  C_11
REMARK    3  A    between atoms: C_11  and  C_12
REMARK    4  A    between atoms: C_12  and  S_13
REMARK    5  A    between atoms: S_13  and  C_14
REMARK                            x       y       z     vdW  Elec       q    Type
REMARK                         _______ _______ _______ _____ _____    ______ ____
ROOT
ATOM      1  C   UNL     1       1.804   8.075  19.837  0.00  0.00    +0.000 C 
ENDROOT
BRANCH   1   7
ATOM      2  N   UNL     1       3.606   4.807  19.266  0.00  0.00    +0.000 N 
ATOM      3  C   UNL     1       3.232   3.536  19.879  0.00  0.00    +0.000 C 
ATOM      4  C   UNL     1       2.358   3.965  21.051  0.00  0.00    +0.000 C 
ATOM      5  C   UNL     1       1.698   5.253  20.572  0.00  0.00    +0.000 C 
ATOM      6  C   UNL     1       2.773   5.861  19.662  0.00  0.00    +0.000 C 
ATOM      7  N   UNL     1       2.815   7.118  19.326  0.00  0.00    +0.000 NA
BRANCH   2  11
ATOM      8  C   UNL     1       7.138   4.598  16.910  0.00  0.00    +0.000 A 
ATOM      9  C   UNL     1       5.914   4.236  16.362  0.00  0.00    +0.000 A 
ATOM     10  C   UNL     1       4.753   4.339  17.138  0.00  0.00    +0.000 A 
ATOM     11  C   UNL     1       4.775   4.805  18.475  0.00  0.00    +0.000 A 
ATOM     12  C   UNL     1       6.014   5.212  18.979  0.00  0.00    +0.000 A 
ATOM     13  C   UNL     1       7.179   5.098  18.213  0.00  0.00    +0.000 A 
ENDBRANCH   2  11
ENDBRANCH   1   7
BRANCH   1  14
ATOM     14  C   UNL     1       1.460   9.204  18.788  0.00  0.00    +0.000 C 
BRANCH  14  15
ATOM     15  S   UNL     1       0.777  10.677  19.613  0.00  0.00    +0.000 S 
BRANCH  15  16
ATOM     16  C   UNL     1      -0.801  11.196  19.012  0.00  0.00    +0.000 A 
ATOM     17  C   UNL     1      -1.336  12.363  19.530  0.00  0.00    +0.000 A 
ATOM     18  N   UNL     1      -2.659  12.406  19.202  0.00  0.00    +0.000 N 
ATOM     19  C   UNL     1      -2.869  11.602  18.113  0.00  0.00    +0.000 A 
ATOM     20  C   UNL     1      -3.972  11.579  17.252  0.00  0.00    +0.000 A 
ATOM     21  C   UNL     1      -3.930  10.690  16.183  0.00  0.00    +0.000 A 
ATOM     22  C   UNL     1      -2.860   9.809  16.050  0.00  0.00    +0.000 A 
ATOM     23  C   UNL     1      -1.773   9.814  16.957  0.00  0.00    +0.000 A 
ATOM     24  C   UNL     1      -1.736  10.771  17.997  0.00  0.00    +0.000 A 
ATOM     25  H   UNL     1      -3.351  13.028  19.600  0.00  0.00    +0.000 HD
ENDBRANCH  15  16
ENDBRANCH  14  15
ENDBRANCH   1  14
TORSDOF 5
ENDMDL
MODEL 3
REMARK VINA RESULT:      -7.8      1.075      3.148
REMARK  Name = 
REMARK  5 active torsions:
REMARK  status: ('A' for Active; 'I' for Inactive)
REMARK    1  A    between atoms: C_4  and  N_5
REMARK    2  A    between atoms: N_10  and  C_11
REMARK    3  A    between atoms: C_11  and  C_12
REMARK    4  A    between atoms: C_12  and  S_13
REMARK    5  A    between atoms: S_13  and  C_14
REMARK                            x       y       z     vdW  Elec       q    Type
REMARK                         _______ _______ _______ _____ _____    ______ ____
ROOT
ATOM      1  C   UNL     1       1.491   8.377  19.940  0.00  0.00    +0.000 C 
ENDROOT
BRANCH   1   7
ATOM      2  N   UNL     1       3.132   5.174  18.801  0.00  0.00    +0.000 N 
ATOM      3  C   UNL     1       2.999   3.887  19.478  0.00  0.00    +0.000 C 
ATOM      4  C   UNL     1       2.506   4.280  20.865  0.00  0.00    +0.000 C 
ATOM      5  C   UNL     1       1.695   5.549  20.628  0.00  0.00    +0.000 C 
ATOM      6  C   UNL     1       2.427   6.198  19.446  0.00  0.00    +0.000 C 
ATOM      7  N   UNL     1       2.329   7.457  19.134  0.00  0.00    +0.000 NA
BRANCH   2  11
ATOM      8  C   UNL     1       5.607   5.343  15.349  0.00  0.00    +0.000 A 
ATOM      9  C   UNL     1       5.203   6.516  15.973  0.00  0.00    +0.000 A 
ATOM     10  C   UNL     1       4.413   6.447  17.128  0.00  0.00    +0.000 A 
ATOM     11  C   UNL     1       4.007   5.215  17.694  0.00  0.00    +0.000 A 
ATOM     12  C   UNL     1       4.476   4.052  17.073  0.00  0.00    +0.000 A 
ATOM     13  C   UNL     1       5.252   4.116  15.912  0.00  0.00    +0.000 A 
ENDBRANCH   2  11
ENDBRANCH   1   7
BRANCH   1  14
ATOM     14  C   UNL     1       1.107   9.690  19.151  0.00  0.00    +0.000 C 
BRANCH  14  15
ATOM     15  S   UNL     1      -0.087  10.693  20.091  0.00  0.00    +0.000 S 
BRANCH  15  16
ATOM     16  C   UNL     1      -1.528  11.167  19.186  0.00  0.00    +0.000 A 
ATOM     17  C   UNL     1      -2.239  12.267  19.635  0.00  0.00    +0.000 A 
ATOM     18  N   UNL     1      -3.459  12.262  19.027  0.00  0.00    +0.000 N 
ATOM     19  C   UNL     1      -3.375  11.523  17.876  0.00  0.00    +0.000 A 
ATOM     20  C   UNL     1      -4.261  11.498  16.794  0.00  0.00    +0.000 A 
ATOM     21  C   UNL     1      -3.931  10.685  15.714  0.00  0.00    +0.000 A 
ATOM     22  C   UNL     1      -2.801   9.873  15.774  0.00  0.00    +0.000 A 
ATOM     23  C   UNL     1      -1.939   9.875  16.897  0.00  0.00    +0.000 A 
ATOM     24  C   UNL     1      -2.191  10.761  17.969  0.00  0.00    +0.000 A 
ATOM     25  H   UNL     1      -4.260  12.819  19.295  0.00  0.00    +0.000 HD
ENDBRANCH  15  16
ENDBRANCH  14  15
ENDBRANCH   1  14
TORSDOF 5
ENDMDL
MODEL 4
REMARK VINA RESULT:      -7.8      0.451      1.052
REMARK  Name = 
REMARK  5 active torsions:
REMARK  status: ('A' for Active; 'I' for Inactive)
REMARK    1  A    between atoms: C_4  and  N_5
REMARK    2  A    between atoms: N_10  and  C_11
REMARK    3  A    between atoms: C_11  and  C_12
REMARK    4  A    between atoms: C_12  and  S_13
REMARK    5  A    between atoms: S_13  and  C_14
REMARK                            x       y       z     vdW  Elec       q    Type
REMARK                         _______ _______ _______ _____ _____    ______ ____
ROOT
ATOM      1  C   UNL     1       1.629   9.371  17.800  0.00  0.00    +0.000 C 
ENDROOT
BRANCH   1   7
ATOM      2  N   UNL     1       3.176   5.952  18.221  0.00  0.00    +0.000 N 
ATOM      3  C   UNL     1       4.488   5.567  17.710  0.00  0.00    +0.000 C 
ATOM      4  C   UNL     1       4.773   6.634  16.660  0.00  0.00    +0.000 C 
ATOM      5  C   UNL     1       4.057   7.873  17.183  0.00  0.00    +0.000 C 
ATOM      6  C   UNL     1       2.845   7.278  17.911  0.00  0.00    +0.000 C 
ATOM      7  N   UNL     1       1.766   7.948  18.195  0.00  0.00    +0.000 NA
BRANCH   2  11
ATOM      8  C   UNL     1       0.722   2.978  20.011  0.00  0.00    +0.000 A 
ATOM      9  C   UNL     1       1.014   2.915  18.654  0.00  0.00    +0.000 A 
ATOM     10  C   UNL     1       1.849   3.883  18.083  0.00  0.00    +0.000 A 
ATOM     11  C   UNL     1       2.417   4.935  18.840  0.00  0.00    +0.000 A 
ATOM     12  C   UNL     1       2.147   4.939  20.212  0.00  0.00    +0.000 A 
ATOM     13  C   UNL     1       1.303   3.984  20.786  0.00  0.00    +0.000 A 
ENDBRANCH   2  11
ENDBRANCH   1   7
BRANCH   1  14
ATOM     14  C   UNL     1       1.548  10.337  19.046  0.00  0.00    +0.000 C 
BRANCH  14  15
ATOM     15  S   UNL     1      -0.045  10.159  19.910  0.00  0.00    +0.000 S 
BRANCH  15  16
ATOM     16  C   UNL     1      -1.434  10.819  19.041  0.00  0.00    +0.000 A 
ATOM     17  C   UNL     1      -2.027  11.963  19.548  0.00  0.00    +0.000 A 
ATOM     18  N   UNL     1      -3.244  12.111  18.951  0.00  0.00    +0.000 N 
ATOM     19  C   UNL     1      -3.240  11.423  17.766  0.00  0.00    +0.000 A 
ATOM     20  C   UNL     1      -4.128  11.541  16.692  0.00  0.00    +0.000 A 
ATOM     21  C   UNL     1      -3.887  10.751  15.572  0.00  0.00    +0.000 A 
ATOM     22  C   UNL     1      -2.846   9.827  15.583  0.00  0.00    +0.000 A 
ATOM     23  C   UNL     1      -1.983   9.688  16.697  0.00  0.00    +0.000 A 
ATOM     24  C   UNL     1      -2.140  10.542  17.812  0.00  0.00    +0.000 A 
ATOM     25  H   UNL     1      -3.983  12.733  19.252  0.00  0.00    +0.000 HD
ENDBRANCH  15  16
ENDBRANCH  14  15
ENDBRANCH   1  14
TORSDOF 5
ENDMDL
MODEL 5
REMARK VINA RESULT:      -7.7      1.240      3.208
REMARK  Name = 
REMARK  5 active torsions:
REMARK  status: ('A' for Active; 'I' for Inactive)
REMARK    1  A    between atoms: C_4  and  N_5
REMARK    2  A    between atoms: N_10  and  C_11
REMARK    3  A    between atoms: C_11  and  C_12
REMARK    4  A    between atoms: C_12  and  S_13
REMARK    5  A    between atoms: S_13  and  C_14
REMARK                            x       y       z     vdW  Elec       q    Type
REMARK                         _______ _______ _______ _____ _____    ______ ____
ROOT
ATOM      1  C   UNL     1       1.536   8.038  20.264  0.00  0.00    +0.000 C 
ENDROOT
BRANCH   1   7
ATOM      2  N   UNL     1       3.466   4.987  19.159  0.00  0.00    +0.000 N 
ATOM      3  C   UNL     1       3.159   3.619  19.567  0.00  0.00    +0.000 C 
ATOM      4  C   UNL     1       2.290   3.817  20.803  0.00  0.00    +0.000 C 
ATOM      5  C   UNL     1       1.566   5.134  20.543  0.00  0.00    +0.000 C 
ATOM      6  C   UNL     1       2.596   5.926  19.728  0.00  0.00    +0.000 C 
ATOM      7  N   UNL     1       2.577   7.221  19.596  0.00  0.00    +0.000 NA
BRANCH   2  11
ATOM      8  C   UNL     1       6.933   5.717  16.811  0.00  0.00    +0.000 A 
ATOM      9  C   UNL     1       7.041   5.591  18.191  0.00  0.00    +0.000 A 
ATOM     10  C   UNL     1       5.896   5.319  18.950  0.00  0.00    +0.000 A 
ATOM     11  C   UNL     1       4.618   5.163  18.363  0.00  0.00    +0.000 A 
ATOM     12  C   UNL     1       4.552   5.242  16.968  0.00  0.00    +0.000 A 
ATOM     13  C   UNL     1       5.690   5.528  16.206  0.00  0.00    +0.000 A 
ENDBRANCH   2  11
ENDBRANCH   1   7
BRANCH   1  14
ATOM     14  C   UNL     1       1.045   9.240  19.366  0.00  0.00    +0.000 C 
BRANCH  14  15
ATOM     15  S   UNL     1      -0.087  10.327  20.289  0.00  0.00    +0.000 S 
BRANCH  15  16
ATOM     16  C   UNL     1      -1.445  10.951  19.348  0.00  0.00    +0.000 A 
ATOM     17  C   UNL     1      -2.060  12.109  19.792  0.00  0.00    +0.000 A 
ATOM     18  N   UNL     1      -3.255  12.232  19.146  0.00  0.00    +0.000 N 
ATOM     19  C   UNL     1      -3.205  11.503  17.987  0.00  0.00    +0.000 A 
ATOM     20  C   UNL     1      -4.053  11.579  16.877  0.00  0.00    +0.000 A 
ATOM     21  C   UNL     1      -3.768  10.752  15.796  0.00  0.00    +0.000 A 
ATOM     22  C   UNL     1      -2.726   9.833  15.877  0.00  0.00    +0.000 A 
ATOM     23  C   UNL     1      -1.904   9.736  17.026  0.00  0.00    +0.000 A 
ATOM     24  C   UNL     1      -2.104  10.628  18.104  0.00  0.00    +0.000 A 
ATOM     25  H   UNL     1      -4.006  12.860  19.398  0.00  0.00    +0.000 HD
ENDBRANCH  15  16
ENDBRANCH  14  15
ENDBRANCH   1  14
TORSDOF 5
ENDMDL
MODEL 6
REMARK VINA RESULT:      -7.7      0.999      1.467
REMARK  Name = 
REMARK  5 active torsions:
REMARK  status: ('A' for Active; 'I' for Inactive)
REMARK    1  A    between atoms: C_4  and  N_5
REMARK    2  A    between atoms: N_10  and  C_11
REMARK    3  A    between atoms: C_11  and  C_12
REMARK    4  A    between atoms: C_12  and  S_13
REMARK    5  A    between atoms: S_13  and  C_14
REMARK                            x       y       z     vdW  Elec       q    Type
REMARK                         _______ _______ _______ _____ _____    ______ ____
ROOT
ATOM      1  C   UNL     1       2.894   8.461  17.856  0.00  0.00    +0.000 C 
ENDROOT
BRANCH   1   7
ATOM      2  N   UNL     1       3.774   4.792  18.005  0.00  0.00    +0.000 N 
ATOM      3  C   UNL     1       4.849   4.166  17.240  0.00  0.00    +0.000 C 
ATOM      4  C   UNL     1       5.121   5.181  16.138  0.00  0.00    +0.000 C 
ATOM      5  C   UNL     1       4.792   6.524  16.777  0.00  0.00    +0.000 C 
ATOM      6  C   UNL     1       3.661   6.164  17.748  0.00  0.00    +0.000 C 
ATOM      7  N   UNL     1       2.819   7.029  18.237  0.00  0.00    +0.000 NA
BRANCH   2  11
ATOM      8  C   UNL     1       1.231   2.360  20.389  0.00  0.00    +0.000 A 
ATOM      9  C   UNL     1       0.854   2.702  19.097  0.00  0.00    +0.000 A 
ATOM     10  C   UNL     1       1.715   3.478  18.310  0.00  0.00    +0.000 A 
ATOM     11  C   UNL     1       2.970   3.931  18.782  0.00  0.00    +0.000 A 
ATOM     12  C   UNL     1       3.343   3.525  20.067  0.00  0.00    +0.000 A 
ATOM     13  C   UNL     1       2.481   2.762  20.863  0.00  0.00    +0.000 A 
ENDBRANCH   2  11
ENDBRANCH   1   7
BRANCH   1  14
ATOM     14  C   UNL     1       1.469   9.088  17.591  0.00  0.00    +0.000 C 
BRANCH  14  15
ATOM     15  S   UNL     1       0.870   9.993  19.053  0.00  0.00    +0.000 S 
BRANCH  15  16
ATOM     16  C   UNL     1      -0.720  10.738  18.862  0.00  0.00    +0.000 A 
ATOM     17  C   UNL     1      -1.044  11.789  19.702  0.00  0.00    +0.000 A 
ATOM     18  N   UNL     1      -2.391  11.993  19.627  0.00  0.00    +0.000 N 
ATOM     19  C   UNL     1      -2.850  11.474  18.446  0.00  0.00    +0.000 A 
ATOM     20  C   UNL     1      -4.069  11.720  17.805  0.00  0.00    +0.000 A 
ATOM     21  C   UNL     1      -4.287  11.097  16.581  0.00  0.00    +0.000 A 
ATOM     22  C   UNL     1      -3.347  10.201  16.079  0.00  0.00    +0.000 A 
ATOM     23  C   UNL     1      -2.137   9.927  16.762  0.00  0.00    +0.000 A 
ATOM     24  C   UNL     1      -1.840  10.617  17.959  0.00  0.00    +0.000 A 
ATOM     25  H   UNL     1      -2.944  12.553  20.263  0.00  0.00    +0.000 HD
ENDBRANCH  15  16
ENDBRANCH  14  15
ENDBRANCH   1  14
TORSDOF 5
ENDMDL
MODEL 7
REMARK VINA RESULT:      -7.6      1.433      3.161
REMARK  Name = 
REMARK  5 active torsions:
REMARK  status: ('A' for Active; 'I' for Inactive)
REMARK    1  A    between atoms: C_4  and  N_5
REMARK    2  A    between atoms: N_10  and  C_11
REMARK    3  A    between atoms: C_11  and  C_12
REMARK    4  A    between atoms: C_12  and  S_13
REMARK    5  A    between atoms: S_13  and  C_14
REMARK                            x       y       z     vdW  Elec       q    Type
REMARK                         _______ _______ _______ _____ _____    ______ ____
ROOT
ATOM      1  C   UNL     1       1.802   8.289  19.084  0.00  0.00    +0.000 C 
ENDROOT
BRANCH   1   7
ATOM      2  N   UNL     1       3.556   4.946  19.133  0.00  0.00    +0.000 N 
ATOM      3  C   UNL     1       3.183   3.825  19.991  0.00  0.00    +0.000 C 
ATOM      4  C   UNL     1       2.339   4.489  21.072  0.00  0.00    +0.000 C 
ATOM      5  C   UNL     1       1.683   5.668  20.362  0.00  0.00    +0.000 C 
ATOM      6  C   UNL     1       2.743   6.069  19.330  0.00  0.00    +0.000 C 
ATOM      7  N   UNL     1       2.792   7.235  18.752  0.00  0.00    +0.000 NA
BRANCH   2  11
ATOM      8  C   UNL     1       7.030   4.622  16.704  0.00  0.00    +0.000 A 
ATOM      9  C   UNL     1       7.146   4.993  18.038  0.00  0.00    +0.000 A 
ATOM     10  C   UNL     1       5.997   5.066  18.836  0.00  0.00    +0.000 A 
ATOM     11  C   UNL     1       4.707   4.771  18.335  0.00  0.00    +0.000 A 
ATOM     12  C   UNL     1       4.631   4.348  17.003  0.00  0.00    +0.000 A 
ATOM     13  C   UNL     1       5.773   4.288  16.198  0.00  0.00    +0.000 A 
ENDBRANCH   2  11
ENDBRANCH   1   7
BRANCH   1  14
ATOM     14  C   UNL     1       1.810   9.473  18.039  0.00  0.00    +0.000 C 
BRANCH  14  15
ATOM     15  S   UNL     1       1.339  11.045  18.828  0.00  0.00    +0.000 S 
BRANCH  15  16
ATOM     16  C   UNL     1      -0.369  11.468  18.670  0.00  0.00    +0.000 A 
ATOM     17  C   UNL     1      -0.796  12.650  19.250  0.00  0.00    +0.000 A 
ATOM     18  N   UNL     1      -2.158  12.627  19.308  0.00  0.00    +0.000 N 
ATOM     19  C   UNL     1      -2.624  11.743  18.371  0.00  0.00    +0.000 A 
ATOM     20  C   UNL     1      -3.921  11.624  17.860  0.00  0.00    +0.000 A 
ATOM     21  C   UNL     1      -4.136  10.664  16.876  0.00  0.00    +0.000 A 
ATOM     22  C   UNL     1      -3.102   9.812  16.497  0.00  0.00    +0.000 A 
ATOM     23  C   UNL     1      -1.806   9.916  17.057  0.00  0.00    +0.000 A 
ATOM     24  C   UNL     1      -1.528  10.943  17.987  0.00  0.00    +0.000 A 
ATOM     25  H   UNL     1      -2.742  13.252  19.849  0.00  0.00    +0.000 HD
ENDBRANCH  15  16
ENDBRANCH  14  15
ENDBRANCH   1  14
TORSDOF 5
ENDMDL
MODEL 8
REMARK VINA RESULT:      -7.6      3.369      8.062
REMARK  Name = 
REMARK  5 active torsions:
REMARK  status: ('A' for Active; 'I' for Inactive)
REMARK    1  A    between atoms: C_4  and  N_5
REMARK    2  A    between atoms: N_10  and  C_11
REMARK    3  A    between atoms: C_11  and  C_12
REMARK    4  A    between atoms: C_12  and  S_13
REMARK    5  A    between atoms: S_13  and  C_14
REMARK                            x       y       z     vdW  Elec       q    Type
REMARK                         _______ _______ _______ _____ _____    ______ ____
ROOT
ATOM      1  C   UNL     1       2.128   4.826  20.477  0.00  0.00    +0.000 C 
ENDROOT
BRANCH   1   7
ATOM      2  N   UNL     1       1.332   8.428  19.674  0.00  0.00    +0.000 N 
ATOM      3  C   UNL     1       1.766   9.124  18.466  0.00  0.00    +0.000 C 
ATOM      4  C   UNL     1       2.907   8.250  17.960  0.00  0.00    +0.000 C 
ATOM      5  C   UNL     1       2.528   6.844  18.408  0.00  0.00    +0.000 C 
ATOM      6  C   UNL     1       1.779   7.101  19.721  0.00  0.00    +0.000 C 
ATOM      7  N   UNL     1       1.592   6.199  20.640  0.00  0.00    +0.000 NA
BRANCH   2  11
ATOM      8  C   UNL     1      -0.610  10.894  22.540  0.00  0.00    +0.000 A 
ATOM      9  C   UNL     1      -0.723  11.181  21.185  0.00  0.00    +0.000 A 
ATOM     10  C   UNL     1      -0.105  10.343  20.249  0.00  0.00    +0.000 A 
ATOM     11  C   UNL     1       0.638   9.200  20.630  0.00  0.00    +0.000 A 
ATOM     12  C   UNL     1       0.688   8.909  21.998  0.00  0.00    +0.000 A 
ATOM     13  C   UNL     1       0.084   9.750  22.938  0.00  0.00    +0.000 A 
ENDBRANCH   2  11
ENDBRANCH   1   7
BRANCH   1  14
ATOM     14  C   UNL     1       1.238   3.942  19.518  0.00  0.00    +0.000 C 
BRANCH  14  15
ATOM     15  S   UNL     1       2.273   2.914  18.428  0.00  0.00    +0.000 S 
BRANCH  15  16
ATOM     16  C   UNL     1       3.947   3.455  18.272  0.00  0.00    +0.000 A 
ATOM     17  C   UNL     1       4.799   3.229  19.340  0.00  0.00    +0.000 A 
ATOM     18  N   UNL     1       5.913   3.997  19.164  0.00  0.00    +0.000 N 
ATOM     19  C   UNL     1       6.029   4.306  17.834  0.00  0.00    +0.000 A 
ATOM     20  C   UNL     1       7.149   4.791  17.151  0.00  0.00    +0.000 A 
ATOM     21  C   UNL     1       7.026   4.992  15.780  0.00  0.00    +0.000 A 
ATOM     22  C   UNL     1       5.798   4.792  15.155  0.00  0.00    +0.000 A 
ATOM     23  C   UNL     1       4.660   4.345  15.870  0.00  0.00    +0.000 A 
ATOM     24  C   UNL     1       4.777   4.037  17.244  0.00  0.00    +0.000 A 
ATOM     25  H   UNL     1       6.616   4.194  19.863  0.00  0.00    +0.000 HD
ENDBRANCH  15  16
ENDBRANCH  14  15
ENDBRANCH   1  14
TORSDOF 5
ENDMDL
MODEL 9
REMARK VINA RESULT:      -7.5      1.764      3.113
REMARK  Name = 
REMARK  5 active torsions:
REMARK  status: ('A' for Active; 'I' for Inactive)
REMARK    1  A    between atoms: C_4  and  N_5
REMARK    2  A    between atoms: N_10  and  C_11
REMARK    3  A    between atoms: C_11  and  C_12
REMARK    4  A    between atoms: C_12  and  S_13
REMARK    5  A    between atoms: S_13  and  C_14
REMARK                            x       y       z     vdW  Elec       q    Type
REMARK                         _______ _______ _______ _____ _____    ______ ____
ROOT
ATOM      1  C   UNL     1       2.417   8.887  17.862  0.00  0.00    +0.000 C 
ENDROOT
BRANCH   1   7
ATOM      2  N   UNL     1       3.510   5.300  18.311  0.00  0.00    +0.000 N 
ATOM      3  C   UNL     1       4.648   4.689  17.631  0.00  0.00    +0.000 C 
ATOM      4  C   UNL     1       4.901   5.638  16.466  0.00  0.00    +0.000 C 
ATOM      5  C   UNL     1       4.467   7.001  16.993  0.00  0.00    +0.000 C 
ATOM      6  C   UNL     1       3.324   6.641  17.949  0.00  0.00    +0.000 C 
ATOM      7  N   UNL     1       2.414   7.484  18.345  0.00  0.00    +0.000 NA
BRANCH   2  11
ATOM      8  C   UNL     1       0.999   2.860  20.720  0.00  0.00    +0.000 A 
ATOM      9  C   UNL     1       0.944   2.760  19.336  0.00  0.00    +0.000 A 
ATOM     10  C   UNL     1       1.799   3.547  18.554  0.00  0.00    +0.000 A 
ATOM     11  C   UNL     1       2.729   4.449  19.122  0.00  0.00    +0.000 A 
ATOM     12  C   UNL     1       2.797   4.486  20.519  0.00  0.00    +0.000 A 
ATOM     13  C   UNL     1       1.936   3.713  21.305  0.00  0.00    +0.000 A 
ENDBRANCH   2  11
ENDBRANCH   1   7
BRANCH   1  14
ATOM     14  C   UNL     1       0.999   9.571  17.991  0.00  0.00    +0.000 C 
BRANCH  14  15
ATOM     15  S   UNL     1       1.103  11.112  18.955  0.00  0.00    +0.000 S 
BRANCH  15  16
ATOM     16  C   UNL     1      -0.447  11.720  19.544  0.00  0.00    +0.000 A 
ATOM     17  C   UNL     1      -1.393  12.095  18.604  0.00  0.00    +0.000 A 
ATOM     18  N   UNL     1      -2.353  12.829  19.236  0.00  0.00    +0.000 N 
ATOM     19  C   UNL     1      -2.331  12.527  20.571  0.00  0.00    +0.000 A 
ATOM     20  C   UNL     1      -3.311  12.785  21.536  0.00  0.00    +0.000 A 
ATOM     21  C   UNL     1      -3.068  12.339  22.831  0.00  0.00    +0.000 A 
ATOM     22  C   UNL     1      -1.851  11.740  23.145  0.00  0.00    +0.000 A 
ATOM     23  C   UNL     1      -0.851  11.526  22.166  0.00  0.00    +0.000 A 
ATOM     24  C   UNL     1      -1.103  11.878  20.821  0.00  0.00    +0.000 A 
ATOM     25  H   UNL     1      -3.058  13.397  18.786  0.00  0.00    +0.000 HD
ENDBRANCH  15  16
ENDBRANCH  14  15
ENDBRANCH   1  14
TORSDOF 5
ENDMDL
