MODEL 1
REMARK VINA RESULT:      -8.6      0.000      0.000
REMARK  Name = 
REMARK  3 active torsions:
REMARK  status: ('A' for Active; 'I' for Inactive)
REMARK    1  A    between atoms: C_18  and  C_19
REMARK    2  A    between atoms: C_19  and  C_20
REMARK    3  A    between atoms: C_20  and  C_21
REMARK                            x       y       z     vdW  Elec       q    Type
REMARK                         _______ _______ _______ _____ _____    ______ ____
ROOT
ATOM      1  O   UNL     1       1.501   7.811  21.412  0.00  0.00    +0.000 OA
ATOM      2  C   UNL     1       1.227   8.630  20.559  0.00  0.00    +0.000 C 
ATOM      3  C   UNL     1       0.320   9.762  20.791  0.00  0.00    +0.000 A 
ATOM      4  C   UNL     1      -0.329  10.175  21.946  0.00  0.00    +0.000 A 
ATOM      5 CL   UNL     1      -0.115   9.323  23.434  0.00  0.00    +0.000 Cl
ATOM      6  C   UNL     1      -1.139  11.324  21.868  0.00  0.00    +0.000 A 
ATOM      7 CL   UNL     1      -1.952  11.902  23.296  0.00  0.00    +0.000 Cl
ATOM      8  C   UNL     1      -1.286  12.019  20.638  0.00  0.00    +0.000 A 
ATOM      9 CL   UNL     1      -2.294  13.437  20.558  0.00  0.00    +0.000 Cl
ATOM     10  C   UNL     1      -0.609  11.580  19.482  0.00  0.00    +0.000 A 
ATOM     11 CL   UNL     1      -0.766  12.399  17.971  0.00  0.00    +0.000 Cl
ATOM     12  C   UNL     1       0.199  10.458  19.594  0.00  0.00    +0.000 A 
ATOM     13  C   UNL     1       1.074   9.799  18.612  0.00  0.00    +0.000 C 
ATOM     14  O   UNL     1       1.253  10.159  17.463  0.00  0.00    +0.000 OA
ATOM     15  N   UNL     1       1.637   8.741  19.260  0.00  0.00    +0.000 N 
ATOM     16  C   UNL     1       2.524   7.873  18.672  0.00  0.00    +0.000 A 
ATOM     17  N   UNL     1       3.029   6.771  19.170  0.00  0.00    +0.000 NA
ATOM     18  C   UNL     1       3.806   6.270  18.160  0.00  0.00    +0.000 A 
ATOM     19  N   UNL     1       3.856   7.041  17.068  0.00  0.00    +0.000 NA
ATOM     20  N   UNL     1       3.032   8.047  17.410  0.00  0.00    +0.000 N 
ATOM     21  H   UNL     1       2.859   8.812  16.763  0.00  0.00    +0.000 HD
ENDROOT
BRANCH  18  22
ATOM     22  C   UNL     1       4.521   4.971  18.270  0.00  0.00    +0.000 C 
BRANCH  22  23
ATOM     23  C   UNL     1       3.615   3.775  17.955  0.00  0.00    +0.000 C 
BRANCH  23  24
ATOM     24  C   UNL     1       2.787   3.378  19.154  0.00  0.00    +0.000 A 
ATOM     25  C   UNL     1       1.393   3.519  19.128  0.00  0.00    +0.000 A 
ATOM     26  C   UNL     1       0.634   3.233  20.263  0.00  0.00    +0.000 A 
ATOM     27  C   UNL     1       1.260   2.790  21.427  0.00  0.00    +0.000 A 
ATOM     28  C   UNL     1       2.643   2.622  21.454  0.00  0.00    +0.000 A 
ATOM     29  C   UNL     1       3.406   2.918  20.323  0.00  0.00    +0.000 A 
ENDBRANCH  23  24
ENDBRANCH  22  23
ENDBRANCH  18  22
TORSDOF 3
ENDMDL
MODEL 2
REMARK VINA RESULT:      -8.6      3.720      8.167
REMARK  Name = 
REMARK  3 active torsions:
REMARK  status: ('A' for Active; 'I' for Inactive)
REMARK    1  A    between atoms: C_18  and  C_19
REMARK    2  A    between atoms: C_19  and  C_20
REMARK    3  A    between atoms: C_20  and  C_21
REMARK                            x       y       z     vdW  Elec       q    Type
REMARK                         _______ _______ _______ _____ _____    ______ ____
ROOT
ATOM      1  O   UNL     1       1.219   7.336  21.019  0.00  0.00    +0.000 OA
ATOM      2  C   UNL     1       1.803   7.452  19.960  0.00  0.00    +0.000 C 
ATOM      3  C   UNL     1       2.710   6.428  19.425  0.00  0.00    +0.000 A 
ATOM      4  C   UNL     1       3.038   5.171  19.914  0.00  0.00    +0.000 A 
ATOM      5 CL   UNL     1       2.327   4.574  21.371  0.00  0.00    +0.000 Cl
ATOM      6  C   UNL     1       3.943   4.393  19.166  0.00  0.00    +0.000 A 
ATOM      7 CL   UNL     1       4.365   2.796  19.719  0.00  0.00    +0.000 Cl
ATOM      8  C   UNL     1       4.500   4.897  17.961  0.00  0.00    +0.000 A 
ATOM      9 CL   UNL     1       5.621   3.923  17.050  0.00  0.00    +0.000 Cl
ATOM     10  C   UNL     1       4.143   6.175  17.486  0.00  0.00    +0.000 A 
ATOM     11 CL   UNL     1       4.802   6.820  16.027  0.00  0.00    +0.000 Cl
ATOM     12  C   UNL     1       3.233   6.910  18.232  0.00  0.00    +0.000 A 
ATOM     13  C   UNL     1       2.616   8.221  17.979  0.00  0.00    +0.000 C 
ATOM     14  O   UNL     1       2.807   8.922  17.002  0.00  0.00    +0.000 OA
ATOM     15  N   UNL     1       1.792   8.460  19.038  0.00  0.00    +0.000 N 
ATOM     16  C   UNL     1       1.031   9.596  19.169  0.00  0.00    +0.000 A 
ATOM     17  N   UNL     1       0.303   9.967  20.193  0.00  0.00    +0.000 NA
ATOM     18  C   UNL     1      -0.199  11.187  19.823  0.00  0.00    +0.000 A 
ATOM     19  N   UNL     1       0.140  11.572  18.587  0.00  0.00    +0.000 NA
ATOM     20  N   UNL     1       0.924  10.553  18.194  0.00  0.00    +0.000 N 
ATOM     21  H   UNL     1       1.347  10.559  17.269  0.00  0.00    +0.000 HD
ENDROOT
BRANCH  18  22
ATOM     22  C   UNL     1      -1.036  12.016  20.731  0.00  0.00    +0.000 C 
BRANCH  22  23
ATOM     23  C   UNL     1      -0.839  11.650  22.207  0.00  0.00    +0.000 C 
BRANCH  23  24
ATOM     24  C   UNL     1      -1.703  12.502  23.106  0.00  0.00    +0.000 A 
ATOM     25  C   UNL     1      -2.955  12.035  23.532  0.00  0.00    +0.000 A 
ATOM     26  C   UNL     1      -3.791  12.853  24.292  0.00  0.00    +0.000 A 
ATOM     27  C   UNL     1      -3.378  14.137  24.646  0.00  0.00    +0.000 A 
ATOM     28  C   UNL     1      -2.124  14.600  24.250  0.00  0.00    +0.000 A 
ATOM     29  C   UNL     1      -1.290  13.787  23.479  0.00  0.00    +0.000 A 
ENDBRANCH  23  24
ENDBRANCH  22  23
ENDBRANCH  18  22
TORSDOF 3
ENDMDL
MODEL 3
REMARK VINA RESULT:      -8.5      4.082      8.234
REMARK  Name = 
REMARK  3 active torsions:
REMARK  status: ('A' for Active; 'I' for Inactive)
REMARK    1  A    between atoms: C_18  and  C_19
REMARK    2  A    between atoms: C_19  and  C_20
REMARK    3  A    between atoms: C_20  and  C_21
REMARK                            x       y       z     vdW  Elec       q    Type
REMARK                         _______ _______ _______ _____ _____    ______ ____
ROOT
ATOM      1  O   UNL     1       3.209   8.139  17.682  0.00  0.00    +0.000 OA
ATOM      2  C   UNL     1       2.903   7.175  18.355  0.00  0.00    +0.000 C 
ATOM      3  C   UNL     1       3.371   5.813  18.068  0.00  0.00    +0.000 A 
ATOM      4  C   UNL     1       4.247   5.347  17.097  0.00  0.00    +0.000 A 
ATOM      5 CL   UNL     1       4.997   6.435  15.985  0.00  0.00    +0.000 Cl
ATOM      6  C   UNL     1       4.522   3.966  17.072  0.00  0.00    +0.000 A 
ATOM      7 CL   UNL     1       5.636   3.333  15.892  0.00  0.00    +0.000 Cl
ATOM      8  C   UNL     1       3.908   3.092  18.008  0.00  0.00    +0.000 A 
ATOM      9 CL   UNL     1       4.257   1.386  17.961  0.00  0.00    +0.000 Cl
ATOM     10  C   UNL     1       3.028   3.596  18.987  0.00  0.00    +0.000 A 
ATOM     11 CL   UNL     1       2.263   2.563  20.139  0.00  0.00    +0.000 Cl
ATOM     12  C   UNL     1       2.792   4.962  19.002  0.00  0.00    +0.000 A 
ATOM     13  C   UNL     1       1.997   5.793  19.919  0.00  0.00    +0.000 C 
ATOM     14  O   UNL     1       1.378   5.393  20.888  0.00  0.00    +0.000 OA
ATOM     15  N   UNL     1       2.118   7.073  19.468  0.00  0.00    +0.000 N 
ATOM     16  C   UNL     1       1.514   8.151  20.067  0.00  0.00    +0.000 A 
ATOM     17  N   UNL     1       1.476   9.393  19.649  0.00  0.00    +0.000 NA
ATOM     18  C   UNL     1       0.710  10.039  20.583  0.00  0.00    +0.000 A 
ATOM     19  N   UNL     1       0.311   9.266  21.600  0.00  0.00    +0.000 NA
ATOM     20  N   UNL     1       0.825   8.074  21.250  0.00  0.00    +0.000 N 
ATOM     21  H   UNL     1       0.684   7.261  21.844  0.00  0.00    +0.000 HD
ENDROOT
BRANCH  18  22
ATOM     22  C   UNL     1       0.344  11.475  20.462  0.00  0.00    +0.000 C 
BRANCH  22  23
ATOM     23  C   UNL     1       0.018  11.877  19.019  0.00  0.00    +0.000 C 
BRANCH  23  24
ATOM     24  C   UNL     1      -1.348  11.384  18.603  0.00  0.00    +0.000 A 
ATOM     25  C   UNL     1      -1.469  10.301  17.722  0.00  0.00    +0.000 A 
ATOM     26  C   UNL     1      -2.725   9.896  17.270  0.00  0.00    +0.000 A 
ATOM     27  C   UNL     1      -3.870  10.560  17.706  0.00  0.00    +0.000 A 
ATOM     28  C   UNL     1      -3.762  11.621  18.603  0.00  0.00    +0.000 A 
ATOM     29  C   UNL     1      -2.505  12.035  19.049  0.00  0.00    +0.000 A 
ENDBRANCH  23  24
ENDBRANCH  22  23
ENDBRANCH  18  22
TORSDOF 3
ENDMDL
MODEL 4
REMARK VINA RESULT:      -8.3      3.782      8.229
REMARK  Name = 
REMARK  3 active torsions:
REMARK  status: ('A' for Active; 'I' for Inactive)
REMARK    1  A    between atoms: C_18  and  C_19
REMARK    2  A    between atoms: C_19  and  C_20
REMARK    3  A    between atoms: C_20  and  C_21
REMARK                            x       y       z     vdW  Elec       q    Type
REMARK                         _______ _______ _______ _____ _____    ______ ____
ROOT
ATOM      1  O   UNL     1       1.294   7.254  21.140  0.00  0.00    +0.000 OA
ATOM      2  C   UNL     1       1.827   7.409  20.059  0.00  0.00    +0.000 C 
ATOM      3  C   UNL     1       2.693   6.401  19.437  0.00  0.00    +0.000 A 
ATOM      4  C   UNL     1       3.029   5.120  19.853  0.00  0.00    +0.000 A 
ATOM      5 CL   UNL     1       2.383   4.467  21.316  0.00  0.00    +0.000 Cl
ATOM      6  C   UNL     1       3.886   4.366  19.029  0.00  0.00    +0.000 A 
ATOM      7 CL   UNL     1       4.315   2.742  19.490  0.00  0.00    +0.000 Cl
ATOM      8  C   UNL     1       4.390   4.917  17.821  0.00  0.00    +0.000 A 
ATOM      9 CL   UNL     1       5.453   3.972  16.814  0.00  0.00    +0.000 Cl
ATOM     10  C   UNL     1       4.026   6.218  17.420  0.00  0.00    +0.000 A 
ATOM     11 CL   UNL     1       4.622   6.919  15.959  0.00  0.00    +0.000 Cl
ATOM     12  C   UNL     1       3.164   6.929  18.241  0.00  0.00    +0.000 A 
ATOM     13  C   UNL     1       2.552   8.256  18.076  0.00  0.00    +0.000 C 
ATOM     14  O   UNL     1       2.704   8.998  17.122  0.00  0.00    +0.000 OA
ATOM     15  N   UNL     1       1.784   8.457  19.184  0.00  0.00    +0.000 N 
ATOM     16  C   UNL     1       1.045   9.594  19.401  0.00  0.00    +0.000 A 
ATOM     17  N   UNL     1       0.372   9.928  20.475  0.00  0.00    +0.000 NA
ATOM     18  C   UNL     1      -0.131  11.168  20.184  0.00  0.00    +0.000 A 
ATOM     19  N   UNL     1       0.152  11.604  18.951  0.00  0.00    +0.000 NA
ATOM     20  N   UNL     1       0.902  10.595  18.475  0.00  0.00    +0.000 N 
ATOM     21  H   UNL     1       1.279  10.637  17.532  0.00  0.00    +0.000 HD
ENDROOT
BRANCH  18  22
ATOM     22  C   UNL     1      -0.912  11.965  21.167  0.00  0.00    +0.000 C 
BRANCH  22  23
ATOM     23  C   UNL     1      -2.276  12.399  20.618  0.00  0.00    +0.000 C 
BRANCH  23  24
ATOM     24  C   UNL     1      -3.275  12.616  21.730  0.00  0.00    +0.000 A 
ATOM     25  C   UNL     1      -2.889  12.453  23.068  0.00  0.00    +0.000 A 
ATOM     26  C   UNL     1      -3.829  12.571  24.092  0.00  0.00    +0.000 A 
ATOM     27  C   UNL     1      -5.157  12.867  23.790  0.00  0.00    +0.000 A 
ATOM     28  C   UNL     1      -5.545  13.057  22.465  0.00  0.00    +0.000 A 
ATOM     29  C   UNL     1      -4.608  12.929  21.437  0.00  0.00    +0.000 A 
ENDBRANCH  23  24
ENDBRANCH  22  23
ENDBRANCH  18  22
TORSDOF 3
ENDMDL
MODEL 5
REMARK VINA RESULT:      -8.3      3.928      8.290
REMARK  Name = 
REMARK  3 active torsions:
REMARK  status: ('A' for Active; 'I' for Inactive)
REMARK    1  A    between atoms: C_18  and  C_19
REMARK    2  A    between atoms: C_19  and  C_20
REMARK    3  A    between atoms: C_20  and  C_21
REMARK                            x       y       z     vdW  Elec       q    Type
REMARK                         _______ _______ _______ _____ _____    ______ ____
ROOT
ATOM      1  O   UNL     1       2.785   8.628  17.322  0.00  0.00    +0.000 OA
ATOM      2  C   UNL     1       2.599   7.868  18.251  0.00  0.00    +0.000 C 
ATOM      3  C   UNL     1       3.217   6.538  18.339  0.00  0.00    +0.000 A 
ATOM      4  C   UNL     1       4.129   5.911  17.502  0.00  0.00    +0.000 A 
ATOM      5 CL   UNL     1       4.738   6.712  16.098  0.00  0.00    +0.000 Cl
ATOM      6  C   UNL     1       4.560   4.617  17.854  0.00  0.00    +0.000 A 
ATOM      7 CL   UNL     1       5.727   3.798  16.854  0.00  0.00    +0.000 Cl
ATOM      8  C   UNL     1       4.060   3.986  19.024  0.00  0.00    +0.000 A 
ATOM      9 CL   UNL     1       4.600   2.384  19.443  0.00  0.00    +0.000 Cl
ATOM     10  C   UNL     1       3.139   4.651  19.859  0.00  0.00    +0.000 A 
ATOM     11 CL   UNL     1       2.508   3.912  21.286  0.00  0.00    +0.000 Cl
ATOM     12  C   UNL     1       2.748   5.932  19.499  0.00  0.00    +0.000 A 
ATOM     13  C   UNL     1       1.873   6.899  20.178  0.00  0.00    +0.000 C 
ATOM     14  O   UNL     1       1.315   6.727  21.246  0.00  0.00    +0.000 OA
ATOM     15  N   UNL     1       1.843   8.004  19.381  0.00  0.00    +0.000 N 
ATOM     16  C   UNL     1       1.125   9.137  19.678  0.00  0.00    +0.000 A 
ATOM     17  N   UNL     1       0.942  10.197  18.930  0.00  0.00    +0.000 NA
ATOM     18  C   UNL     1       0.117  10.996  19.676  0.00  0.00    +0.000 A 
ATOM     19  N   UNL     1      -0.180  10.506  20.885  0.00  0.00    +0.000 NA
ATOM     20  N   UNL     1       0.463   9.326  20.863  0.00  0.00    +0.000 N 
ATOM     21  H   UNL     1       0.422   8.704  21.667  0.00  0.00    +0.000 HD
ENDROOT
BRANCH  18  22
ATOM     22  C   UNL     1      -0.412  12.291  19.172  0.00  0.00    +0.000 C 
BRANCH  22  23
ATOM     23  C   UNL     1      -1.927  12.422  19.369  0.00  0.00    +0.000 C 
BRANCH  23  24
ATOM     24  C   UNL     1      -2.689  11.807  18.220  0.00  0.00    +0.000 A 
ATOM     25  C   UNL     1      -2.005  11.335  17.091  0.00  0.00    +0.000 A 
ATOM     26  C   UNL     1      -2.711  10.843  15.993  0.00  0.00    +0.000 A 
ATOM     27  C   UNL     1      -4.104  10.805  16.020  0.00  0.00    +0.000 A 
ATOM     28  C   UNL     1      -4.792  11.247  17.148  0.00  0.00    +0.000 A 
ATOM     29  C   UNL     1      -4.088  11.750  18.244  0.00  0.00    +0.000 A 
ENDBRANCH  23  24
ENDBRANCH  22  23
ENDBRANCH  18  22
TORSDOF 3
ENDMDL
MODEL 6
REMARK VINA RESULT:      -8.3      2.637      4.793
REMARK  Name = 
REMARK  3 active torsions:
REMARK  status: ('A' for Active; 'I' for Inactive)
REMARK    1  A    between atoms: C_18  and  C_19
REMARK    2  A    between atoms: C_19  and  C_20
REMARK    3  A    between atoms: C_20  and  C_21
REMARK                            x       y       z     vdW  Elec       q    Type
REMARK                         _______ _______ _______ _____ _____    ______ ____
ROOT
ATOM      1  O   UNL     1       1.958  10.306  17.577  0.00  0.00    +0.000 OA
ATOM      2  C   UNL     1       1.596   9.797  18.619  0.00  0.00    +0.000 C 
ATOM      3  C   UNL     1       0.690  10.460  19.565  0.00  0.00    +0.000 A 
ATOM      4  C   UNL     1       0.033  11.680  19.481  0.00  0.00    +0.000 A 
ATOM      5 CL   UNL     1       0.203  12.682  18.083  0.00  0.00    +0.000 Cl
ATOM      6  C   UNL     1      -0.795  12.055  20.556  0.00  0.00    +0.000 A 
ATOM      7 CL   UNL     1      -1.665  13.562  20.487  0.00  0.00    +0.000 Cl
ATOM      8  C   UNL     1      -0.934  11.206  21.686  0.00  0.00    +0.000 A 
ATOM      9 CL   UNL     1      -1.960  11.686  23.010  0.00  0.00    +0.000 Cl
ATOM     10  C   UNL     1      -0.259   9.970  21.741  0.00  0.00    +0.000 A 
ATOM     11 CL   UNL     1      -0.404   8.915  23.100  0.00  0.00    +0.000 Cl
ATOM     12  C   UNL     1       0.532   9.617  20.659  0.00  0.00    +0.000 A 
ATOM     13  C   UNL     1       1.296   8.391  20.382  0.00  0.00    +0.000 C 
ATOM     14  O   UNL     1       1.357   7.412  21.103  0.00  0.00    +0.000 OA
ATOM     15  N   UNL     1       1.886   8.581  19.168  0.00  0.00    +0.000 N 
ATOM     16  C   UNL     1       2.691   7.649  18.560  0.00  0.00    +0.000 A 
ATOM     17  N   UNL     1       3.389   7.779  17.458  0.00  0.00    +0.000 NA
ATOM     18  C   UNL     1       4.042   6.583  17.331  0.00  0.00    +0.000 A 
ATOM     19  N   UNL     1       3.741   5.685  18.276  0.00  0.00    +0.000 NA
ATOM     20  N   UNL     1       2.889   6.383  19.047  0.00  0.00    +0.000 N 
ATOM     21  H   UNL     1       2.477   5.956  19.873  0.00  0.00    +0.000 HD
ENDROOT
BRANCH  18  22
ATOM     22  C   UNL     1       5.015   6.315  16.239  0.00  0.00    +0.000 C 
BRANCH  22  23
ATOM     23  C   UNL     1       5.173   4.818  15.948  0.00  0.00    +0.000 C 
BRANCH  23  24
ATOM     24  C   UNL     1       5.806   4.583  14.597  0.00  0.00    +0.000 A 
ATOM     25  C   UNL     1       5.185   3.743  13.662  0.00  0.00    +0.000 A 
ATOM     26  C   UNL     1       5.809   3.456  12.448  0.00  0.00    +0.000 A 
ATOM     27  C   UNL     1       7.050   4.018  12.151  0.00  0.00    +0.000 A 
ATOM     28  C   UNL     1       7.663   4.875  13.063  0.00  0.00    +0.000 A 
ATOM     29  C   UNL     1       7.046   5.155  14.284  0.00  0.00    +0.000 A 
ENDBRANCH  23  24
ENDBRANCH  22  23
ENDBRANCH  18  22
TORSDOF 3
ENDMDL
MODEL 7
REMARK VINA RESULT:      -8.2      2.110      2.985
REMARK  Name = 
REMARK  3 active torsions:
REMARK  status: ('A' for Active; 'I' for Inactive)
REMARK    1  A    between atoms: C_18  and  C_19
REMARK    2  A    between atoms: C_19  and  C_20
REMARK    3  A    between atoms: C_20  and  C_21
REMARK                            x       y       z     vdW  Elec       q    Type
REMARK                         _______ _______ _______ _____ _____    ______ ____
ROOT
ATOM      1  O   UNL     1      -0.577  10.192  21.343  0.00  0.00    +0.000 OA
ATOM      2  C   UNL     1      -0.417  11.229  20.731  0.00  0.00    +0.000 C 
ATOM      3  C   UNL     1      -1.051  12.497  21.116  0.00  0.00    +0.000 A 
ATOM      4  C   UNL     1      -1.852  12.809  22.206  0.00  0.00    +0.000 A 
ATOM      5 CL   UNL     1      -2.236  11.614  23.393  0.00  0.00    +0.000 Cl
ATOM      6  C   UNL     1      -2.312  14.135  22.323  0.00  0.00    +0.000 A 
ATOM      7 CL   UNL     1      -3.296  14.586  23.687  0.00  0.00    +0.000 Cl
ATOM      8  C   UNL     1      -1.968  15.104  21.344  0.00  0.00    +0.000 A 
ATOM      9 CL   UNL     1      -2.548  16.739  21.502  0.00  0.00    +0.000 Cl
ATOM     10  C   UNL     1      -1.147  14.759  20.251  0.00  0.00    +0.000 A 
ATOM     11 CL   UNL     1      -0.711  15.912  19.043  0.00  0.00    +0.000 Cl
ATOM     12  C   UNL     1      -0.691  13.452  20.174  0.00  0.00    +0.000 A 
ATOM     13  C   UNL     1       0.218  12.804  19.216  0.00  0.00    +0.000 C 
ATOM     14  O   UNL     1       0.766  13.347  18.274  0.00  0.00    +0.000 OA
ATOM     15  N   UNL     1       0.324  11.506  19.617  0.00  0.00    +0.000 N 
ATOM     16  C   UNL     1       1.094  10.570  18.970  0.00  0.00    +0.000 A 
ATOM     17  N   UNL     1       1.172   9.284  19.207  0.00  0.00    +0.000 NA
ATOM     18  C   UNL     1       2.035   8.818  18.251  0.00  0.00    +0.000 A 
ATOM     19  N   UNL     1       2.546   9.767  17.459  0.00  0.00    +0.000 NA
ATOM     20  N   UNL     1       1.932  10.868  17.927  0.00  0.00    +0.000 N 
ATOM     21  H   UNL     1       2.120  11.776  17.511  0.00  0.00    +0.000 HD
ENDROOT
BRANCH  18  22
ATOM     22  C   UNL     1       2.361   7.375  18.103  0.00  0.00    +0.000 C 
BRANCH  22  23
ATOM     23  C   UNL     1       2.577   6.680  19.453  0.00  0.00    +0.000 C 
BRANCH  23  24
ATOM     24  C   UNL     1       2.051   5.265  19.436  0.00  0.00    +0.000 A 
ATOM     25  C   UNL     1       1.928   4.572  18.223  0.00  0.00    +0.000 A 
ATOM     26  C   UNL     1       1.364   3.296  18.195  0.00  0.00    +0.000 A 
ATOM     27  C   UNL     1       0.934   2.696  19.377  0.00  0.00    +0.000 A 
ATOM     28  C   UNL     1       1.077   3.367  20.590  0.00  0.00    +0.000 A 
ATOM     29  C   UNL     1       1.631   4.648  20.621  0.00  0.00    +0.000 A 
ENDBRANCH  23  24
ENDBRANCH  22  23
ENDBRANCH  18  22
TORSDOF 3
ENDMDL
MODEL 8
REMARK VINA RESULT:      -8.2      3.929      8.268
REMARK  Name = 
REMARK  3 active torsions:
REMARK  status: ('A' for Active; 'I' for Inactive)
REMARK    1  A    between atoms: C_18  and  C_19
REMARK    2  A    between atoms: C_19  and  C_20
REMARK    3  A    between atoms: C_20  and  C_21
REMARK                            x       y       z     vdW  Elec       q    Type
REMARK                         _______ _______ _______ _____ _____    ______ ____
ROOT
ATOM      1  O   UNL     1       1.283   5.714  21.022  0.00  0.00    +0.000 OA
ATOM      2  C   UNL     1       1.886   6.159  20.066  0.00  0.00    +0.000 C 
ATOM      3  C   UNL     1       2.691   5.327  19.164  0.00  0.00    +0.000 A 
ATOM      4  C   UNL     1       2.887   3.953  19.140  0.00  0.00    +0.000 A 
ATOM      5 CL   UNL     1       2.107   2.927  20.291  0.00  0.00    +0.000 Cl
ATOM      6  C   UNL     1       3.717   3.427  18.132  0.00  0.00    +0.000 A 
ATOM      7 CL   UNL     1       3.973   1.706  18.039  0.00  0.00    +0.000 Cl
ATOM      8  C   UNL     1       4.333   4.287  17.185  0.00  0.00    +0.000 A 
ATOM      9 CL   UNL     1       5.360   3.621  15.946  0.00  0.00    +0.000 Cl
ATOM     10  C   UNL     1       4.110   5.678  17.230  0.00  0.00    +0.000 A 
ATOM     11 CL   UNL     1       4.844   6.754  16.097  0.00  0.00    +0.000 Cl
ATOM     12  C   UNL     1       3.271   6.166  18.220  0.00  0.00    +0.000 A 
ATOM     13  C   UNL     1       2.790   7.529  18.491  0.00  0.00    +0.000 C 
ATOM     14  O   UNL     1       3.060   8.522  17.840  0.00  0.00    +0.000 OA
ATOM     15  N   UNL     1       1.984   7.435  19.586  0.00  0.00    +0.000 N 
ATOM     16  C   UNL     1       1.339   8.507  20.151  0.00  0.00    +0.000 A 
ATOM     17  N   UNL     1       0.642   8.539  21.260  0.00  0.00    +0.000 NA
ATOM     18  C   UNL     1       0.268   9.850  21.385  0.00  0.00    +0.000 A 
ATOM     19  N   UNL     1       0.655  10.634  20.372  0.00  0.00    +0.000 NA
ATOM     20  N   UNL     1       1.337   9.765  19.605  0.00  0.00    +0.000 N 
ATOM     21  H   UNL     1       1.767  10.074  18.738  0.00  0.00    +0.000 HD
ENDROOT
BRANCH  18  22
ATOM     22  C   UNL     1      -0.491  10.357  22.559  0.00  0.00    +0.000 C 
BRANCH  22  23
ATOM     23  C   UNL     1      -0.690  11.877  22.517  0.00  0.00    +0.000 C 
BRANCH  23  24
ATOM     24  C   UNL     1      -2.144  12.237  22.327  0.00  0.00    +0.000 A 
ATOM     25  C   UNL     1      -2.641  12.518  21.047  0.00  0.00    +0.000 A 
ATOM     26  C   UNL     1      -3.962  12.933  20.878  0.00  0.00    +0.000 A 
ATOM     27  C   UNL     1      -4.801  13.057  21.985  0.00  0.00    +0.000 A 
ATOM     28  C   UNL     1      -4.324  12.754  23.259  0.00  0.00    +0.000 A 
ATOM     29  C   UNL     1      -2.999  12.349  23.431  0.00  0.00    +0.000 A 
ENDBRANCH  23  24
ENDBRANCH  22  23
ENDBRANCH  18  22
TORSDOF 3
ENDMDL
MODEL 9
REMARK VINA RESULT:      -8.2      3.992      8.424
REMARK  Name = 
REMARK  3 active torsions:
REMARK  status: ('A' for Active; 'I' for Inactive)
REMARK    1  A    between atoms: C_18  and  C_19
REMARK    2  A    between atoms: C_19  and  C_20
REMARK    3  A    between atoms: C_20  and  C_21
REMARK                            x       y       z     vdW  Elec       q    Type
REMARK                         _______ _______ _______ _____ _____    ______ ____
ROOT
ATOM      1  O   UNL     1       1.332   5.981  21.022  0.00  0.00    +0.000 OA
ATOM      2  C   UNL     1       1.929   6.363  20.036  0.00  0.00    +0.000 C 
ATOM      3  C   UNL     1       2.743   5.477  19.195  0.00  0.00    +0.000 A 
ATOM      4  C   UNL     1       2.955   4.108  19.270  0.00  0.00    +0.000 A 
ATOM      5 CL   UNL     1       2.187   3.158  20.492  0.00  0.00    +0.000 Cl
ATOM      6  C   UNL     1       3.791   3.520  18.300  0.00  0.00    +0.000 A 
ATOM      7 CL   UNL     1       4.066   1.800  18.331  0.00  0.00    +0.000 Cl
ATOM      8  C   UNL     1       4.396   4.317  17.294  0.00  0.00    +0.000 A 
ATOM      9 CL   UNL     1       5.430   3.575  16.104  0.00  0.00    +0.000 Cl
ATOM     10  C   UNL     1       4.157   5.705  17.238  0.00  0.00    +0.000 A 
ATOM     11 CL   UNL     1       4.878   6.705  16.030  0.00  0.00    +0.000 Cl
ATOM     12  C   UNL     1       3.313   6.253  18.192  0.00  0.00    +0.000 A 
ATOM     13  C   UNL     1       2.817   7.627  18.365  0.00  0.00    +0.000 C 
ATOM     14  O   UNL     1       3.075   8.574  17.644  0.00  0.00    +0.000 OA
ATOM     15  N   UNL     1       2.013   7.602  19.465  0.00  0.00    +0.000 N 
ATOM     16  C   UNL     1       1.356   8.705  19.953  0.00  0.00    +0.000 A 
ATOM     17  N   UNL     1       0.658   8.808  21.057  0.00  0.00    +0.000 NA
ATOM     18  C   UNL     1       0.270  10.121  21.088  0.00  0.00    +0.000 A 
ATOM     19  N   UNL     1       0.647  10.834  20.021  0.00  0.00    +0.000 NA
ATOM     20  N   UNL     1       1.339   9.920  19.318  0.00  0.00    +0.000 N 
ATOM     21  H   UNL     1       1.765  10.171  18.430  0.00  0.00    +0.000 HD
ENDROOT
BRANCH  18  22
ATOM     22  C   UNL     1      -0.494  10.702  22.224  0.00  0.00    +0.000 C 
BRANCH  22  23
ATOM     23  C   UNL     1      -0.458  12.235  22.232  0.00  0.00    +0.000 C 
BRANCH  23  24
ATOM     24  C   UNL     1      -1.599  12.810  23.036  0.00  0.00    +0.000 A 
ATOM     25  C   UNL     1      -1.485  14.081  23.616  0.00  0.00    +0.000 A 
ATOM     26  C   UNL     1      -2.503  14.579  24.429  0.00  0.00    +0.000 A 
ATOM     27  C   UNL     1      -3.649  13.819  24.657  0.00  0.00    +0.000 A 
ATOM     28  C   UNL     1      -3.783  12.566  24.064  0.00  0.00    +0.000 A 
ATOM     29  C   UNL     1      -2.761  12.060  23.258  0.00  0.00    +0.000 A 
ENDBRANCH  23  24
ENDBRANCH  22  23
ENDBRANCH  18  22
TORSDOF 3
ENDMDL
