MODEL 1
REMARK VINA RESULT:      -7.2      0.000      0.000
REMARK  Name = 
REMARK  9 active torsions:
REMARK  status: ('A' for Active; 'I' for Inactive)
REMARK    1  A    between atoms: C_1  and  O_2
REMARK    2  A    between atoms: O_2  and  C_3
REMARK    3  A    between atoms: C_7  and  N_8
REMARK    4  A    between atoms: C_9  and  C_11
REMARK    5  A    between atoms: C_14  and  N_15
REMARK    6  A    between atoms: N_15  and  C_16
REMARK    7  A    between atoms: C_16  and  C_17
REMARK    8  A    between atoms: C_16  and  C_18
REMARK    9  A    between atoms: C_19  and  N_20
REMARK                            x       y       z     vdW  Elec       q    Type
REMARK                         _______ _______ _______ _____ _____    ______ ____
ROOT
ATOM      1  C   UNL     1       2.272   7.663  18.775  0.00  0.00    +0.000 A 
ATOM      2  C   UNL     1       1.849   8.558  17.792  0.00  0.00    +0.000 A 
ATOM      3  C   UNL     1       1.031   9.643  18.128  0.00  0.00    +0.000 A 
ATOM      4  C   UNL     1       0.593   9.885  19.445  0.00  0.00    +0.000 A 
ATOM      5  C   UNL     1       1.029   8.954  20.405  0.00  0.00    +0.000 A 
ATOM      6  C   UNL     1       1.866   7.860  20.091  0.00  0.00    +0.000 A 
ENDROOT
BRANCH   1   8
ATOM      7  N   UNL     1       4.426   6.989  17.875  0.00  0.00    +0.000 N 
ATOM      8  C   UNL     1       3.210   6.580  18.388  0.00  0.00    +0.000 C 
ATOM      9  O   UNL     1       2.850   5.424  18.588  0.00  0.00    +0.000 OA
ATOM     10  H   UNL     1       4.674   7.966  17.967  0.00  0.00    +0.000 HD
BRANCH   7  15
ATOM     11  C   UNL     1       6.483   5.160  15.398  0.00  0.00    +0.000 A 
ATOM     12  C   UNL     1       7.382   4.486  16.227  0.00  0.00    +0.000 A 
ATOM     13  C   UNL     1       7.308   4.627  17.610  0.00  0.00    +0.000 A 
ATOM     14  C   UNL     1       6.335   5.452  18.173  0.00  0.00    +0.000 A 
ATOM     15  C   UNL     1       5.434   6.141  17.360  0.00  0.00    +0.000 A 
ATOM     16  C   UNL     1       5.505   5.980  15.968  0.00  0.00    +0.000 A 
BRANCH  11  18
ATOM     17  C   UNL     1       6.064   3.761  13.519  0.00  0.00    +0.000 C 
ATOM     18  O   UNL     1       6.665   4.929  14.062  0.00  0.00    +0.000 OA
ENDBRANCH  11  18
ENDBRANCH   7  15
ENDBRANCH   1   8
BRANCH   5  19
ATOM     19  N   UNL     1       0.700   9.067  21.809  0.00  0.00    +0.000 N 
ATOM     20  O   UNL     1      -0.477   8.907  22.145  0.00  0.00    +0.000 OA
ATOM     21  O   UNL     1       1.625   9.405  22.566  0.00  0.00    +0.000 OA
ENDBRANCH   5  19
BRANCH   4  22
ATOM     22  N   UNL     1      -0.202  11.006  19.612  0.00  0.00    +0.000 N 
ATOM     23  H   UNL     1      -0.158  11.444  20.529  0.00  0.00    +0.000 HD
BRANCH  22  24
ATOM     24  C   UNL     1      -0.780  11.859  18.580  0.00  0.00    +0.000 C 
ATOM     25  C   UNL     1      -2.271  11.560  18.452  0.00  0.00    +0.000 C 
ATOM     26  C   UNL     1      -0.578  13.320  18.993  0.00  0.00    +0.000 C 
ENDBRANCH  22  24
ENDBRANCH   4  22
TORSDOF 6
ENDMDL
MODEL 2
REMARK VINA RESULT:      -7.1      2.727      8.350
REMARK  Name = 
REMARK  9 active torsions:
REMARK  status: ('A' for Active; 'I' for Inactive)
REMARK    1  A    between atoms: C_1  and  O_2
REMARK    2  A    between atoms: O_2  and  C_3
REMARK    3  A    between atoms: C_7  and  N_8
REMARK    4  A    between atoms: C_9  and  C_11
REMARK    5  A    between atoms: C_14  and  N_15
REMARK    6  A    between atoms: N_15  and  C_16
REMARK    7  A    between atoms: C_16  and  C_17
REMARK    8  A    between atoms: C_16  and  C_18
REMARK    9  A    between atoms: C_19  and  N_20
REMARK                            x       y       z     vdW  Elec       q    Type
REMARK                         _______ _______ _______ _____ _____    ______ ____
ROOT
ATOM      1  C   UNL     1       2.588   7.710  18.395  0.00  0.00    +0.000 A 
ATOM      2  C   UNL     1       2.389   6.902  19.514  0.00  0.00    +0.000 A 
ATOM      3  C   UNL     1       3.149   5.740  19.692  0.00  0.00    +0.000 A 
ATOM      4  C   UNL     1       4.133   5.328  18.771  0.00  0.00    +0.000 A 
ATOM      5  C   UNL     1       4.295   6.162  17.650  0.00  0.00    +0.000 A 
ATOM      6  C   UNL     1       3.549   7.345  17.457  0.00  0.00    +0.000 A 
ENDROOT
BRANCH   1   8
ATOM      7  N   UNL     1       0.799   9.139  19.208  0.00  0.00    +0.000 N 
ATOM      8  C   UNL     1       1.821   8.977  18.293  0.00  0.00    +0.000 C 
ATOM      9  O   UNL     1       2.177   9.785  17.441  0.00  0.00    +0.000 OA
ATOM     10  H   UNL     1       0.756   8.496  19.988  0.00  0.00    +0.000 HD
BRANCH   7  15
ATOM     11  C   UNL     1      -1.966  11.374  18.170  0.00  0.00    +0.000 A 
ATOM     12  C   UNL     1      -1.970  12.310  19.206  0.00  0.00    +0.000 A 
ATOM     13  C   UNL     1      -1.054  12.211  20.249  0.00  0.00    +0.000 A 
ATOM     14  C   UNL     1      -0.130  11.168  20.266  0.00  0.00    +0.000 A 
ATOM     15  C   UNL     1      -0.116  10.217  19.245  0.00  0.00    +0.000 A 
ATOM     16  C   UNL     1      -1.032  10.334  18.188  0.00  0.00    +0.000 A 
BRANCH  11  18
ATOM     17  C   UNL     1      -2.792  10.853  16.000  0.00  0.00    +0.000 C 
ATOM     18  O   UNL     1      -2.914  11.590  17.209  0.00  0.00    +0.000 OA
ENDBRANCH  11  18
ENDBRANCH   7  15
ENDBRANCH   1   8
BRANCH   5  19
ATOM     19  N   UNL     1       5.281   5.907  16.622  0.00  0.00    +0.000 N 
ATOM     20  O   UNL     1       5.394   4.752  16.199  0.00  0.00    +0.000 OA
ATOM     21  O   UNL     1       6.004   6.864  16.302  0.00  0.00    +0.000 OA
ENDBRANCH   5  19
BRANCH   4  22
ATOM     22  N   UNL     1       4.805   4.162  19.098  0.00  0.00    +0.000 N 
ATOM     23  H   UNL     1       5.639   4.280  19.668  0.00  0.00    +0.000 HD
BRANCH  22  24
ATOM     24  C   UNL     1       4.294   2.797  19.079  0.00  0.00    +0.000 C 
ATOM     25  C   UNL     1       3.607   2.495  20.409  0.00  0.00    +0.000 C 
ATOM     26  C   UNL     1       3.283   2.676  17.935  0.00  0.00    +0.000 C 
ENDBRANCH  22  24
ENDBRANCH   4  22
TORSDOF 6
ENDMDL
MODEL 3
REMARK VINA RESULT:      -7.0      2.268      8.483
REMARK  Name = 
REMARK  9 active torsions:
REMARK  status: ('A' for Active; 'I' for Inactive)
REMARK    1  A    between atoms: C_1  and  O_2
REMARK    2  A    between atoms: O_2  and  C_3
REMARK    3  A    between atoms: C_7  and  N_8
REMARK    4  A    between atoms: C_9  and  C_11
REMARK    5  A    between atoms: C_14  and  N_15
REMARK    6  A    between atoms: N_15  and  C_16
REMARK    7  A    between atoms: C_16  and  C_17
REMARK    8  A    between atoms: C_16  and  C_18
REMARK    9  A    between atoms: C_19  and  N_20
REMARK                            x       y       z     vdW  Elec       q    Type
REMARK                         _______ _______ _______ _____ _____    ______ ____
ROOT
ATOM      1  C   UNL     1       2.674   6.595  19.337  0.00  0.00    +0.000 A 
ATOM      2  C   UNL     1       3.077   7.352  18.237  0.00  0.00    +0.000 A 
ATOM      3  C   UNL     1       3.915   6.794  17.264  0.00  0.00    +0.000 A 
ATOM      4  C   UNL     1       4.391   5.470  17.339  0.00  0.00    +0.000 A 
ATOM      5  C   UNL     1       3.971   4.744  18.470  0.00  0.00    +0.000 A 
ATOM      6  C   UNL     1       3.117   5.282  19.456  0.00  0.00    +0.000 A 
ENDROOT
BRANCH   1   8
ATOM      7  N   UNL     1       1.496   8.557  20.156  0.00  0.00    +0.000 N 
ATOM      8  C   UNL     1       1.716   7.200  20.296  0.00  0.00    +0.000 C 
ATOM      9  O   UNL     1       1.174   6.449  21.101  0.00  0.00    +0.000 OA
ATOM     10  H   UNL     1       1.841   9.008  19.318  0.00  0.00    +0.000 HD
BRANCH   7  15
ATOM     11  C   UNL     1      -0.729  11.313  21.236  0.00  0.00    +0.000 A 
ATOM     12  C   UNL     1      -0.898  11.019  22.591  0.00  0.00    +0.000 A 
ATOM     13  C   UNL     1      -0.271   9.912  23.155  0.00  0.00    +0.000 A 
ATOM     14  C   UNL     1       0.525   9.085  22.365  0.00  0.00    +0.000 A 
ATOM     15  C   UNL     1       0.699   9.358  21.007  0.00  0.00    +0.000 A 
ATOM     16  C   UNL     1       0.077  10.485  20.449  0.00  0.00    +0.000 A 
BRANCH  11  18
ATOM     17  C   UNL     1      -2.407  12.247  19.831  0.00  0.00    +0.000 C 
ATOM     18  O   UNL     1      -1.395  12.430  20.813  0.00  0.00    +0.000 OA
ENDBRANCH  11  18
ENDBRANCH   7  15
ENDBRANCH   1   8
BRANCH   5  19
ATOM     19  N   UNL     1       4.340   3.362  18.691  0.00  0.00    +0.000 N 
ATOM     20  O   UNL     1       5.059   3.100  19.660  0.00  0.00    +0.000 OA
ATOM     21  O   UNL     1       3.968   2.548  17.830  0.00  0.00    +0.000 OA
ENDBRANCH   5  19
BRANCH   4  22
ATOM     22  N   UNL     1       5.200   5.066  16.291  0.00  0.00    +0.000 N 
ATOM     23  H   UNL     1       4.715   4.803  15.437  0.00  0.00    +0.000 HD
BRANCH  22  24
ATOM     24  C   UNL     1       6.622   5.327  16.104  0.00  0.00    +0.000 C 
ATOM     25  C   UNL     1       7.419   4.581  17.171  0.00  0.00    +0.000 C 
ATOM     26  C   UNL     1       7.025   4.828  14.713  0.00  0.00    +0.000 C 
ENDBRANCH  22  24
ENDBRANCH   4  22
TORSDOF 6
ENDMDL
MODEL 4
REMARK VINA RESULT:      -7.0      2.062      8.291
REMARK  Name = 
REMARK  9 active torsions:
REMARK  status: ('A' for Active; 'I' for Inactive)
REMARK    1  A    between atoms: C_1  and  O_2
REMARK    2  A    between atoms: O_2  and  C_3
REMARK    3  A    between atoms: C_7  and  N_8
REMARK    4  A    between atoms: C_9  and  C_11
REMARK    5  A    between atoms: C_14  and  N_15
REMARK    6  A    between atoms: N_15  and  C_16
REMARK    7  A    between atoms: C_16  and  C_17
REMARK    8  A    between atoms: C_16  and  C_18
REMARK    9  A    between atoms: C_19  and  N_20
REMARK                            x       y       z     vdW  Elec       q    Type
REMARK                         _______ _______ _______ _____ _____    ______ ____
ROOT
ATOM      1  C   UNL     1       2.626   7.200  19.122  0.00  0.00    +0.000 A 
ATOM      2  C   UNL     1       3.220   7.582  17.919  0.00  0.00    +0.000 A 
ATOM      3  C   UNL     1       4.072   6.702  17.241  0.00  0.00    +0.000 A 
ATOM      4  C   UNL     1       4.375   5.413  17.724  0.00  0.00    +0.000 A 
ATOM      5  C   UNL     1       3.766   5.071  18.946  0.00  0.00    +0.000 A 
ATOM      6  C   UNL     1       2.894   5.937  19.641  0.00  0.00    +0.000 A 
ENDROOT
BRANCH   1   8
ATOM      7  N   UNL     1       1.274   9.216  18.996  0.00  0.00    +0.000 N 
ATOM      8  C   UNL     1       1.662   8.132  19.760  0.00  0.00    +0.000 C 
ATOM      9  O   UNL     1       1.263   7.847  20.884  0.00  0.00    +0.000 OA
ATOM     10  H   UNL     1       1.512   9.210  18.012  0.00  0.00    +0.000 HD
BRANCH   7  15
ATOM     11  C   UNL     1      -1.716  11.386  19.249  0.00  0.00    +0.000 A 
ATOM     12  C   UNL     1      -1.298  12.326  20.193  0.00  0.00    +0.000 A 
ATOM     13  C   UNL     1      -0.022  12.252  20.744  0.00  0.00    +0.000 A 
ATOM     14  C   UNL     1       0.843  11.229  20.360  0.00  0.00    +0.000 A 
ATOM     15  C   UNL     1       0.440  10.274  19.425  0.00  0.00    +0.000 A 
ATOM     16  C   UNL     1      -0.842  10.366  18.862  0.00  0.00    +0.000 A 
BRANCH  11  18
ATOM     17  C   UNL     1      -3.201  11.417  17.390  0.00  0.00    +0.000 C 
ATOM     18  O   UNL     1      -2.988  11.578  18.786  0.00  0.00    +0.000 OA
ENDBRANCH  11  18
ENDBRANCH   7  15
ENDBRANCH   1   8
BRANCH   5  19
ATOM     19  N   UNL     1       3.942   3.778  19.571  0.00  0.00    +0.000 N 
ATOM     20  O   UNL     1       2.977   3.280  20.159  0.00  0.00    +0.000 OA
ATOM     21  O   UNL     1       5.089   3.303  19.539  0.00  0.00    +0.000 OA
ENDBRANCH   5  19
BRANCH   4  22
ATOM     22  N   UNL     1       5.225   4.663  16.930  0.00  0.00    +0.000 N 
ATOM     23  H   UNL     1       4.793   3.885  16.436  0.00  0.00    +0.000 HD
BRANCH  22  24
ATOM     24  C   UNL     1       6.529   5.044  16.402  0.00  0.00    +0.000 C 
ATOM     25  C   UNL     1       7.621   4.549  17.346  0.00  0.00    +0.000 C 
ATOM     26  C   UNL     1       6.700   4.395  15.026  0.00  0.00    +0.000 C 
ENDBRANCH  22  24
ENDBRANCH   4  22
TORSDOF 6
ENDMDL
MODEL 5
REMARK VINA RESULT:      -7.0      2.093      8.366
REMARK  Name = 
REMARK  9 active torsions:
REMARK  status: ('A' for Active; 'I' for Inactive)
REMARK    1  A    between atoms: C_1  and  O_2
REMARK    2  A    between atoms: O_2  and  C_3
REMARK    3  A    between atoms: C_7  and  N_8
REMARK    4  A    between atoms: C_9  and  C_11
REMARK    5  A    between atoms: C_14  and  N_15
REMARK    6  A    between atoms: N_15  and  C_16
REMARK    7  A    between atoms: C_16  and  C_17
REMARK    8  A    between atoms: C_16  and  C_18
REMARK    9  A    between atoms: C_19  and  N_20
REMARK                            x       y       z     vdW  Elec       q    Type
REMARK                         _______ _______ _______ _____ _____    ______ ____
ROOT
ATOM      1  C   UNL     1       2.572   7.285  18.415  0.00  0.00    +0.000 A 
ATOM      2  C   UNL     1       3.675   7.638  17.637  0.00  0.00    +0.000 A 
ATOM      3  C   UNL     1       4.433   6.652  16.996  0.00  0.00    +0.000 A 
ATOM      4  C   UNL     1       4.137   5.278  17.100  0.00  0.00    +0.000 A 
ATOM      5  C   UNL     1       3.026   4.962  17.904  0.00  0.00    +0.000 A 
ATOM      6  C   UNL     1       2.239   5.941  18.549  0.00  0.00    +0.000 A 
ENDROOT
BRANCH   1   8
ATOM      7  N   UNL     1       1.217   9.279  18.107  0.00  0.00    +0.000 N 
ATOM      8  C   UNL     1       1.746   8.370  19.003  0.00  0.00    +0.000 C 
ATOM      9  O   UNL     1       1.571   8.350  20.216  0.00  0.00    +0.000 OA
ATOM     10  H   UNL     1       1.261   9.052  17.121  0.00  0.00    +0.000 HD
BRANCH   7  15
ATOM     11  C   UNL     1      -1.707  11.483  18.663  0.00  0.00    +0.000 A 
ATOM     12  C   UNL     1      -1.088  12.665  19.076  0.00  0.00    +0.000 A 
ATOM     13  C   UNL     1       0.299  12.741  19.166  0.00  0.00    +0.000 A 
ATOM     14  C   UNL     1       1.078  11.630  18.849  0.00  0.00    +0.000 A 
ATOM     15  C   UNL     1       0.478  10.437  18.442  0.00  0.00    +0.000 A 
ATOM     16  C   UNL     1      -0.920  10.374  18.339  0.00  0.00    +0.000 A 
BRANCH  11  18
ATOM     17  C   UNL     1      -3.683  11.392  17.341  0.00  0.00    +0.000 C 
ATOM     18  O   UNL     1      -3.071  11.547  18.614  0.00  0.00    +0.000 OA
ENDBRANCH  11  18
ENDBRANCH   7  15
ENDBRANCH   1   8
BRANCH   5  19
ATOM     19  N   UNL     1       2.562   3.605  18.096  0.00  0.00    +0.000 N 
ATOM     20  O   UNL     1       2.594   3.136  19.238  0.00  0.00    +0.000 OA
ATOM     21  O   UNL     1       2.243   2.981  17.070  0.00  0.00    +0.000 OA
ENDBRANCH   5  19
BRANCH   4  22
ATOM     22  N   UNL     1       4.977   4.431  16.397  0.00  0.00    +0.000 N 
ATOM     23  H   UNL     1       4.564   3.551  16.099  0.00  0.00    +0.000 HD
BRANCH  22  24
ATOM     24  C   UNL     1       6.212   4.768  15.701  0.00  0.00    +0.000 C 
ATOM     25  C   UNL     1       7.402   4.481  16.613  0.00  0.00    +0.000 C 
ATOM     26  C   UNL     1       6.305   3.904  14.440  0.00  0.00    +0.000 C 
ENDBRANCH  22  24
ENDBRANCH   4  22
TORSDOF 6
ENDMDL
MODEL 6
REMARK VINA RESULT:      -7.0      2.082      8.522
REMARK  Name = 
REMARK  9 active torsions:
REMARK  status: ('A' for Active; 'I' for Inactive)
REMARK    1  A    between atoms: C_1  and  O_2
REMARK    2  A    between atoms: O_2  and  C_3
REMARK    3  A    between atoms: C_7  and  N_8
REMARK    4  A    between atoms: C_9  and  C_11
REMARK    5  A    between atoms: C_14  and  N_15
REMARK    6  A    between atoms: N_15  and  C_16
REMARK    7  A    between atoms: C_16  and  C_17
REMARK    8  A    between atoms: C_16  and  C_18
REMARK    9  A    between atoms: C_19  and  N_20
REMARK                            x       y       z     vdW  Elec       q    Type
REMARK                         _______ _______ _______ _____ _____    ______ ____
ROOT
ATOM      1  C   UNL     1       2.651   7.212  19.114  0.00  0.00    +0.000 A 
ATOM      2  C   UNL     1       3.251   7.618  17.922  0.00  0.00    +0.000 A 
ATOM      3  C   UNL     1       4.115   6.756  17.236  0.00  0.00    +0.000 A 
ATOM      4  C   UNL     1       4.424   5.462  17.701  0.00  0.00    +0.000 A 
ATOM      5  C   UNL     1       3.809   5.096  18.913  0.00  0.00    +0.000 A 
ATOM      6  C   UNL     1       2.925   5.943  19.614  0.00  0.00    +0.000 A 
ENDROOT
BRANCH   1   8
ATOM      7  N   UNL     1       1.213   9.167  18.976  0.00  0.00    +0.000 N 
ATOM      8  C   UNL     1       1.674   8.126  19.759  0.00  0.00    +0.000 C 
ATOM      9  O   UNL     1       1.330   7.865  20.907  0.00  0.00    +0.000 OA
ATOM     10  H   UNL     1       1.412   9.137  17.984  0.00  0.00    +0.000 HD
BRANCH   7  15
ATOM     11  C   UNL     1      -0.028  12.050  20.941  0.00  0.00    +0.000 A 
ATOM     12  C   UNL     1      -1.265  12.285  20.338  0.00  0.00    +0.000 A 
ATOM     13  C   UNL     1      -1.698  11.487  19.283  0.00  0.00    +0.000 A 
ATOM     14  C   UNL     1      -0.891  10.450  18.819  0.00  0.00    +0.000 A 
ATOM     15  C   UNL     1       0.353  10.205  19.403  0.00  0.00    +0.000 A 
ATOM     16  C   UNL     1       0.775  11.004  20.477  0.00  0.00    +0.000 A 
BRANCH  11  18
ATOM     17  C   UNL     1      -0.810  13.362  22.766  0.00  0.00    +0.000 C 
ATOM     18  O   UNL     1       0.272  12.903  21.966  0.00  0.00    +0.000 OA
ENDBRANCH  11  18
ENDBRANCH   7  15
ENDBRANCH   1   8
BRANCH   5  19
ATOM     19  N   UNL     1       3.991   3.794  19.518  0.00  0.00    +0.000 N 
ATOM     20  O   UNL     1       3.021   3.274  20.080  0.00  0.00    +0.000 OA
ATOM     21  O   UNL     1       5.144   3.334  19.500  0.00  0.00    +0.000 OA
ENDBRANCH   5  19
BRANCH   4  22
ATOM     22  N   UNL     1       5.286   4.731  16.902  0.00  0.00    +0.000 N 
ATOM     23  H   UNL     1       4.857   3.985  16.359  0.00  0.00    +0.000 HD
BRANCH  22  24
ATOM     24  C   UNL     1       6.614   5.109  16.436  0.00  0.00    +0.000 C 
ATOM     25  C   UNL     1       7.664   4.561  17.400  0.00  0.00    +0.000 C 
ATOM     26  C   UNL     1       6.826   4.507  15.043  0.00  0.00    +0.000 C 
ENDBRANCH  22  24
ENDBRANCH   4  22
TORSDOF 6
ENDMDL
MODEL 7
REMARK VINA RESULT:      -7.0      2.732      8.559
REMARK  Name = 
REMARK  9 active torsions:
REMARK  status: ('A' for Active; 'I' for Inactive)
REMARK    1  A    between atoms: C_1  and  O_2
REMARK    2  A    between atoms: O_2  and  C_3
REMARK    3  A    between atoms: C_7  and  N_8
REMARK    4  A    between atoms: C_9  and  C_11
REMARK    5  A    between atoms: C_14  and  N_15
REMARK    6  A    between atoms: N_15  and  C_16
REMARK    7  A    between atoms: C_16  and  C_17
REMARK    8  A    between atoms: C_16  and  C_18
REMARK    9  A    between atoms: C_19  and  N_20
REMARK                            x       y       z     vdW  Elec       q    Type
REMARK                         _______ _______ _______ _____ _____    ______ ____
ROOT
ATOM      1  C   UNL     1       2.467   7.770  18.452  0.00  0.00    +0.000 A 
ATOM      2  C   UNL     1       2.253   6.953  19.562  0.00  0.00    +0.000 A 
ATOM      3  C   UNL     1       2.914   5.724  19.674  0.00  0.00    +0.000 A 
ATOM      4  C   UNL     1       3.808   5.250  18.692  0.00  0.00    +0.000 A 
ATOM      5  C   UNL     1       3.986   6.097  17.583  0.00  0.00    +0.000 A 
ATOM      6  C   UNL     1       3.340   7.346  17.456  0.00  0.00    +0.000 A 
ENDROOT
BRANCH   1   8
ATOM      7  N   UNL     1       1.023   9.414  19.510  0.00  0.00    +0.000 N 
ATOM      8  C   UNL     1       1.813   9.102  18.420  0.00  0.00    +0.000 C 
ATOM      9  O   UNL     1       2.054   9.826  17.460  0.00  0.00    +0.000 OA
ATOM     10  H   UNL     1       1.086   8.817  20.326  0.00  0.00    +0.000 HD
BRANCH   7  15
ATOM     11  C   UNL     1      -1.882  11.693  19.222  0.00  0.00    +0.000 A 
ATOM     12  C   UNL     1      -1.408  12.831  19.878  0.00  0.00    +0.000 A 
ATOM     13  C   UNL     1      -0.123  12.853  20.412  0.00  0.00    +0.000 A 
ATOM     14  C   UNL     1       0.696  11.731  20.300  0.00  0.00    +0.000 A 
ATOM     15  C   UNL     1       0.237  10.580  19.656  0.00  0.00    +0.000 A 
ATOM     16  C   UNL     1      -1.054  10.572  19.106  0.00  0.00    +0.000 A 
BRANCH  11  18
ATOM     17  C   UNL     1      -3.396  11.344  17.420  0.00  0.00    +0.000 C 
ATOM     18  O   UNL     1      -3.157  11.807  18.742  0.00  0.00    +0.000 OA
ENDBRANCH  11  18
ENDBRANCH   7  15
ENDBRANCH   1   8
BRANCH   5  19
ATOM     19  N   UNL     1       4.890   5.782  16.497  0.00  0.00    +0.000 N 
ATOM     20  O   UNL     1       5.385   6.719  15.863  0.00  0.00    +0.000 OA
ATOM     21  O   UNL     1       5.032   4.577  16.231  0.00  0.00    +0.000 OA
ENDBRANCH   5  19
BRANCH   4  22
ATOM     22  N   UNL     1       4.388   4.021  18.957  0.00  0.00    +0.000 N 
ATOM     23  H   UNL     1       5.374   4.044  19.203  0.00  0.00    +0.000 HD
BRANCH  22  24
ATOM     24  C   UNL     1       3.723   2.773  19.308  0.00  0.00    +0.000 C 
ATOM     25  C   UNL     1       3.480   1.955  18.042  0.00  0.00    +0.000 C 
ATOM     26  C   UNL     1       4.633   1.994  20.262  0.00  0.00    +0.000 C 
ENDBRANCH  22  24
ENDBRANCH   4  22
TORSDOF 6
ENDMDL
MODEL 8
REMARK VINA RESULT:      -7.0      1.860      2.422
REMARK  Name = 
REMARK  9 active torsions:
REMARK  status: ('A' for Active; 'I' for Inactive)
REMARK    1  A    between atoms: C_1  and  O_2
REMARK    2  A    between atoms: O_2  and  C_3
REMARK    3  A    between atoms: C_7  and  N_8
REMARK    4  A    between atoms: C_9  and  C_11
REMARK    5  A    between atoms: C_14  and  N_15
REMARK    6  A    between atoms: N_15  and  C_16
REMARK    7  A    between atoms: C_16  and  C_17
REMARK    8  A    between atoms: C_16  and  C_18
REMARK    9  A    between atoms: C_19  and  N_20
REMARK                            x       y       z     vdW  Elec       q    Type
REMARK                         _______ _______ _______ _____ _____    ______ ____
ROOT
ATOM      1  C   UNL     1       1.307   8.367  20.176  0.00  0.00    +0.000 A 
ATOM      2  C   UNL     1       1.331   9.346  19.183  0.00  0.00    +0.000 A 
ATOM      3  C   UNL     1       0.822  10.625  19.438  0.00  0.00    +0.000 A 
ATOM      4  C   UNL     1       0.265  10.986  20.681  0.00  0.00    +0.000 A 
ATOM      5  C   UNL     1       0.248   9.967  21.651  0.00  0.00    +0.000 A 
ATOM      6  C   UNL     1       0.768   8.675  21.420  0.00  0.00    +0.000 A 
ENDROOT
BRANCH   1   8
ATOM      7  N   UNL     1       2.536   6.930  18.648  0.00  0.00    +0.000 N 
ATOM      8  C   UNL     1       1.938   7.054  19.888  0.00  0.00    +0.000 C 
ATOM      9  O   UNL     1       1.912   6.209  20.776  0.00  0.00    +0.000 OA
ATOM     10  H   UNL     1       2.672   7.772  18.102  0.00  0.00    +0.000 HD
BRANCH   7  15
ATOM     11  C   UNL     1       5.140   4.604  17.414  0.00  0.00    +0.000 A 
ATOM     12  C   UNL     1       4.377   3.481  17.089  0.00  0.00    +0.000 A 
ATOM     13  C   UNL     1       2.997   3.489  17.269  0.00  0.00    +0.000 A 
ATOM     14  C   UNL     1       2.370   4.623  17.784  0.00  0.00    +0.000 A 
ATOM     15  C   UNL     1       3.117   5.752  18.124  0.00  0.00    +0.000 A 
ATOM     16  C   UNL     1       4.506   5.741  17.924  0.00  0.00    +0.000 A 
BRANCH  11  18
ATOM     17  C   UNL     1       6.955   4.797  15.887  0.00  0.00    +0.000 C 
ATOM     18  O   UNL     1       6.481   4.462  17.185  0.00  0.00    +0.000 OA
ENDBRANCH  11  18
ENDBRANCH   7  15
ENDBRANCH   1   8
BRANCH   5  19
ATOM     19  N   UNL     1      -0.259  10.173  22.991  0.00  0.00    +0.000 N 
ATOM     20  O   UNL     1      -1.237  10.913  23.135  0.00  0.00    +0.000 OA
ATOM     21  O   UNL     1       0.391   9.651  23.912  0.00  0.00    +0.000 OA
ENDBRANCH   5  19
BRANCH   4  22
ATOM     22  N   UNL     1      -0.184  12.292  20.776  0.00  0.00    +0.000 N 
ATOM     23  H   UNL     1       0.383  12.912  21.349  0.00  0.00    +0.000 HD
BRANCH  22  24
ATOM     24  C   UNL     1      -1.104  12.991  19.888  0.00  0.00    +0.000 C 
ATOM     25  C   UNL     1      -2.537  12.582  20.220  0.00  0.00    +0.000 C 
ATOM     26  C   UNL     1      -0.932  14.498  20.103  0.00  0.00    +0.000 C 
ENDBRANCH  22  24
ENDBRANCH   4  22
TORSDOF 6
ENDMDL
MODEL 9
REMARK VINA RESULT:      -6.9      2.363      3.228
REMARK  Name = 
REMARK  9 active torsions:
REMARK  status: ('A' for Active; 'I' for Inactive)
REMARK    1  A    between atoms: C_1  and  O_2
REMARK    2  A    between atoms: O_2  and  C_3
REMARK    3  A    between atoms: C_7  and  N_8
REMARK    4  A    between atoms: C_9  and  C_11
REMARK    5  A    between atoms: C_14  and  N_15
REMARK    6  A    between atoms: N_15  and  C_16
REMARK    7  A    between atoms: C_16  and  C_17
REMARK    8  A    between atoms: C_16  and  C_18
REMARK    9  A    between atoms: C_19  and  N_20
REMARK                            x       y       z     vdW  Elec       q    Type
REMARK                         _______ _______ _______ _____ _____    ______ ____
ROOT
ATOM      1  C   UNL     1       1.266   9.239  19.313  0.00  0.00    +0.000 A 
ATOM      2  C   UNL     1       0.883  10.395  18.635  0.00  0.00    +0.000 A 
ATOM      3  C   UNL     1       0.207  11.419  19.309  0.00  0.00    +0.000 A 
ATOM      4  C   UNL     1      -0.122  11.341  20.677  0.00  0.00    +0.000 A 
ATOM      5  C   UNL     1       0.270  10.153  21.322  0.00  0.00    +0.000 A 
ATOM      6  C   UNL     1       0.964   9.114  20.666  0.00  0.00    +0.000 A 
ENDROOT
BRANCH   1   8
ATOM      7  N   UNL     1       2.219   7.005  19.218  0.00  0.00    +0.000 N 
ATOM      8  C   UNL     1       2.058   8.219  18.579  0.00  0.00    +0.000 C 
ATOM      9  O   UNL     1       2.467   8.520  17.463  0.00  0.00    +0.000 OA
ATOM     10  H   UNL     1       1.649   6.820  20.034  0.00  0.00    +0.000 HD
BRANCH   7  15
ATOM     11  C   UNL     1       5.141   4.764  18.817  0.00  0.00    +0.000 A 
ATOM     12  C   UNL     1       4.650   3.829  17.904  0.00  0.00    +0.000 A 
ATOM     13  C   UNL     1       3.353   3.939  17.410  0.00  0.00    +0.000 A 
ATOM     14  C   UNL     1       2.533   4.984  17.834  0.00  0.00    +0.000 A 
ATOM     15  C   UNL     1       3.003   5.924  18.754  0.00  0.00    +0.000 A 
ATOM     16  C   UNL     1       4.317   5.815  19.234  0.00  0.00    +0.000 A 
BRANCH  11  18
ATOM     17  C   UNL     1       7.359   5.598  19.024  0.00  0.00    +0.000 C 
ATOM     18  O   UNL     1       6.429   4.541  19.217  0.00  0.00    +0.000 OA
ENDBRANCH  11  18
ENDBRANCH   7  15
ENDBRANCH   1   8
BRANCH   5  19
ATOM     19  N   UNL     1       0.041   9.917  22.731  0.00  0.00    +0.000 N 
ATOM     20  O   UNL     1      -1.092  10.121  23.178  0.00  0.00    +0.000 OA
ATOM     21  O   UNL     1       1.036   9.607  23.406  0.00  0.00    +0.000 OA
ENDBRANCH   5  19
BRANCH   4  22
ATOM     22  N   UNL     1      -0.781  12.441  21.196  0.00  0.00    +0.000 N 
ATOM     23  H   UNL     1      -1.795  12.372  21.230  0.00  0.00    +0.000 HD
BRANCH  22  24
ATOM     24  C   UNL     1      -0.236  13.497  22.040  0.00  0.00    +0.000 C 
ATOM     25  C   UNL     1      -0.178  14.800  21.247  0.00  0.00    +0.000 C 
ATOM     26  C   UNL     1      -1.157  13.670  23.252  0.00  0.00    +0.000 C 
ENDBRANCH  22  24
ENDBRANCH   4  22
TORSDOF 6
ENDMDL
