MODEL 1
REMARK VINA RESULT:      -5.9      0.000      0.000
REMARK  Name = 
REMARK  10 active torsions:
REMARK  status: ('A' for Active; 'I' for Inactive)
REMARK    1  A    between atoms: C_1  and  C_2
REMARK    2  A    between atoms: C_2  and  C_3
REMARK    3  A    between atoms: C_2  and  O_4
REMARK    4  A    between atoms: O_4  and  C_5
REMARK    5  A    between atoms: C_5  and  C_7
REMARK    6  A    between atoms: C_7  and  N_8
REMARK    7  A    between atoms: C_7  and  C_9
REMARK    8  A    between atoms: C_9  and  C_10
REMARK    9  A    between atoms: C_10  and  C_11
REMARK   10  A    between atoms: C_11  and  C_13
REMARK                            x       y       z     vdW  Elec       q    Type
REMARK                         _______ _______ _______ _____ _____    ______ ____
ROOT
ATOM      1  C   UNL     1       3.158   3.056  18.137  0.00  0.00    +0.000 C 
ENDROOT
BRANCH   1   2
ATOM      2  N   UNL     1       3.168   1.590  17.891  0.00  0.00    +0.000 NA
ATOM      3  H   UNL     1       3.545   1.134  18.726  0.00  0.00    +0.000 HD
ATOM      4  H   UNL     1       3.855   1.391  17.163  0.00  0.00    +0.000 HD
ENDBRANCH   1   2
BRANCH   1   5
ATOM      5  C   UNL     1       1.708   3.564  18.136  0.00  0.00    +0.000 C 
ATOM      6  O   UNL     1       1.136   4.015  17.148  0.00  0.00    +0.000 OA
BRANCH   5   7
ATOM      7  O   UNL     1       1.158   3.449  19.379  0.00  0.00    +0.000 OA
BRANCH   7   9
ATOM      8  C   UNL     1       1.817   5.287  20.815  0.00  0.00    +0.000 C 
ATOM      9  C   UNL     1       2.016   3.814  20.478  0.00  0.00    +0.000 C 
ATOM     10  C   UNL     1       1.641   2.942  21.672  0.00  0.00    +0.000 C 
ENDBRANCH   7   9
ENDBRANCH   5   7
ENDBRANCH   1   5
BRANCH   1  11
ATOM     11  C   UNL     1       3.989   3.734  17.036  0.00  0.00    +0.000 C 
BRANCH  11  12
ATOM     12  C   UNL     1       4.549   5.112  17.399  0.00  0.00    +0.000 C 
BRANCH  12  13
ATOM     13  C   UNL     1       6.012   5.087  17.784  0.00  0.00    +0.000 C 
ATOM     14  O   UNL     1       6.518   4.339  18.611  0.00  0.00    +0.000 OA
BRANCH  13  15
ATOM     15  C   UNL     1       6.956   5.988  17.076  0.00  0.00    +0.000 C 
ATOM     16  N   UNL     1       7.284   5.649  15.854  0.00  0.00    +0.000 NA
ATOM     17  N   UNL     1       7.575   5.354  14.791  0.00  0.00    +0.000 NA
ENDBRANCH  13  15
ENDBRANCH  12  13
ENDBRANCH  11  12
ENDBRANCH   1  11
TORSDOF 8
ENDMDL
MODEL 2
REMARK VINA RESULT:      -5.9      1.819      2.442
REMARK  Name = 
REMARK  10 active torsions:
REMARK  status: ('A' for Active; 'I' for Inactive)
REMARK    1  A    between atoms: C_1  and  C_2
REMARK    2  A    between atoms: C_2  and  C_3
REMARK    3  A    between atoms: C_2  and  O_4
REMARK    4  A    between atoms: O_4  and  C_5
REMARK    5  A    between atoms: C_5  and  C_7
REMARK    6  A    between atoms: C_7  and  N_8
REMARK    7  A    between atoms: C_7  and  C_9
REMARK    8  A    between atoms: C_9  and  C_10
REMARK    9  A    between atoms: C_10  and  C_11
REMARK   10  A    between atoms: C_11  and  C_13
REMARK                            x       y       z     vdW  Elec       q    Type
REMARK                         _______ _______ _______ _____ _____    ______ ____
ROOT
ATOM      1  C   UNL     1       4.879   3.974  18.479  0.00  0.00    +0.000 C 
ENDROOT
BRANCH   1   2
ATOM      2  N   UNL     1       3.916   4.397  17.429  0.00  0.00    +0.000 NA
ATOM      3  H   UNL     1       3.389   3.571  17.134  0.00  0.00    +0.000 HD
ATOM      4  H   UNL     1       4.445   4.668  16.599  0.00  0.00    +0.000 HD
ENDBRANCH   1   2
BRANCH   1   5
ATOM      5  C   UNL     1       4.191   2.989  19.436  0.00  0.00    +0.000 C 
ATOM      6  O   UNL     1       4.684   1.927  19.804  0.00  0.00    +0.000 OA
BRANCH   5   7
ATOM      7  O   UNL     1       2.963   3.455  19.806  0.00  0.00    +0.000 OA
BRANCH   7   9
ATOM      8  C   UNL     1       1.349   2.803  21.491  0.00  0.00    +0.000 C 
ATOM      9  C   UNL     1       1.992   2.450  20.155  0.00  0.00    +0.000 C 
ATOM     10  C   UNL     1       0.938   2.417  19.053  0.00  0.00    +0.000 C 
ENDBRANCH   7   9
ENDBRANCH   5   7
ENDBRANCH   1   5
BRANCH   1  11
ATOM     11  C   UNL     1       5.364   5.228  19.221  0.00  0.00    +0.000 C 
BRANCH  11  12
ATOM     12  C   UNL     1       6.884   5.417  19.259  0.00  0.00    +0.000 C 
BRANCH  12  13
ATOM     13  C   UNL     1       7.555   5.174  17.924  0.00  0.00    +0.000 C 
ATOM     14  O   UNL     1       8.304   4.242  17.663  0.00  0.00    +0.000 OA
BRANCH  13  15
ATOM     15  C   UNL     1       7.254   6.087  16.793  0.00  0.00    +0.000 C 
ATOM     16  N   UNL     1       7.407   5.597  15.588  0.00  0.00    +0.000 NA
ATOM     17  N   UNL     1       7.545   5.174  14.538  0.00  0.00    +0.000 NA
ENDBRANCH  13  15
ENDBRANCH  12  13
ENDBRANCH  11  12
ENDBRANCH   1  11
TORSDOF 8
ENDMDL
MODEL 3
REMARK VINA RESULT:      -5.8      1.701      1.896
REMARK  Name = 
REMARK  10 active torsions:
REMARK  status: ('A' for Active; 'I' for Inactive)
REMARK    1  A    between atoms: C_1  and  C_2
REMARK    2  A    between atoms: C_2  and  C_3
REMARK    3  A    between atoms: C_2  and  O_4
REMARK    4  A    between atoms: O_4  and  C_5
REMARK    5  A    between atoms: C_5  and  C_7
REMARK    6  A    between atoms: C_7  and  N_8
REMARK    7  A    between atoms: C_7  and  C_9
REMARK    8  A    between atoms: C_9  and  C_10
REMARK    9  A    between atoms: C_10  and  C_11
REMARK   10  A    between atoms: C_11  and  C_13
REMARK                            x       y       z     vdW  Elec       q    Type
REMARK                         _______ _______ _______ _____ _____    ______ ____
ROOT
ATOM      1  C   UNL     1       2.826   5.763  18.270  0.00  0.00    +0.000 C 
ENDROOT
BRANCH   1   2
ATOM      2  N   UNL     1       3.386   6.070  19.613  0.00  0.00    +0.000 NA
ATOM      3  H   UNL     1       4.295   6.521  19.479  0.00  0.00    +0.000 HD
ATOM      4  H   UNL     1       3.609   5.188  20.076  0.00  0.00    +0.000 HD
ENDBRANCH   1   2
BRANCH   1   5
ATOM      5  C   UNL     1       1.820   4.608  18.389  0.00  0.00    +0.000 C 
ATOM      6  O   UNL     1       1.260   4.081  17.432  0.00  0.00    +0.000 OA
BRANCH   5   7
ATOM      7  O   UNL     1       1.636   4.262  19.696  0.00  0.00    +0.000 OA
BRANCH   7   9
ATOM      8  C   UNL     1       3.229   2.436  19.745  0.00  0.00    +0.000 C 
ATOM      9  C   UNL     1       1.788   2.862  19.999  0.00  0.00    +0.000 C 
ATOM     10  C   UNL     1       1.428   2.661  21.467  0.00  0.00    +0.000 C 
ENDBRANCH   7   9
ENDBRANCH   5   7
ENDBRANCH   1   5
BRANCH   1  11
ATOM     11  C   UNL     1       3.989   5.399  17.335  0.00  0.00    +0.000 C 
BRANCH  11  12
ATOM     12  C   UNL     1       5.346   5.997  17.720  0.00  0.00    +0.000 C 
BRANCH  12  13
ATOM     13  C   UNL     1       6.316   4.980  18.282  0.00  0.00    +0.000 C 
ATOM     14  O   UNL     1       6.170   4.357  19.326  0.00  0.00    +0.000 OA
BRANCH  13  15
ATOM     15  C   UNL     1       7.529   4.635  17.499  0.00  0.00    +0.000 C 
ATOM     16  N   UNL     1       7.513   4.948  16.226  0.00  0.00    +0.000 NA
ATOM     17  N   UNL     1       7.499   5.214  15.118  0.00  0.00    +0.000 NA
ENDBRANCH  13  15
ENDBRANCH  12  13
ENDBRANCH  11  12
ENDBRANCH   1  11
TORSDOF 8
ENDMDL
MODEL 4
REMARK VINA RESULT:      -5.8      2.418      2.816
REMARK  Name = 
REMARK  10 active torsions:
REMARK  status: ('A' for Active; 'I' for Inactive)
REMARK    1  A    between atoms: C_1  and  C_2
REMARK    2  A    between atoms: C_2  and  C_3
REMARK    3  A    between atoms: C_2  and  O_4
REMARK    4  A    between atoms: O_4  and  C_5
REMARK    5  A    between atoms: C_5  and  C_7
REMARK    6  A    between atoms: C_7  and  N_8
REMARK    7  A    between atoms: C_7  and  C_9
REMARK    8  A    between atoms: C_9  and  C_10
REMARK    9  A    between atoms: C_10  and  C_11
REMARK   10  A    between atoms: C_11  and  C_13
REMARK                            x       y       z     vdW  Elec       q    Type
REMARK                         _______ _______ _______ _____ _____    ______ ____
ROOT
ATOM      1  C   UNL     1       4.590   5.249  19.097  0.00  0.00    +0.000 C 
ENDROOT
BRANCH   1   2
ATOM      2  N   UNL     1       5.324   3.962  19.229  0.00  0.00    +0.000 NA
ATOM      3  H   UNL     1       6.135   4.123  19.831  0.00  0.00    +0.000 HD
ATOM      4  H   UNL     1       5.727   3.729  18.320  0.00  0.00    +0.000 HD
ENDBRANCH   1   2
BRANCH   1   5
ATOM      5  C   UNL     1       3.176   5.092  19.677  0.00  0.00    +0.000 C 
ATOM      6  O   UNL     1       2.361   6.005  19.763  0.00  0.00    +0.000 OA
BRANCH   5   7
ATOM      7  O   UNL     1       2.964   3.807  20.085  0.00  0.00    +0.000 OA
BRANCH   7   9
ATOM      8  C   UNL     1       1.269   2.438  19.022  0.00  0.00    +0.000 C 
ATOM      9  C   UNL     1       1.584   3.397  20.164  0.00  0.00    +0.000 C 
ATOM     10  C   UNL     1       1.381   2.705  21.508  0.00  0.00    +0.000 C 
ENDBRANCH   7   9
ENDBRANCH   5   7
ENDBRANCH   1   5
BRANCH   1  11
ATOM     11  C   UNL     1       4.546   5.628  17.609  0.00  0.00    +0.000 C 
BRANCH  11  12
ATOM     12  C   UNL     1       5.445   6.801  17.208  0.00  0.00    +0.000 C 
BRANCH  12  13
ATOM     13  C   UNL     1       6.914   6.440  17.145  0.00  0.00    +0.000 C 
ATOM     14  O   UNL     1       7.469   5.872  16.213  0.00  0.00    +0.000 OA
BRANCH  13  15
ATOM     15  C   UNL     1       7.801   6.848  18.263  0.00  0.00    +0.000 C 
ATOM     16  N   UNL     1       7.899   6.012  19.268  0.00  0.00    +0.000 NA
ATOM     17  N   UNL     1       7.981   5.289  20.146  0.00  0.00    +0.000 NA
ENDBRANCH  13  15
ENDBRANCH  12  13
ENDBRANCH  11  12
ENDBRANCH   1  11
TORSDOF 8
ENDMDL
MODEL 5
REMARK VINA RESULT:      -5.7      2.050      2.629
REMARK  Name = 
REMARK  10 active torsions:
REMARK  status: ('A' for Active; 'I' for Inactive)
REMARK    1  A    between atoms: C_1  and  C_2
REMARK    2  A    between atoms: C_2  and  C_3
REMARK    3  A    between atoms: C_2  and  O_4
REMARK    4  A    between atoms: O_4  and  C_5
REMARK    5  A    between atoms: C_5  and  C_7
REMARK    6  A    between atoms: C_7  and  N_8
REMARK    7  A    between atoms: C_7  and  C_9
REMARK    8  A    between atoms: C_9  and  C_10
REMARK    9  A    between atoms: C_10  and  C_11
REMARK   10  A    between atoms: C_11  and  C_13
REMARK                            x       y       z     vdW  Elec       q    Type
REMARK                         _______ _______ _______ _____ _____    ______ ____
ROOT
ATOM      1  C   UNL     1       4.914   5.156  19.234  0.00  0.00    +0.000 C 
ENDROOT
BRANCH   1   2
ATOM      2  N   UNL     1       5.213   3.735  18.916  0.00  0.00    +0.000 NA
ATOM      3  H   UNL     1       5.557   3.287  19.770  0.00  0.00    +0.000 HD
ATOM      4  H   UNL     1       6.011   3.710  18.279  0.00  0.00    +0.000 HD
ENDBRANCH   1   2
BRANCH   1   5
ATOM      5  C   UNL     1       3.443   5.285  19.659  0.00  0.00    +0.000 C 
ATOM      6  O   UNL     1       2.888   6.352  19.906  0.00  0.00    +0.000 OA
BRANCH   5   7
ATOM      7  O   UNL     1       2.854   4.057  19.731  0.00  0.00    +0.000 OA
BRANCH   7   9
ATOM      8  C   UNL     1       1.711   4.150  17.596  0.00  0.00    +0.000 C 
ATOM      9  C   UNL     1       1.563   3.946  19.099  0.00  0.00    +0.000 C 
ATOM     10  C   UNL     1       1.019   2.552  19.393  0.00  0.00    +0.000 C 
ENDBRANCH   7   9
ENDBRANCH   5   7
ENDBRANCH   1   5
BRANCH   1  11
ATOM     11  C   UNL     1       5.212   6.002  17.986  0.00  0.00    +0.000 C 
BRANCH  11  12
ATOM     12  C   UNL     1       5.370   5.209  16.685  0.00  0.00    +0.000 C 
BRANCH  12  13
ATOM     13  C   UNL     1       6.664   5.498  15.957  0.00  0.00    +0.000 C 
ATOM     14  O   UNL     1       7.553   6.243  16.350  0.00  0.00    +0.000 OA
BRANCH  13  15
ATOM     15  C   UNL     1       6.944   4.790  14.682  0.00  0.00    +0.000 C 
ATOM     16  N   UNL     1       7.791   5.367  13.866  0.00  0.00    +0.000 NA
ATOM     17  N   UNL     1       8.524   5.869  13.150  0.00  0.00    +0.000 NA
ENDBRANCH  13  15
ENDBRANCH  12  13
ENDBRANCH  11  12
ENDBRANCH   1  11
TORSDOF 8
ENDMDL
MODEL 6
REMARK VINA RESULT:      -5.7      2.124      2.472
REMARK  Name = 
REMARK  10 active torsions:
REMARK  status: ('A' for Active; 'I' for Inactive)
REMARK    1  A    between atoms: C_1  and  C_2
REMARK    2  A    between atoms: C_2  and  C_3
REMARK    3  A    between atoms: C_2  and  O_4
REMARK    4  A    between atoms: O_4  and  C_5
REMARK    5  A    between atoms: C_5  and  C_7
REMARK    6  A    between atoms: C_7  and  N_8
REMARK    7  A    between atoms: C_7  and  C_9
REMARK    8  A    between atoms: C_9  and  C_10
REMARK    9  A    between atoms: C_10  and  C_11
REMARK   10  A    between atoms: C_11  and  C_13
REMARK                            x       y       z     vdW  Elec       q    Type
REMARK                         _______ _______ _______ _____ _____    ______ ____
ROOT
ATOM      1  C   UNL     1       4.640   3.626  18.145  0.00  0.00    +0.000 C 
ENDROOT
BRANCH   1   2
ATOM      2  N   UNL     1       4.029   2.329  17.751  0.00  0.00    +0.000 NA
ATOM      3  H   UNL     1       4.077   2.257  16.731  0.00  0.00    +0.000 HD
ATOM      4  H   UNL     1       3.030   2.370  17.954  0.00  0.00    +0.000 HD
ENDBRANCH   1   2
BRANCH   1   5
ATOM      5  C   UNL     1       3.932   4.163  19.399  0.00  0.00    +0.000 C 
ATOM      6  O   UNL     1       3.967   5.335  19.761  0.00  0.00    +0.000 OA
BRANCH   5   7
ATOM      7  O   UNL     1       3.274   3.158  20.047  0.00  0.00    +0.000 OA
BRANCH   7   9
ATOM      8  C   UNL     1       0.919   3.211  19.480  0.00  0.00    +0.000 C 
ATOM      9  C   UNL     1       1.966   3.492  20.551  0.00  0.00    +0.000 C 
ATOM     10  C   UNL     1       1.708   2.631  21.783  0.00  0.00    +0.000 C 
ENDBRANCH   7   9
ENDBRANCH   5   7
ENDBRANCH   1   5
BRANCH   1  11
ATOM     11  C   UNL     1       4.505   4.601  16.966  0.00  0.00    +0.000 C 
BRANCH  11  12
ATOM     12  C   UNL     1       5.759   4.755  16.101  0.00  0.00    +0.000 C 
BRANCH  12  13
ATOM     13  C   UNL     1       7.032   4.906  16.906  0.00  0.00    +0.000 C 
ATOM     14  O   UNL     1       8.030   4.205  16.800  0.00  0.00    +0.000 OA
BRANCH  13  15
ATOM     15  C   UNL     1       7.140   6.027  17.873  0.00  0.00    +0.000 C 
ATOM     16  N   UNL     1       7.429   5.707  19.111  0.00  0.00    +0.000 NA
ATOM     17  N   UNL     1       7.674   5.430  20.189  0.00  0.00    +0.000 NA
ENDBRANCH  13  15
ENDBRANCH  12  13
ENDBRANCH  11  12
ENDBRANCH   1  11
TORSDOF 8
ENDMDL
MODEL 7
REMARK VINA RESULT:      -5.7      1.631      1.878
REMARK  Name = 
REMARK  10 active torsions:
REMARK  status: ('A' for Active; 'I' for Inactive)
REMARK    1  A    between atoms: C_1  and  C_2
REMARK    2  A    between atoms: C_2  and  C_3
REMARK    3  A    between atoms: C_2  and  O_4
REMARK    4  A    between atoms: O_4  and  C_5
REMARK    5  A    between atoms: C_5  and  C_7
REMARK    6  A    between atoms: C_7  and  N_8
REMARK    7  A    between atoms: C_7  and  C_9
REMARK    8  A    between atoms: C_9  and  C_10
REMARK    9  A    between atoms: C_10  and  C_11
REMARK   10  A    between atoms: C_11  and  C_13
REMARK                            x       y       z     vdW  Elec       q    Type
REMARK                         _______ _______ _______ _____ _____    ______ ____
ROOT
ATOM      1  C   UNL     1       3.619   3.472  17.478  0.00  0.00    +0.000 C 
ENDROOT
BRANCH   1   2
ATOM      2  N   UNL     1       2.375   3.395  16.668  0.00  0.00    +0.000 NA
ATOM      3  H   UNL     1       2.642   3.198  15.700  0.00  0.00    +0.000 HD
ATOM      4  H   UNL     1       1.959   4.327  16.630  0.00  0.00    +0.000 HD
ENDBRANCH   1   2
BRANCH   1   5
ATOM      5  C   UNL     1       3.541   2.458  18.629  0.00  0.00    +0.000 C 
ATOM      6  O   UNL     1       3.748   1.255  18.503  0.00  0.00    +0.000 OA
BRANCH   5   7
ATOM      7  O   UNL     1       3.205   3.079  19.797  0.00  0.00    +0.000 OA
BRANCH   7   9
ATOM      8  C   UNL     1       2.088   2.858  21.936  0.00  0.00    +0.000 C 
ATOM      9  C   UNL     1       2.005   2.603  20.435  0.00  0.00    +0.000 C 
ATOM     10  C   UNL     1       0.825   3.359  19.834  0.00  0.00    +0.000 C 
ENDBRANCH   7   9
ENDBRANCH   5   7
ENDBRANCH   1   5
BRANCH   1  11
ATOM     11  C   UNL     1       3.761   4.908  18.006  0.00  0.00    +0.000 C 
BRANCH  11  12
ATOM     12  C   UNL     1       5.075   5.607  17.646  0.00  0.00    +0.000 C 
BRANCH  12  13
ATOM     13  C   UNL     1       6.272   5.069  18.400  0.00  0.00    +0.000 C 
ATOM     14  O   UNL     1       6.335   4.906  19.612  0.00  0.00    +0.000 OA
BRANCH  13  15
ATOM     15  C   UNL     1       7.467   4.633  17.635  0.00  0.00    +0.000 C 
ATOM     16  N   UNL     1       7.505   4.968  16.369  0.00  0.00    +0.000 NA
ATOM     17  N   UNL     1       7.538   5.253  15.265  0.00  0.00    +0.000 NA
ENDBRANCH  13  15
ENDBRANCH  12  13
ENDBRANCH  11  12
ENDBRANCH   1  11
TORSDOF 8
ENDMDL
MODEL 8
REMARK VINA RESULT:      -5.7      2.747      5.179
REMARK  Name = 
REMARK  10 active torsions:
REMARK  status: ('A' for Active; 'I' for Inactive)
REMARK    1  A    between atoms: C_1  and  C_2
REMARK    2  A    between atoms: C_2  and  C_3
REMARK    3  A    between atoms: C_2  and  O_4
REMARK    4  A    between atoms: O_4  and  C_5
REMARK    5  A    between atoms: C_5  and  C_7
REMARK    6  A    between atoms: C_7  and  N_8
REMARK    7  A    between atoms: C_7  and  C_9
REMARK    8  A    between atoms: C_9  and  C_10
REMARK    9  A    between atoms: C_10  and  C_11
REMARK   10  A    between atoms: C_11  and  C_13
REMARK                            x       y       z     vdW  Elec       q    Type
REMARK                         _______ _______ _______ _____ _____    ______ ____
ROOT
ATOM      1  C   UNL     1       4.703   3.492  18.482  0.00  0.00    +0.000 C 
ENDROOT
BRANCH   1   2
ATOM      2  N   UNL     1       4.851   2.662  19.707  0.00  0.00    +0.000 NA
ATOM      3  H   UNL     1       3.916   2.490  20.086  0.00  0.00    +0.000 HD
ATOM      4  H   UNL     1       5.313   3.225  20.422  0.00  0.00    +0.000 HD
ENDBRANCH   1   2
BRANCH   1   5
ATOM      5  C   UNL     1       4.778   4.978  18.861  0.00  0.00    +0.000 C 
ATOM      6  O   UNL     1       5.605   5.451  19.635  0.00  0.00    +0.000 OA
BRANCH   5   7
ATOM      7  O   UNL     1       3.799   5.687  18.227  0.00  0.00    +0.000 OA
BRANCH   7   9
ATOM      8  C   UNL     1       2.720   7.840  17.961  0.00  0.00    +0.000 C 
ATOM      9  C   UNL     1       3.285   6.824  18.947  0.00  0.00    +0.000 C 
ATOM     10  C   UNL     1       2.188   6.327  19.882  0.00  0.00    +0.000 C 
ENDBRANCH   7   9
ENDBRANCH   5   7
ENDBRANCH   1   5
BRANCH   1  11
ATOM     11  C   UNL     1       3.355   3.148  17.829  0.00  0.00    +0.000 C 
BRANCH  11  12
ATOM     12  C   UNL     1       2.608   1.969  18.458  0.00  0.00    +0.000 C 
BRANCH  12  13
ATOM     13  C   UNL     1       1.210   2.319  18.922  0.00  0.00    +0.000 C 
ATOM     14  O   UNL     1       0.174   2.037  18.335  0.00  0.00    +0.000 OA
BRANCH  13  15
ATOM     15  C   UNL     1       1.038   3.009  20.225  0.00  0.00    +0.000 C 
ATOM     16  N   UNL     1       1.937   2.756  21.145  0.00  0.00    +0.000 NA
ATOM     17  N   UNL     1       2.714   2.534  21.948  0.00  0.00    +0.000 NA
ENDBRANCH  13  15
ENDBRANCH  12  13
ENDBRANCH  11  12
ENDBRANCH   1  11
TORSDOF 8
ENDMDL
MODEL 9
REMARK VINA RESULT:      -5.7      2.150      2.496
REMARK  Name = 
REMARK  10 active torsions:
REMARK  status: ('A' for Active; 'I' for Inactive)
REMARK    1  A    between atoms: C_1  and  C_2
REMARK    2  A    between atoms: C_2  and  C_3
REMARK    3  A    between atoms: C_2  and  O_4
REMARK    4  A    between atoms: O_4  and  C_5
REMARK    5  A    between atoms: C_5  and  C_7
REMARK    6  A    between atoms: C_7  and  N_8
REMARK    7  A    between atoms: C_7  and  C_9
REMARK    8  A    between atoms: C_9  and  C_10
REMARK    9  A    between atoms: C_10  and  C_11
REMARK   10  A    between atoms: C_11  and  C_13
REMARK                            x       y       z     vdW  Elec       q    Type
REMARK                         _______ _______ _______ _____ _____    ______ ____
ROOT
ATOM      1  C   UNL     1       4.401   3.971  18.269  0.00  0.00    +0.000 C 
ENDROOT
BRANCH   1   2
ATOM      2  N   UNL     1       5.108   2.898  19.018  0.00  0.00    +0.000 NA
ATOM      3  H   UNL     1       5.786   2.466  18.384  0.00  0.00    +0.000 HD
ATOM      4  H   UNL     1       4.439   2.153  19.218  0.00  0.00    +0.000 HD
ENDBRANCH   1   2
BRANCH   1   5
ATOM      5  C   UNL     1       2.928   3.578  18.084  0.00  0.00    +0.000 C 
ATOM      6  O   UNL     1       2.549   2.455  17.767  0.00  0.00    +0.000 OA
BRANCH   5   7
ATOM      7  O   UNL     1       2.112   4.648  18.311  0.00  0.00    +0.000 OA
BRANCH   7   9
ATOM      8  C   UNL     1       2.443   7.011  18.736  0.00  0.00    +0.000 C 
ATOM      9  C   UNL     1       2.585   5.597  19.287  0.00  0.00    +0.000 C 
ATOM     10  C   UNL     1       1.740   5.433  20.545  0.00  0.00    +0.000 C 
ENDBRANCH   7   9
ENDBRANCH   5   7
ENDBRANCH   1   5
BRANCH   1  11
ATOM     11  C   UNL     1       5.106   4.158  16.917  0.00  0.00    +0.000 C 
BRANCH  11  12
ATOM     12  C   UNL     1       5.388   5.611  16.525  0.00  0.00    +0.000 C 
BRANCH  12  13
ATOM     13  C   UNL     1       6.855   5.979  16.590  0.00  0.00    +0.000 C 
ATOM     14  O   UNL     1       7.671   5.815  15.693  0.00  0.00    +0.000 OA
BRANCH  13  15
ATOM     15  C   UNL     1       7.372   6.655  17.807  0.00  0.00    +0.000 C 
ATOM     16  N   UNL     1       7.401   5.941  18.906  0.00  0.00    +0.000 NA
ATOM     17  N   UNL     1       7.422   5.324  19.864  0.00  0.00    +0.000 NA
ENDBRANCH  13  15
ENDBRANCH  12  13
ENDBRANCH  11  12
ENDBRANCH   1  11
TORSDOF 8
ENDMDL
