MODEL 1
REMARK VINA RESULT:      -8.8      0.000      0.000
REMARK  Name = 
REMARK  6 active torsions:
REMARK  status: ('A' for Active; 'I' for Inactive)
REMARK    1  A    between atoms: C_1  and  C_2
REMARK    2  A    between atoms: C_5  and  O_6
REMARK    3  A    between atoms: O_6  and  C_7
REMARK    4  A    between atoms: C_9  and  C_10
REMARK    5  A    between atoms: C_21  and  C_23
REMARK    6  A    between atoms: C_28  and  N_29
REMARK                            x       y       z     vdW  Elec       q    Type
REMARK                         _______ _______ _______ _____ _____    ______ ____
ROOT
ATOM      1  C   UNL     1      -0.650  12.027  22.399  0.00  0.00    +0.000 C 
ATOM      2  C   UNL     1      -0.911  10.927  21.352  0.00  0.00    +0.000 C 
ATOM      3  C   UNL     1      -0.016   9.728  21.713  0.00  0.00    +0.000 C 
ATOM      4  C   UNL     1       0.355   8.941  20.476  0.00  0.00    +0.000 C 
ATOM      5  C   UNL     1       1.191   9.821  19.532  0.00  0.00    +0.000 C 
ATOM      6  C   UNL     1       0.691  11.288  19.496  0.00  0.00    +0.000 C 
ATOM      7  N   UNL     1      -0.691  11.429  19.978  0.00  0.00    +0.000 N 
ATOM      8  C   UNL     1      -1.609  12.112  19.149  0.00  0.00    +0.000 C 
ATOM      9  O   UNL     1      -1.232  12.735  18.151  0.00  0.00    +0.000 OA
ENDROOT
BRANCH   8  10
ATOM     10  C   UNL     1      -3.092  12.168  19.430  0.00  0.00    +0.000 A 
ATOM     11  C   UNL     1      -3.577  12.873  20.547  0.00  0.00    +0.000 A 
ATOM     12  C   UNL     1      -4.936  13.047  20.810  0.00  0.00    +0.000 A 
ATOM     13  C   UNL     1      -5.871  12.611  19.894  0.00  0.00    +0.000 A 
ATOM     14  C   UNL     1      -5.439  11.987  18.730  0.00  0.00    +0.000 A 
ATOM     15  C   UNL     1      -4.063  11.723  18.506  0.00  0.00    +0.000 A 
BRANCH  15  16
ATOM     16  N   UNL     1      -3.763  10.943  17.360  0.00  0.00    +0.000 N 
ATOM     17  N   UNL     1      -3.031   9.786  17.479  0.00  0.00    +0.000 NA
ATOM     18  C   UNL     1      -2.702   9.515  16.215  0.00  0.00    +0.000 A 
ATOM     19  C   UNL     1      -3.182  10.528  15.382  0.00  0.00    +0.000 A 
ATOM     20  N   UNL     1      -3.842  11.444  16.095  0.00  0.00    +0.000 NA
ENDBRANCH  15  16
ENDBRANCH   8  10
BRANCH   5  21
ATOM     21  O   UNL     1       1.139   9.288  18.205  0.00  0.00    +0.000 OA
BRANCH  21  22
ATOM     22  C   UNL     1       2.059   8.285  17.975  0.00  0.00    +0.000 A 
ATOM     23  C   UNL     1       1.677   7.012  18.354  0.00  0.00    +0.000 A 
ATOM     24  C   UNL     1       2.568   5.946  18.184  0.00  0.00    +0.000 A 
ATOM     25  C   UNL     1       3.819   6.251  17.629  0.00  0.00    +0.000 A 
ATOM     26  C   UNL     1       4.115   7.560  17.284  0.00  0.00    +0.000 A 
ATOM     27  N   UNL     1       3.260   8.584  17.443  0.00  0.00    +0.000 NA
BRANCH  24  28
ATOM     28  C   UNL     1       2.199   4.569  18.580  0.00  0.00    +0.000 A 
ATOM     29  C   UNL     1       2.526   3.454  17.787  0.00  0.00    +0.000 A 
ATOM     30  C   UNL     1       2.162   2.158  18.167  0.00  0.00    +0.000 A 
ATOM     31  C   UNL     1       1.452   1.947  19.344  0.00  0.00    +0.000 A 
ATOM     32  C   UNL     1       1.116   3.031  20.147  0.00  0.00    +0.000 A 
ATOM     33  C   UNL     1       1.493   4.322  19.774  0.00  0.00    +0.000 A 
ENDBRANCH  24  28
ENDBRANCH  21  22
ENDBRANCH   5  21
TORSDOF 5
ENDMDL
MODEL 2
REMARK VINA RESULT:      -8.5      3.212      5.346
REMARK  Name = 
REMARK  6 active torsions:
REMARK  status: ('A' for Active; 'I' for Inactive)
REMARK    1  A    between atoms: C_1  and  C_2
REMARK    2  A    between atoms: C_5  and  O_6
REMARK    3  A    between atoms: O_6  and  C_7
REMARK    4  A    between atoms: C_9  and  C_10
REMARK    5  A    between atoms: C_21  and  C_23
REMARK    6  A    between atoms: C_28  and  N_29
REMARK                            x       y       z     vdW  Elec       q    Type
REMARK                         _______ _______ _______ _____ _____    ______ ____
ROOT
ATOM      1  C   UNL     1       1.293   9.114  21.654  0.00  0.00    +0.000 C 
ATOM      2  C   UNL     1       0.976   8.159  20.487  0.00  0.00    +0.000 C 
ATOM      3  C   UNL     1       1.204   6.723  20.993  0.00  0.00    +0.000 C 
ATOM      4  C   UNL     1       1.615   5.810  19.860  0.00  0.00    +0.000 C 
ATOM      5  C   UNL     1       2.965   6.272  19.286  0.00  0.00    +0.000 C 
ATOM      6  C   UNL     1       3.084   7.816  19.228  0.00  0.00    +0.000 C 
ATOM      7  N   UNL     1       1.778   8.489  19.288  0.00  0.00    +0.000 N 
ATOM      8  C   UNL     1       1.482   9.439  18.284  0.00  0.00    +0.000 C 
ATOM      9  O   UNL     1       2.350   9.837  17.501  0.00  0.00    +0.000 OA
ENDROOT
BRANCH   8  10
ATOM     10  C   UNL     1       0.117  10.065  18.117  0.00  0.00    +0.000 A 
ATOM     11  C   UNL     1      -0.898   9.379  17.426  0.00  0.00    +0.000 A 
ATOM     12  C   UNL     1      -2.206   9.855  17.320  0.00  0.00    +0.000 A 
ATOM     13  C   UNL     1      -2.577  10.993  18.004  0.00  0.00    +0.000 A 
ATOM     14  C   UNL     1      -1.631  11.659  18.774  0.00  0.00    +0.000 A 
ATOM     15  C   UNL     1      -0.279  11.232  18.806  0.00  0.00    +0.000 A 
BRANCH  15  16
ATOM     16  N   UNL     1       0.621  12.082  19.500  0.00  0.00    +0.000 N 
ATOM     17  N   UNL     1       0.393  12.407  20.816  0.00  0.00    +0.000 NA
ATOM     18  C   UNL     1       1.235  13.423  21.017  0.00  0.00    +0.000 A 
ATOM     19  C   UNL     1       1.894  13.724  19.823  0.00  0.00    +0.000 A 
ATOM     20  N   UNL     1       1.505  12.892  18.853  0.00  0.00    +0.000 NA
ENDBRANCH  15  16
ENDBRANCH   8  10
BRANCH   5  21
ATOM     21  O   UNL     1       3.129   5.752  17.963  0.00  0.00    +0.000 OA
BRANCH  21  22
ATOM     22  C   UNL     1       4.426   5.382  17.670  0.00  0.00    +0.000 A 
ATOM     23  C   UNL     1       4.712   5.172  16.335  0.00  0.00    +0.000 A 
ATOM     24  C   UNL     1       5.997   4.762  15.961  0.00  0.00    +0.000 A 
ATOM     25  C   UNL     1       6.929   4.586  16.993  0.00  0.00    +0.000 A 
ATOM     26  C   UNL     1       6.549   4.815  18.306  0.00  0.00    +0.000 A 
ATOM     27  N   UNL     1       5.317   5.211  18.667  0.00  0.00    +0.000 NA
BRANCH  24  28
ATOM     28  C   UNL     1       6.342   4.524  14.542  0.00  0.00    +0.000 A 
ATOM     29  C   UNL     1       7.423   5.174  13.920  0.00  0.00    +0.000 A 
ATOM     30  C   UNL     1       7.733   4.949  12.574  0.00  0.00    +0.000 A 
ATOM     31  C   UNL     1       6.961   4.076  11.815  0.00  0.00    +0.000 A 
ATOM     32  C   UNL     1       5.887   3.419  12.405  0.00  0.00    +0.000 A 
ATOM     33  C   UNL     1       5.588   3.635  13.751  0.00  0.00    +0.000 A 
ENDBRANCH  24  28
ENDBRANCH  21  22
ENDBRANCH   5  21
TORSDOF 5
ENDMDL
MODEL 3
REMARK VINA RESULT:      -8.5      0.973      1.185
REMARK  Name = 
REMARK  6 active torsions:
REMARK  status: ('A' for Active; 'I' for Inactive)
REMARK    1  A    between atoms: C_1  and  C_2
REMARK    2  A    between atoms: C_5  and  O_6
REMARK    3  A    between atoms: O_6  and  C_7
REMARK    4  A    between atoms: C_9  and  C_10
REMARK    5  A    between atoms: C_21  and  C_23
REMARK    6  A    between atoms: C_28  and  N_29
REMARK                            x       y       z     vdW  Elec       q    Type
REMARK                         _______ _______ _______ _____ _____    ______ ____
ROOT
ATOM      1  C   UNL     1      -0.797  11.550  22.694  0.00  0.00    +0.000 C 
ATOM      2  C   UNL     1      -0.965  10.575  21.513  0.00  0.00    +0.000 C 
ATOM      3  C   UNL     1      -0.173   9.299  21.854  0.00  0.00    +0.000 C 
ATOM      4  C   UNL     1       0.322   8.620  20.597  0.00  0.00    +0.000 C 
ATOM      5  C   UNL     1       1.309   9.543  19.863  0.00  0.00    +0.000 C 
ATOM      6  C   UNL     1       0.878  11.031  19.920  0.00  0.00    +0.000 C 
ATOM      7  N   UNL     1      -0.548  11.198  20.238  0.00  0.00    +0.000 N 
ATOM      8  C   UNL     1      -1.322  12.008  19.377  0.00  0.00    +0.000 C 
ATOM      9  O   UNL     1      -0.794  12.706  18.506  0.00  0.00    +0.000 OA
ENDROOT
BRANCH   8  10
ATOM     10  C   UNL     1      -2.826  12.116  19.476  0.00  0.00    +0.000 A 
ATOM     11  C   UNL     1      -3.420  12.778  20.565  0.00  0.00    +0.000 A 
ATOM     12  C   UNL     1      -4.794  12.998  20.668  0.00  0.00    +0.000 A 
ATOM     13  C   UNL     1      -5.622  12.659  19.618  0.00  0.00    +0.000 A 
ATOM     14  C   UNL     1      -5.070  12.083  18.480  0.00  0.00    +0.000 A 
ATOM     15  C   UNL     1      -3.688  11.770  18.412  0.00  0.00    +0.000 A 
BRANCH  15  16
ATOM     16  N   UNL     1      -3.276  11.043  17.265  0.00  0.00    +0.000 N 
ATOM     17  N   UNL     1      -3.659  11.452  16.011  0.00  0.00    +0.000 NA
ATOM     18  C   UNL     1      -3.358  10.395  15.254  0.00  0.00    +0.000 A 
ATOM     19  C   UNL     1      -2.866   9.368  16.063  0.00  0.00    +0.000 A 
ATOM     20  N   UNL     1      -2.822   9.761  17.339  0.00  0.00    +0.000 NA
ENDBRANCH  15  16
ENDBRANCH   8  10
BRANCH   5  21
ATOM     21  O   UNL     1       1.408   9.148  18.491  0.00  0.00    +0.000 OA
BRANCH  21  22
ATOM     22  C   UNL     1       2.311   8.129  18.272  0.00  0.00    +0.000 A 
ATOM     23  C   UNL     1       2.187   7.021  19.090  0.00  0.00    +0.000 A 
ATOM     24  C   UNL     1       3.088   5.958  18.952  0.00  0.00    +0.000 A 
ATOM     25  C   UNL     1       4.080   6.095  17.971  0.00  0.00    +0.000 A 
ATOM     26  C   UNL     1       4.130   7.246  17.201  0.00  0.00    +0.000 A 
ATOM     27  N   UNL     1       3.265   8.266  17.329  0.00  0.00    +0.000 NA
BRANCH  24  28
ATOM     28  C   UNL     1       2.991   4.757  19.810  0.00  0.00    +0.000 A 
ATOM     29  C   UNL     1       3.859   3.661  19.656  0.00  0.00    +0.000 A 
ATOM     30  C   UNL     1       3.751   2.525  20.466  0.00  0.00    +0.000 A 
ATOM     31  C   UNL     1       2.764   2.455  21.444  0.00  0.00    +0.000 A 
ATOM     32  C   UNL     1       1.893   3.524  21.618  0.00  0.00    +0.000 A 
ATOM     33  C   UNL     1       2.012   4.662  20.818  0.00  0.00    +0.000 A 
ENDBRANCH  24  28
ENDBRANCH  21  22
ENDBRANCH   5  21
TORSDOF 5
ENDMDL
MODEL 4
REMARK VINA RESULT:      -8.4      2.389      4.371
REMARK  Name = 
REMARK  6 active torsions:
REMARK  status: ('A' for Active; 'I' for Inactive)
REMARK    1  A    between atoms: C_1  and  C_2
REMARK    2  A    between atoms: C_5  and  O_6
REMARK    3  A    between atoms: O_6  and  C_7
REMARK    4  A    between atoms: C_9  and  C_10
REMARK    5  A    between atoms: C_21  and  C_23
REMARK    6  A    between atoms: C_28  and  N_29
REMARK                            x       y       z     vdW  Elec       q    Type
REMARK                         _______ _______ _______ _____ _____    ______ ____
ROOT
ATOM      1  C   UNL     1      -3.179  12.283  19.846  0.00  0.00    +0.000 C 
ATOM      2  C   UNL     1      -1.640  12.347  19.809  0.00  0.00    +0.000 C 
ATOM      3  C   UNL     1      -1.194  11.854  18.419  0.00  0.00    +0.000 C 
ATOM      4  C   UNL     1       0.175  11.215  18.489  0.00  0.00    +0.000 C 
ATOM      5  C   UNL     1       0.119   9.963  19.379  0.00  0.00    +0.000 C 
ATOM      6  C   UNL     1      -0.799  10.159  20.614  0.00  0.00    +0.000 C 
ATOM      7  N   UNL     1      -1.043  11.576  20.921  0.00  0.00    +0.000 N 
ATOM      8  C   UNL     1      -0.796  12.014  22.242  0.00  0.00    +0.000 C 
ATOM      9  O   UNL     1      -0.573  11.211  23.153  0.00  0.00    +0.000 OA
ENDROOT
BRANCH   8  10
ATOM     10  C   UNL     1      -0.826  13.469  22.649  0.00  0.00    +0.000 A 
ATOM     11  C   UNL     1      -1.683  13.902  23.676  0.00  0.00    +0.000 A 
ATOM     12  C   UNL     1      -1.690  15.208  24.166  0.00  0.00    +0.000 A 
ATOM     13  C   UNL     1      -0.749  16.112  23.717  0.00  0.00    +0.000 A 
ATOM     14  C   UNL     1       0.179  15.706  22.766  0.00  0.00    +0.000 A 
ATOM     15  C   UNL     1       0.127  14.408  22.196  0.00  0.00    +0.000 A 
BRANCH  15  16
ATOM     16  N   UNL     1       1.027  14.167  21.126  0.00  0.00    +0.000 N 
ATOM     17  N   UNL     1       2.212  13.509  21.351  0.00  0.00    +0.000 NA
ATOM     18  C   UNL     1       2.893  13.740  20.227  0.00  0.00    +0.000 A 
ATOM     19  C   UNL     1       2.143  14.570  19.391  0.00  0.00    +0.000 A 
ATOM     20  N   UNL     1       0.966  14.858  19.953  0.00  0.00    +0.000 NA
ENDBRANCH  15  16
ENDBRANCH   8  10
BRANCH   5  21
ATOM     21  O   UNL     1       1.436   9.638  19.836  0.00  0.00    +0.000 OA
BRANCH  21  22
ATOM     22  C   UNL     1       2.003   8.570  19.172  0.00  0.00    +0.000 A 
ATOM     23  C   UNL     1       1.958   7.353  19.826  0.00  0.00    +0.000 A 
ATOM     24  C   UNL     1       2.543   6.229  19.232  0.00  0.00    +0.000 A 
ATOM     25  C   UNL     1       3.150   6.419  17.982  0.00  0.00    +0.000 A 
ATOM     26  C   UNL     1       3.151   7.679  17.405  0.00  0.00    +0.000 A 
ATOM     27  N   UNL     1       2.588   8.759  17.972  0.00  0.00    +0.000 NA
BRANCH  24  28
ATOM     28  C   UNL     1       2.519   4.910  19.901  0.00  0.00    +0.000 A 
ATOM     29  C   UNL     1       1.490   4.544  20.788  0.00  0.00    +0.000 A 
ATOM     30  C   UNL     1       1.484   3.298  21.424  0.00  0.00    +0.000 A 
ATOM     31  C   UNL     1       2.514   2.391  21.195  0.00  0.00    +0.000 A 
ATOM     32  C   UNL     1       3.543   2.726  20.323  0.00  0.00    +0.000 A 
ATOM     33  C   UNL     1       3.540   3.965  19.679  0.00  0.00    +0.000 A 
ENDBRANCH  24  28
ENDBRANCH  21  22
ENDBRANCH   5  21
TORSDOF 5
ENDMDL
MODEL 5
REMARK VINA RESULT:      -8.4      2.978      9.478
REMARK  Name = 
REMARK  6 active torsions:
REMARK  status: ('A' for Active; 'I' for Inactive)
REMARK    1  A    between atoms: C_1  and  C_2
REMARK    2  A    between atoms: C_5  and  O_6
REMARK    3  A    between atoms: O_6  and  C_7
REMARK    4  A    between atoms: C_9  and  C_10
REMARK    5  A    between atoms: C_21  and  C_23
REMARK    6  A    between atoms: C_28  and  N_29
REMARK                            x       y       z     vdW  Elec       q    Type
REMARK                         _______ _______ _______ _____ _____    ______ ____
ROOT
ATOM      1  C   UNL     1       2.891   3.876  18.341  0.00  0.00    +0.000 C 
ATOM      2  C   UNL     1       3.282   5.164  19.091  0.00  0.00    +0.000 C 
ATOM      3  C   UNL     1       2.162   5.463  20.105  0.00  0.00    +0.000 C 
ATOM      4  C   UNL     1       2.051   6.949  20.362  0.00  0.00    +0.000 C 
ATOM      5  C   UNL     1       1.647   7.671  19.067  0.00  0.00    +0.000 C 
ATOM      6  C   UNL     1       2.337   7.068  17.816  0.00  0.00    +0.000 C 
ATOM      7  N   UNL     1       3.531   6.279  18.151  0.00  0.00    +0.000 N 
ATOM      8  C   UNL     1       4.733   6.587  17.473  0.00  0.00    +0.000 C 
ATOM      9  O   UNL     1       4.745   7.350  16.503  0.00  0.00    +0.000 OA
ENDROOT
BRANCH   8  10
ATOM     10  C   UNL     1       6.068   5.988  17.848  0.00  0.00    +0.000 A 
ATOM     11  C   UNL     1       6.551   6.096  19.164  0.00  0.00    +0.000 A 
ATOM     12  C   UNL     1       7.727   5.484  19.601  0.00  0.00    +0.000 A 
ATOM     13  C   UNL     1       8.412   4.638  18.753  0.00  0.00    +0.000 A 
ATOM     14  C   UNL     1       7.926   4.428  17.468  0.00  0.00    +0.000 A 
ATOM     15  C   UNL     1       6.785   5.124  16.992  0.00  0.00    +0.000 A 
BRANCH  15  16
ATOM     16  N   UNL     1       6.482   4.943  15.618  0.00  0.00    +0.000 N 
ATOM     17  N   UNL     1       5.496   4.065  15.234  0.00  0.00    +0.000 NA
ATOM     18  C   UNL     1       5.709   3.940  13.923  0.00  0.00    +0.000 A 
ATOM     19  C   UNL     1       6.836   4.683  13.562  0.00  0.00    +0.000 A 
ATOM     20  N   UNL     1       7.341   5.311  14.626  0.00  0.00    +0.000 NA
ENDBRANCH  15  16
ENDBRANCH   8  10
BRANCH   5  21
ATOM     21  O   UNL     1       1.998   9.056  19.158  0.00  0.00    +0.000 OA
BRANCH  21  22
ATOM     22  C   UNL     1       0.933   9.877  19.469  0.00  0.00    +0.000 A 
ATOM     23  C   UNL     1      -0.090   9.922  18.541  0.00  0.00    +0.000 A 
ATOM     24  C   UNL     1      -1.190  10.758  18.768  0.00  0.00    +0.000 A 
ATOM     25  C   UNL     1      -1.178  11.511  19.950  0.00  0.00    +0.000 A 
ATOM     26  C   UNL     1      -0.105  11.404  20.820  0.00  0.00    +0.000 A 
ATOM     27  N   UNL     1       0.951  10.601  20.605  0.00  0.00    +0.000 NA
BRANCH  24  28
ATOM     28  C   UNL     1      -2.304  10.837  17.797  0.00  0.00    +0.000 A 
ATOM     29  C   UNL     1      -2.235  10.224  16.533  0.00  0.00    +0.000 A 
ATOM     30  C   UNL     1      -3.290  10.316  15.619  0.00  0.00    +0.000 A 
ATOM     31  C   UNL     1      -4.437  11.032  15.945  0.00  0.00    +0.000 A 
ATOM     32  C   UNL     1      -4.533  11.647  17.188  0.00  0.00    +0.000 A 
ATOM     33  C   UNL     1      -3.485  11.543  18.103  0.00  0.00    +0.000 A 
ENDBRANCH  24  28
ENDBRANCH  21  22
ENDBRANCH   5  21
TORSDOF 5
ENDMDL
MODEL 6
REMARK VINA RESULT:      -8.4      2.653      4.920
REMARK  Name = 
REMARK  6 active torsions:
REMARK  status: ('A' for Active; 'I' for Inactive)
REMARK    1  A    between atoms: C_1  and  C_2
REMARK    2  A    between atoms: C_5  and  O_6
REMARK    3  A    between atoms: O_6  and  C_7
REMARK    4  A    between atoms: C_9  and  C_10
REMARK    5  A    between atoms: C_21  and  C_23
REMARK    6  A    between atoms: C_28  and  N_29
REMARK                            x       y       z     vdW  Elec       q    Type
REMARK                         _______ _______ _______ _____ _____    ______ ____
ROOT
ATOM      1  C   UNL     1      -3.158  12.189  19.759  0.00  0.00    +0.000 C 
ATOM      2  C   UNL     1      -1.619  12.244  19.701  0.00  0.00    +0.000 C 
ATOM      3  C   UNL     1      -1.186  11.612  18.365  0.00  0.00    +0.000 C 
ATOM      4  C   UNL     1       0.181  10.979  18.486  0.00  0.00    +0.000 C 
ATOM      5  C   UNL     1       0.130   9.824  19.499  0.00  0.00    +0.000 C 
ATOM      6  C   UNL     1      -0.775  10.146  20.716  0.00  0.00    +0.000 C 
ATOM      7  N   UNL     1      -1.014  11.587  20.880  0.00  0.00    +0.000 N 
ATOM      8  C   UNL     1      -0.754  12.155  22.149  0.00  0.00    +0.000 C 
ATOM      9  O   UNL     1      -0.524  11.447  23.134  0.00  0.00    +0.000 OA
ENDROOT
BRANCH   8  10
ATOM     10  C   UNL     1      -0.776  13.644  22.406  0.00  0.00    +0.000 A 
ATOM     11  C   UNL     1      -1.848  14.227  23.106  0.00  0.00    +0.000 A 
ATOM     12  C   UNL     1      -1.884  15.576  23.463  0.00  0.00    +0.000 A 
ATOM     13  C   UNL     1      -0.785  16.375  23.227  0.00  0.00    +0.000 A 
ATOM     14  C   UNL     1       0.336  15.822  22.619  0.00  0.00    +0.000 A 
ATOM     15  C   UNL     1       0.338  14.477  22.168  0.00  0.00    +0.000 A 
BRANCH  15  16
ATOM     16  N   UNL     1       1.478  14.078  21.424  0.00  0.00    +0.000 N 
ATOM     17  N   UNL     1       2.735  14.181  21.970  0.00  0.00    +0.000 NA
ATOM     18  C   UNL     1       3.530  14.017  20.911  0.00  0.00    +0.000 A 
ATOM     19  C   UNL     1       2.750  13.883  19.761  0.00  0.00    +0.000 A 
ATOM     20  N   UNL     1       1.451  13.933  20.070  0.00  0.00    +0.000 NA
ENDBRANCH  15  16
ENDBRANCH   8  10
BRANCH   5  21
ATOM     21  O   UNL     1       1.451   9.542  19.975  0.00  0.00    +0.000 OA
BRANCH  21  22
ATOM     22  C   UNL     1       1.765   8.198  19.970  0.00  0.00    +0.000 A 
ATOM     23  C   UNL     1       2.558   7.764  18.925  0.00  0.00    +0.000 A 
ATOM     24  C   UNL     1       2.893   6.407  18.831  0.00  0.00    +0.000 A 
ATOM     25  C   UNL     1       2.386   5.562  19.828  0.00  0.00    +0.000 A 
ATOM     26  C   UNL     1       1.593   6.087  20.835  0.00  0.00    +0.000 A 
ATOM     27  N   UNL     1       1.273   7.389  20.929  0.00  0.00    +0.000 NA
BRANCH  24  28
ATOM     28  C   UNL     1       3.737   5.902  17.726  0.00  0.00    +0.000 A 
ATOM     29  C   UNL     1       4.512   6.763  16.928  0.00  0.00    +0.000 A 
ATOM     30  C   UNL     1       5.298   6.275  15.879  0.00  0.00    +0.000 A 
ATOM     31  C   UNL     1       5.320   4.913  15.596  0.00  0.00    +0.000 A 
ATOM     32  C   UNL     1       4.564   4.039  16.369  0.00  0.00    +0.000 A 
ATOM     33  C   UNL     1       3.792   4.527  17.424  0.00  0.00    +0.000 A 
ENDBRANCH  24  28
ENDBRANCH  21  22
ENDBRANCH   5  21
TORSDOF 5
ENDMDL
MODEL 7
REMARK VINA RESULT:      -8.3      1.532      2.558
REMARK  Name = 
REMARK  6 active torsions:
REMARK  status: ('A' for Active; 'I' for Inactive)
REMARK    1  A    between atoms: C_1  and  C_2
REMARK    2  A    between atoms: C_5  and  O_6
REMARK    3  A    between atoms: O_6  and  C_7
REMARK    4  A    between atoms: C_9  and  C_10
REMARK    5  A    between atoms: C_21  and  C_23
REMARK    6  A    between atoms: C_28  and  N_29
REMARK                            x       y       z     vdW  Elec       q    Type
REMARK                         _______ _______ _______ _____ _____    ______ ____
ROOT
ATOM      1  C   UNL     1      -1.307  12.512  23.106  0.00  0.00    +0.000 C 
ATOM      2  C   UNL     1      -1.426  11.311  22.148  0.00  0.00    +0.000 C 
ATOM      3  C   UNL     1      -0.663  10.136  22.788  0.00  0.00    +0.000 C 
ATOM      4  C   UNL     1      -0.112   9.210  21.728  0.00  0.00    +0.000 C 
ATOM      5  C   UNL     1       0.918   9.960  20.868  0.00  0.00    +0.000 C 
ATOM      6  C   UNL     1       0.498  11.426  20.590  0.00  0.00    +0.000 C 
ATOM      7  N   UNL     1      -0.940  11.654  20.793  0.00  0.00    +0.000 N 
ATOM      8  C   UNL     1      -1.663  12.264  19.743  0.00  0.00    +0.000 C 
ATOM      9  O   UNL     1      -1.087  12.765  18.773  0.00  0.00    +0.000 OA
ENDROOT
BRANCH   8  10
ATOM     10  C   UNL     1      -3.169  12.387  19.741  0.00  0.00    +0.000 A 
ATOM     11  C   UNL     1      -3.823  13.114  20.752  0.00  0.00    +0.000 A 
ATOM     12  C   UNL     1      -5.199  13.350  20.757  0.00  0.00    +0.000 A 
ATOM     13  C   UNL     1      -5.963  12.957  19.678  0.00  0.00    +0.000 A 
ATOM     14  C   UNL     1      -5.347  12.314  18.611  0.00  0.00    +0.000 A 
ATOM     15  C   UNL     1      -3.967  11.988  18.647  0.00  0.00    +0.000 A 
BRANCH  15  16
ATOM     16  N   UNL     1      -3.492  11.195  17.571  0.00  0.00    +0.000 N 
ATOM     17  N   UNL     1      -3.828  11.509  16.276  0.00  0.00    +0.000 NA
ATOM     18  C   UNL     1      -3.474  10.410  15.607  0.00  0.00    +0.000 A 
ATOM     19  C   UNL     1      -2.999   9.451  16.504  0.00  0.00    +0.000 A 
ATOM     20  N   UNL     1      -3.018   9.930  17.751  0.00  0.00    +0.000 NA
ENDBRANCH  15  16
ENDBRANCH   8  10
BRANCH   5  21
ATOM     21  O   UNL     1       1.081   9.286  19.615  0.00  0.00    +0.000 OA
BRANCH  21  22
ATOM     22  C   UNL     1       1.665   8.041  19.729  0.00  0.00    +0.000 A 
ATOM     23  C   UNL     1       2.453   7.640  18.666  0.00  0.00    +0.000 A 
ATOM     24  C   UNL     1       3.052   6.375  18.692  0.00  0.00    +0.000 A 
ATOM     25  C   UNL     1       2.805   5.582  19.821  0.00  0.00    +0.000 A 
ATOM     26  C   UNL     1       1.996   6.067  20.836  0.00  0.00    +0.000 A 
ATOM     27  N   UNL     1       1.422   7.281  20.815  0.00  0.00    +0.000 NA
BRANCH  24  28
ATOM     28  C   UNL     1       3.900   5.907  17.573  0.00  0.00    +0.000 A 
ATOM     29  C   UNL     1       4.570   6.804  16.721  0.00  0.00    +0.000 A 
ATOM     30  C   UNL     1       5.360   6.350  15.660  0.00  0.00    +0.000 A 
ATOM     31  C   UNL     1       5.490   4.987  15.418  0.00  0.00    +0.000 A 
ATOM     32  C   UNL     1       4.839   4.078  16.244  0.00  0.00    +0.000 A 
ATOM     33  C   UNL     1       4.062   4.533  17.311  0.00  0.00    +0.000 A 
ENDBRANCH  24  28
ENDBRANCH  21  22
ENDBRANCH   5  21
TORSDOF 5
ENDMDL
MODEL 8
REMARK VINA RESULT:      -8.3      2.898      4.844
REMARK  Name = 
REMARK  6 active torsions:
REMARK  status: ('A' for Active; 'I' for Inactive)
REMARK    1  A    between atoms: C_1  and  C_2
REMARK    2  A    between atoms: C_5  and  O_6
REMARK    3  A    between atoms: O_6  and  C_7
REMARK    4  A    between atoms: C_9  and  C_10
REMARK    5  A    between atoms: C_21  and  C_23
REMARK    6  A    between atoms: C_28  and  N_29
REMARK                            x       y       z     vdW  Elec       q    Type
REMARK                         _______ _______ _______ _____ _____    ______ ____
ROOT
ATOM      1  C   UNL     1      -2.968  12.192  19.305  0.00  0.00    +0.000 C 
ATOM      2  C   UNL     1      -1.507  11.953  18.879  0.00  0.00    +0.000 C 
ATOM      3  C   UNL     1      -1.479  10.664  18.036  0.00  0.00    +0.000 C 
ATOM      4  C   UNL     1      -0.145   9.965  18.164  0.00  0.00    +0.000 C 
ATOM      5  C   UNL     1       0.070   9.519  19.619  0.00  0.00    +0.000 C 
ATOM      6  C   UNL     1      -0.451  10.564  20.639  0.00  0.00    +0.000 C 
ATOM      7  N   UNL     1      -0.607  11.902  20.052  0.00  0.00    +0.000 N 
ATOM      8  C   UNL     1       0.009  12.987  20.716  0.00  0.00    +0.000 C 
ATOM      9  O   UNL     1       0.494  12.857  21.845  0.00  0.00    +0.000 OA
ENDROOT
BRANCH   8  10
ATOM     10  C   UNL     1       0.088  14.377  20.130  0.00  0.00    +0.000 A 
ATOM     11  C   UNL     1       1.072  14.691  19.176  0.00  0.00    +0.000 A 
ATOM     12  C   UNL     1       1.140  15.923  18.523  0.00  0.00    +0.000 A 
ATOM     13  C   UNL     1       0.145  16.857  18.723  0.00  0.00    +0.000 A 
ATOM     14  C   UNL     1      -0.899  16.559  19.590  0.00  0.00    +0.000 A 
ATOM     15  C   UNL     1      -0.919  15.348  20.327  0.00  0.00    +0.000 A 
BRANCH  15  16
ATOM     16  N   UNL     1      -1.951  15.229  21.293  0.00  0.00    +0.000 N 
ATOM     17  N   UNL     1      -3.269  15.227  20.904  0.00  0.00    +0.000 NA
ATOM     18  C   UNL     1      -3.916  15.409  22.056  0.00  0.00    +0.000 A 
ATOM     19  C   UNL     1      -2.990  15.576  23.088  0.00  0.00    +0.000 A 
ATOM     20  N   UNL     1      -1.744  15.479  22.617  0.00  0.00    +0.000 NA
ENDBRANCH  15  16
ENDBRANCH   8  10
BRANCH   5  21
ATOM     21  O   UNL     1       1.465   9.305  19.857  0.00  0.00    +0.000 OA
BRANCH  21  22
ATOM     22  C   UNL     1       1.830   7.974  19.849  0.00  0.00    +0.000 A 
ATOM     23  C   UNL     1       2.637   7.572  18.802  0.00  0.00    +0.000 A 
ATOM     24  C   UNL     1       3.023   6.229  18.705  0.00  0.00    +0.000 A 
ATOM     25  C   UNL     1       2.550   5.363  19.701  0.00  0.00    +0.000 A 
ATOM     26  C   UNL     1       1.739   5.857  20.711  0.00  0.00    +0.000 A 
ATOM     27  N   UNL     1       1.370   7.145  20.807  0.00  0.00    +0.000 NA
BRANCH  24  28
ATOM     28  C   UNL     1       3.884   5.758  17.598  0.00  0.00    +0.000 A 
ATOM     29  C   UNL     1       4.559   6.653  16.748  0.00  0.00    +0.000 A 
ATOM     30  C   UNL     1       5.362   6.195  15.698  0.00  0.00    +0.000 A 
ATOM     31  C   UNL     1       5.500   4.831  15.466  0.00  0.00    +0.000 A 
ATOM     32  C   UNL     1       4.844   3.924  16.291  0.00  0.00    +0.000 A 
ATOM     33  C   UNL     1       4.055   4.383  17.347  0.00  0.00    +0.000 A 
ENDBRANCH  24  28
ENDBRANCH  21  22
ENDBRANCH   5  21
TORSDOF 5
ENDMDL
MODEL 9
REMARK VINA RESULT:      -8.2      2.734      4.372
REMARK  Name = 
REMARK  6 active torsions:
REMARK  status: ('A' for Active; 'I' for Inactive)
REMARK    1  A    between atoms: C_1  and  C_2
REMARK    2  A    between atoms: C_5  and  O_6
REMARK    3  A    between atoms: O_6  and  C_7
REMARK    4  A    between atoms: C_9  and  C_10
REMARK    5  A    between atoms: C_21  and  C_23
REMARK    6  A    between atoms: C_28  and  N_29
REMARK                            x       y       z     vdW  Elec       q    Type
REMARK                         _______ _______ _______ _____ _____    ______ ____
ROOT
ATOM      1  C   UNL     1      -3.403  12.056  19.639  0.00  0.00    +0.000 C 
ATOM      2  C   UNL     1      -1.976  12.019  19.060  0.00  0.00    +0.000 C 
ATOM      3  C   UNL     1      -1.870  10.761  18.179  0.00  0.00    +0.000 C 
ATOM      4  C   UNL     1      -0.450  10.242  18.149  0.00  0.00    +0.000 C 
ATOM      5  C   UNL     1      -0.029   9.801  19.560  0.00  0.00    +0.000 C 
ATOM      6  C   UNL     1      -0.571  10.750  20.660  0.00  0.00    +0.000 C 
ATOM      7  N   UNL     1      -0.959  12.067  20.133  0.00  0.00    +0.000 N 
ATOM      8  C   UNL     1      -0.422  13.211  20.766  0.00  0.00    +0.000 C 
ATOM      9  O   UNL     1       0.191  13.126  21.834  0.00  0.00    +0.000 OA
ENDROOT
BRANCH   8  10
ATOM     10  C   UNL     1      -0.585  14.610  20.218  0.00  0.00    +0.000 A 
ATOM     11  C   UNL     1       0.101  15.002  19.055  0.00  0.00    +0.000 A 
ATOM     12  C   UNL     1      -0.080  16.243  18.442  0.00  0.00    +0.000 A 
ATOM     13  C   UNL     1      -1.049  17.103  18.914  0.00  0.00    +0.000 A 
ATOM     14  C   UNL     1      -1.817  16.724  20.008  0.00  0.00    +0.000 A 
ATOM     15  C   UNL     1      -1.569  15.506  20.691  0.00  0.00    +0.000 A 
BRANCH  15  16
ATOM     16  N   UNL     1      -2.312  15.305  21.884  0.00  0.00    +0.000 N 
ATOM     17  N   UNL     1      -3.626  14.907  21.824  0.00  0.00    +0.000 NA
ATOM     18  C   UNL     1      -4.053  15.121  23.070  0.00  0.00    +0.000 A 
ATOM     19  C   UNL     1      -3.025  15.691  23.823  0.00  0.00    +0.000 A 
ATOM     20  N   UNL     1      -1.923  15.825  23.082  0.00  0.00    +0.000 NA
ENDBRANCH  15  16
ENDBRANCH   8  10
BRANCH   5  21
ATOM     21  O   UNL     1       1.400   9.769  19.648  0.00  0.00    +0.000 OA
BRANCH  21  22
ATOM     22  C   UNL     1       1.965   8.655  19.062  0.00  0.00    +0.000 A 
ATOM     23  C   UNL     1       1.691   7.444  19.670  0.00  0.00    +0.000 A 
ATOM     24  C   UNL     1       2.255   6.271  19.154  0.00  0.00    +0.000 A 
ATOM     25  C   UNL     1       3.081   6.409  18.030  0.00  0.00    +0.000 A 
ATOM     26  C   UNL     1       3.303   7.667  17.492  0.00  0.00    +0.000 A 
ATOM     27  N   UNL     1       2.761   8.794  17.983  0.00  0.00    +0.000 NA
BRANCH  24  28
ATOM     28  C   UNL     1       1.990   4.956  19.777  0.00  0.00    +0.000 A 
ATOM     29  C   UNL     1       2.362   4.672  21.103  0.00  0.00    +0.000 A 
ATOM     30  C   UNL     1       2.115   3.421  21.678  0.00  0.00    +0.000 A 
ATOM     31  C   UNL     1       1.499   2.419  20.936  0.00  0.00    +0.000 A 
ATOM     32  C   UNL     1       1.119   2.673  19.623  0.00  0.00    +0.000 A 
ATOM     33  C   UNL     1       1.354   3.926  19.056  0.00  0.00    +0.000 A 
ENDBRANCH  24  28
ENDBRANCH  21  22
ENDBRANCH   5  21
TORSDOF 5
ENDMDL
