MODEL 1
REMARK VINA RESULT:      -6.4      0.000      0.000
REMARK  Name = 
REMARK  10 active torsions:
REMARK  status: ('A' for Active; 'I' for Inactive)
REMARK    1  A    between atoms: C_1  and  C_2
REMARK    2  A    between atoms: C_2  and  C_3
REMARK    3  A    between atoms: C_7  and  C_8
REMARK    4  A    between atoms: C_8  and  N_9
REMARK    5  A    between atoms: C_10  and  C_12
REMARK    6  A    between atoms: C_12  and  N_13
REMARK    7  A    between atoms: C_14  and  C_16
REMARK    8  A    between atoms: C_16  and  C_17
REMARK    9  A    between atoms: C_16  and  C_18
REMARK   10  A    between atoms: C_16  and  C_19
REMARK                            x       y       z     vdW  Elec       q    Type
REMARK                         _______ _______ _______ _____ _____    ______ ____
ROOT
ATOM      1  N   UNL     1       5.783   5.447  18.867  0.00  0.00    +0.000 N 
ATOM      2  C   UNL     1       7.091   5.718  19.194  0.00  0.00    +0.000 C 
ATOM      3  O   UNL     1       7.595   5.454  20.281  0.00  0.00    +0.000 OA
ATOM      4  H   UNL     1       5.396   5.880  18.034  0.00  0.00    +0.000 HD
ENDROOT
BRANCH   1   5
ATOM      5  C   UNL     1       4.874   4.768  19.757  0.00  0.00    +0.000 C 
BRANCH   5  10
ATOM      6  C   UNL     1       2.693   5.009  18.329  0.00  0.00    +0.000 A 
ATOM      7  C   UNL     1       1.772   4.131  17.658  0.00  0.00    +0.000 A 
ATOM      8  C   UNL     1       2.077   2.802  17.823  0.00  0.00    +0.000 A 
ATOM      9  S   UNL     1       3.467   2.585  18.783  0.00  0.00    +0.000 S 
ATOM     10  C   UNL     1       3.686   4.281  18.979  0.00  0.00    +0.000 A 
BRANCH   6  12
ATOM     11  C   UNL     1       2.264   7.142  19.618  0.00  0.00    +0.000 C 
ATOM     12  C   UNL     1       2.584   6.511  18.271  0.00  0.00    +0.000 C 
ENDBRANCH   6  12
ENDBRANCH   5  10
ENDBRANCH   1   5
BRANCH   2  13
ATOM     13  C   UNL     1       7.851   6.496  18.118  0.00  0.00    +0.000 C 
BRANCH  13  14
ATOM     14  N   UNL     1       7.230   6.291  16.824  0.00  0.00    +0.000 N 
ATOM     15  C   UNL     1       7.292   5.068  16.191  0.00  0.00    +0.000 C 
ATOM     16  O   UNL     1       7.901   4.123  16.687  0.00  0.00    +0.000 OA
ATOM     17  H   UNL     1       6.541   6.971  16.530  0.00  0.00    +0.000 HD
BRANCH  15  18
ATOM     18  C   UNL     1       6.543   4.979  14.845  0.00  0.00    +0.000 C 
ATOM     19  C   UNL     1       5.366   5.966  14.829  0.00  0.00    +0.000 C 
ATOM     20  C   UNL     1       7.501   5.342  13.695  0.00  0.00    +0.000 C 
ATOM     21  C   UNL     1       6.030   3.549  14.621  0.00  0.00    +0.000 C 
ENDBRANCH  15  18
ENDBRANCH  13  14
ENDBRANCH   2  13
TORSDOF 6
ENDMDL
MODEL 2
REMARK VINA RESULT:      -6.3      2.695      5.733
REMARK  Name = 
REMARK  10 active torsions:
REMARK  status: ('A' for Active; 'I' for Inactive)
REMARK    1  A    between atoms: C_1  and  C_2
REMARK    2  A    between atoms: C_2  and  C_3
REMARK    3  A    between atoms: C_7  and  C_8
REMARK    4  A    between atoms: C_8  and  N_9
REMARK    5  A    between atoms: C_10  and  C_12
REMARK    6  A    between atoms: C_12  and  N_13
REMARK    7  A    between atoms: C_14  and  C_16
REMARK    8  A    between atoms: C_16  and  C_17
REMARK    9  A    between atoms: C_16  and  C_18
REMARK   10  A    between atoms: C_16  and  C_19
REMARK                            x       y       z     vdW  Elec       q    Type
REMARK                         _______ _______ _______ _____ _____    ______ ____
ROOT
ATOM      1  N   UNL     1       3.915   6.768  17.927  0.00  0.00    +0.000 N 
ATOM      2  C   UNL     1       2.727   7.320  18.343  0.00  0.00    +0.000 C 
ATOM      3  O   UNL     1       2.064   8.107  17.674  0.00  0.00    +0.000 OA
ATOM      4  H   UNL     1       4.494   6.296  18.615  0.00  0.00    +0.000 HD
ENDROOT
BRANCH   1   5
ATOM      5  C   UNL     1       4.485   7.019  16.626  0.00  0.00    +0.000 C 
BRANCH   5  10
ATOM      6  C   UNL     1       6.795   5.806  16.862  0.00  0.00    +0.000 A 
ATOM      7  C   UNL     1       7.426   4.631  16.325  0.00  0.00    +0.000 A 
ATOM      8  C   UNL     1       6.640   3.966  15.416  0.00  0.00    +0.000 A 
ATOM      9  S   UNL     1       5.139   4.737  15.190  0.00  0.00    +0.000 S 
ATOM     10  C   UNL     1       5.520   5.973  16.326  0.00  0.00    +0.000 A 
BRANCH   6  12
ATOM     11  C   UNL     1       7.853   5.932  19.155  0.00  0.00    +0.000 C 
ATOM     12  C   UNL     1       7.446   6.686  17.898  0.00  0.00    +0.000 C 
ENDBRANCH   6  12
ENDBRANCH   5  10
ENDBRANCH   1   5
BRANCH   2  13
ATOM     13  C   UNL     1       2.345   6.959  19.780  0.00  0.00    +0.000 C 
BRANCH  13  14
ATOM     14  N   UNL     1       1.906   5.578  19.846  0.00  0.00    +0.000 N 
ATOM     15  C   UNL     1       2.814   4.549  19.970  0.00  0.00    +0.000 C 
ATOM     16  O   UNL     1       4.024   4.764  19.995  0.00  0.00    +0.000 OA
ATOM     17  H   UNL     1       0.932   5.414  20.065  0.00  0.00    +0.000 HD
BRANCH  15  18
ATOM     18  C   UNL     1       2.204   3.136  20.082  0.00  0.00    +0.000 C 
ATOM     19  C   UNL     1       2.144   2.702  21.554  0.00  0.00    +0.000 C 
ATOM     20  C   UNL     1       0.772   3.145  19.515  0.00  0.00    +0.000 C 
ATOM     21  C   UNL     1       3.043   2.135  19.274  0.00  0.00    +0.000 C 
ENDBRANCH  15  18
ENDBRANCH  13  14
ENDBRANCH   2  13
TORSDOF 6
ENDMDL
MODEL 3
REMARK VINA RESULT:      -6.3      2.685      5.744
REMARK  Name = 
REMARK  10 active torsions:
REMARK  status: ('A' for Active; 'I' for Inactive)
REMARK    1  A    between atoms: C_1  and  C_2
REMARK    2  A    between atoms: C_2  and  C_3
REMARK    3  A    between atoms: C_7  and  C_8
REMARK    4  A    between atoms: C_8  and  N_9
REMARK    5  A    between atoms: C_10  and  C_12
REMARK    6  A    between atoms: C_12  and  N_13
REMARK    7  A    between atoms: C_14  and  C_16
REMARK    8  A    between atoms: C_16  and  C_17
REMARK    9  A    between atoms: C_16  and  C_18
REMARK   10  A    between atoms: C_16  and  C_19
REMARK                            x       y       z     vdW  Elec       q    Type
REMARK                         _______ _______ _______ _____ _____    ______ ____
ROOT
ATOM      1  N   UNL     1       3.910   6.662  17.833  0.00  0.00    +0.000 N 
ATOM      2  C   UNL     1       2.799   7.316  18.311  0.00  0.00    +0.000 C 
ATOM      3  O   UNL     1       2.265   8.265  17.745  0.00  0.00    +0.000 OA
ATOM      4  H   UNL     1       4.403   6.031  18.458  0.00  0.00    +0.000 HD
ENDROOT
BRANCH   1   5
ATOM      5  C   UNL     1       4.538   6.993  16.578  0.00  0.00    +0.000 C 
BRANCH   5  10
ATOM      6  C   UNL     1       6.841   5.779  16.856  0.00  0.00    +0.000 A 
ATOM      7  C   UNL     1       7.509   4.644  16.278  0.00  0.00    +0.000 A 
ATOM      8  C   UNL     1       6.777   4.035  15.288  0.00  0.00    +0.000 A 
ATOM      9  S   UNL     1       5.283   4.812  15.035  0.00  0.00    +0.000 S 
ATOM     10  C   UNL     1       5.595   5.974  16.265  0.00  0.00    +0.000 A 
BRANCH   6  12
ATOM     11  C   UNL     1       7.771   8.019  17.573  0.00  0.00    +0.000 C 
ATOM     12  C   UNL     1       7.430   6.592  17.979  0.00  0.00    +0.000 C 
ENDBRANCH   6  12
ENDBRANCH   5  10
ENDBRANCH   1   5
BRANCH   2  13
ATOM     13  C   UNL     1       2.340   6.833  19.688  0.00  0.00    +0.000 C 
BRANCH  13  14
ATOM     14  N   UNL     1       1.879   5.460  19.607  0.00  0.00    +0.000 N 
ATOM     15  C   UNL     1       2.744   4.407  19.805  0.00  0.00    +0.000 C 
ATOM     16  O   UNL     1       3.938   4.594  20.026  0.00  0.00    +0.000 OA
ATOM     17  H   UNL     1       0.880   5.306  19.665  0.00  0.00    +0.000 HD
BRANCH  15  18
ATOM     18  C   UNL     1       2.105   3.004  19.740  0.00  0.00    +0.000 C 
ATOM     19  C   UNL     1       3.145   1.971  19.280  0.00  0.00    +0.000 C 
ATOM     20  C   UNL     1       1.599   2.600  21.138  0.00  0.00    +0.000 C 
ATOM     21  C   UNL     1       0.912   3.013  18.772  0.00  0.00    +0.000 C 
ENDBRANCH  15  18
ENDBRANCH  13  14
ENDBRANCH   2  13
TORSDOF 6
ENDMDL
MODEL 4
REMARK VINA RESULT:      -6.3      4.009      5.882
REMARK  Name = 
REMARK  10 active torsions:
REMARK  status: ('A' for Active; 'I' for Inactive)
REMARK    1  A    between atoms: C_1  and  C_2
REMARK    2  A    between atoms: C_2  and  C_3
REMARK    3  A    between atoms: C_7  and  C_8
REMARK    4  A    between atoms: C_8  and  N_9
REMARK    5  A    between atoms: C_10  and  C_12
REMARK    6  A    between atoms: C_12  and  N_13
REMARK    7  A    between atoms: C_14  and  C_16
REMARK    8  A    between atoms: C_16  and  C_17
REMARK    9  A    between atoms: C_16  and  C_18
REMARK   10  A    between atoms: C_16  and  C_19
REMARK                            x       y       z     vdW  Elec       q    Type
REMARK                         _______ _______ _______ _____ _____    ______ ____
ROOT
ATOM      1  N   UNL     1       7.411   6.939  17.144  0.00  0.00    +0.000 N 
ATOM      2  C   UNL     1       8.041   7.783  18.028  0.00  0.00    +0.000 C 
ATOM      3  O   UNL     1       8.615   7.407  19.045  0.00  0.00    +0.000 OA
ATOM      4  H   UNL     1       6.792   7.345  16.449  0.00  0.00    +0.000 HD
ENDROOT
BRANCH   1   5
ATOM      5  C   UNL     1       7.405   5.504  17.296  0.00  0.00    +0.000 C 
BRANCH   5  10
ATOM      6  C   UNL     1       5.053   4.789  16.394  0.00  0.00    +0.000 A 
ATOM      7  C   UNL     1       3.828   4.273  16.942  0.00  0.00    +0.000 A 
ATOM      8  C   UNL     1       3.863   4.143  18.310  0.00  0.00    +0.000 A 
ATOM      9  S   UNL     1       5.359   4.637  18.955  0.00  0.00    +0.000 S 
ATOM     10  C   UNL     1       5.987   5.021  17.400  0.00  0.00    +0.000 A 
BRANCH   6  12
ATOM     11  C   UNL     1       6.078   3.879  14.268  0.00  0.00    +0.000 C 
ATOM     12  C   UNL     1       5.267   4.992  14.916  0.00  0.00    +0.000 C 
ENDBRANCH   6  12
ENDBRANCH   5  10
ENDBRANCH   1   5
BRANCH   2  13
ATOM     13  C   UNL     1       7.869   9.267  17.698  0.00  0.00    +0.000 C 
BRANCH  13  14
ATOM     14  N   UNL     1       8.955  10.035  18.275  0.00  0.00    +0.000 N 
ATOM     15  C   UNL     1       9.030  11.400  18.103  0.00  0.00    +0.000 C 
ATOM     16  O   UNL     1       8.199  12.005  17.429  0.00  0.00    +0.000 OA
ATOM     17  H   UNL     1       9.491   9.593  19.011  0.00  0.00    +0.000 HD
BRANCH  15  18
ATOM     18  C   UNL     1      10.210  12.094  18.816  0.00  0.00    +0.000 C 
ATOM     19  C   UNL     1      10.340  11.569  20.254  0.00  0.00    +0.000 C 
ATOM     20  C   UNL     1      11.519  11.792  18.064  0.00  0.00    +0.000 C 
ATOM     21  C   UNL     1       9.994  13.615  18.831  0.00  0.00    +0.000 C 
ENDBRANCH  15  18
ENDBRANCH  13  14
ENDBRANCH   2  13
TORSDOF 6
ENDMDL
MODEL 5
REMARK VINA RESULT:      -6.3      2.862      5.582
REMARK  Name = 
REMARK  10 active torsions:
REMARK  status: ('A' for Active; 'I' for Inactive)
REMARK    1  A    between atoms: C_1  and  C_2
REMARK    2  A    between atoms: C_2  and  C_3
REMARK    3  A    between atoms: C_7  and  C_8
REMARK    4  A    between atoms: C_8  and  N_9
REMARK    5  A    between atoms: C_10  and  C_12
REMARK    6  A    between atoms: C_12  and  N_13
REMARK    7  A    between atoms: C_14  and  C_16
REMARK    8  A    between atoms: C_16  and  C_17
REMARK    9  A    between atoms: C_16  and  C_18
REMARK   10  A    between atoms: C_16  and  C_19
REMARK                            x       y       z     vdW  Elec       q    Type
REMARK                         _______ _______ _______ _____ _____    ______ ____
ROOT
ATOM      1  N   UNL     1       3.744   6.602  18.135  0.00  0.00    +0.000 N 
ATOM      2  C   UNL     1       2.758   7.383  18.691  0.00  0.00    +0.000 C 
ATOM      3  O   UNL     1       2.477   8.513  18.305  0.00  0.00    +0.000 OA
ATOM      4  H   UNL     1       4.047   5.776  18.640  0.00  0.00    +0.000 HD
ENDROOT
BRANCH   1   5
ATOM      5  C   UNL     1       4.521   7.015  16.992  0.00  0.00    +0.000 C 
BRANCH   5  10
ATOM      6  C   UNL     1       6.852   5.840  17.202  0.00  0.00    +0.000 A 
ATOM      7  C   UNL     1       7.485   4.658  16.684  0.00  0.00    +0.000 A 
ATOM      8  C   UNL     1       6.685   3.954  15.817  0.00  0.00    +0.000 A 
ATOM      9  S   UNL     1       5.167   4.699  15.609  0.00  0.00    +0.000 S 
ATOM     10  C   UNL     1       5.562   5.974  16.696  0.00  0.00    +0.000 A 
BRANCH   6  12
ATOM     11  C   UNL     1       7.875   8.118  17.606  0.00  0.00    +0.000 C 
ATOM     12  C   UNL     1       7.519   6.760  18.193  0.00  0.00    +0.000 C 
ENDBRANCH   6  12
ENDBRANCH   5  10
ENDBRANCH   1   5
BRANCH   2  13
ATOM     13  C   UNL     1       2.105   6.766  19.930  0.00  0.00    +0.000 C 
BRANCH  13  14
ATOM     14  N   UNL     1       2.666   5.454  20.187  0.00  0.00    +0.000 N 
ATOM     15  C   UNL     1       2.229   4.345  19.496  0.00  0.00    +0.000 C 
ATOM     16  O   UNL     1       1.329   4.426  18.663  0.00  0.00    +0.000 OA
ATOM     17  H   UNL     1       3.549   5.419  20.682  0.00  0.00    +0.000 HD
BRANCH  15  18
ATOM     18  C   UNL     1       2.951   3.025  19.836  0.00  0.00    +0.000 C 
ATOM     19  C   UNL     1       2.429   1.891  18.940  0.00  0.00    +0.000 C 
ATOM     20  C   UNL     1       4.463   3.184  19.592  0.00  0.00    +0.000 C 
ATOM     21  C   UNL     1       2.729   2.669  21.314  0.00  0.00    +0.000 C 
ENDBRANCH  15  18
ENDBRANCH  13  14
ENDBRANCH   2  13
TORSDOF 6
ENDMDL
MODEL 6
REMARK VINA RESULT:      -6.3      2.885      5.711
REMARK  Name = 
REMARK  10 active torsions:
REMARK  status: ('A' for Active; 'I' for Inactive)
REMARK    1  A    between atoms: C_1  and  C_2
REMARK    2  A    between atoms: C_2  and  C_3
REMARK    3  A    between atoms: C_7  and  C_8
REMARK    4  A    between atoms: C_8  and  N_9
REMARK    5  A    between atoms: C_10  and  C_12
REMARK    6  A    between atoms: C_12  and  N_13
REMARK    7  A    between atoms: C_14  and  C_16
REMARK    8  A    between atoms: C_16  and  C_17
REMARK    9  A    between atoms: C_16  and  C_18
REMARK   10  A    between atoms: C_16  and  C_19
REMARK                            x       y       z     vdW  Elec       q    Type
REMARK                         _______ _______ _______ _____ _____    ______ ____
ROOT
ATOM      1  N   UNL     1       3.991   6.725  18.047  0.00  0.00    +0.000 N 
ATOM      2  C   UNL     1       2.793   7.278  18.435  0.00  0.00    +0.000 C 
ATOM      3  O   UNL     1       2.199   8.143  17.799  0.00  0.00    +0.000 OA
ATOM      4  H   UNL     1       4.510   6.175  18.725  0.00  0.00    +0.000 HD
ENDROOT
BRANCH   1   5
ATOM      5  C   UNL     1       4.652   7.069  16.812  0.00  0.00    +0.000 C 
BRANCH   5  10
ATOM      6  C   UNL     1       6.891   5.721  16.984  0.00  0.00    +0.000 A 
ATOM      7  C   UNL     1       7.462   4.548  16.380  0.00  0.00    +0.000 A 
ATOM      8  C   UNL     1       6.647   3.981  15.430  0.00  0.00    +0.000 A 
ATOM      9  S   UNL     1       5.191   4.845  15.246  0.00  0.00    +0.000 S 
ATOM     10  C   UNL     1       5.631   5.988  16.454  0.00  0.00    +0.000 A 
BRANCH   6  12
ATOM     11  C   UNL     1       7.631   5.762  19.402  0.00  0.00    +0.000 C 
ATOM     12  C   UNL     1       7.582   6.501  18.073  0.00  0.00    +0.000 C 
ENDBRANCH   6  12
ENDBRANCH   5  10
ENDBRANCH   1   5
BRANCH   2  13
ATOM     13  C   UNL     1       2.308   6.806  19.807  0.00  0.00    +0.000 C 
BRANCH  13  14
ATOM     14  N   UNL     1       2.818   5.477  20.085  0.00  0.00    +0.000 N 
ATOM     15  C   UNL     1       2.125   4.353  19.691  0.00  0.00    +0.000 C 
ATOM     16  O   UNL     1       1.039   4.439  19.121  0.00  0.00    +0.000 OA
ATOM     17  H   UNL     1       3.797   5.401  20.330  0.00  0.00    +0.000 HD
BRANCH  15  18
ATOM     18  C   UNL     1       2.810   3.007  20.007  0.00  0.00    +0.000 C 
ATOM     19  C   UNL     1       4.316   3.100  19.715  0.00  0.00    +0.000 C 
ATOM     20  C   UNL     1       2.620   2.666  21.496  0.00  0.00    +0.000 C 
ATOM     21  C   UNL     1       2.182   1.886  19.165  0.00  0.00    +0.000 C 
ENDBRANCH  15  18
ENDBRANCH  13  14
ENDBRANCH   2  13
TORSDOF 6
ENDMDL
MODEL 7
REMARK VINA RESULT:      -6.2      2.637      3.961
REMARK  Name = 
REMARK  10 active torsions:
REMARK  status: ('A' for Active; 'I' for Inactive)
REMARK    1  A    between atoms: C_1  and  C_2
REMARK    2  A    between atoms: C_2  and  C_3
REMARK    3  A    between atoms: C_7  and  C_8
REMARK    4  A    between atoms: C_8  and  N_9
REMARK    5  A    between atoms: C_10  and  C_12
REMARK    6  A    between atoms: C_12  and  N_13
REMARK    7  A    between atoms: C_14  and  C_16
REMARK    8  A    between atoms: C_16  and  C_17
REMARK    9  A    between atoms: C_16  and  C_18
REMARK   10  A    between atoms: C_16  and  C_19
REMARK                            x       y       z     vdW  Elec       q    Type
REMARK                         _______ _______ _______ _____ _____    ______ ____
ROOT
ATOM      1  N   UNL     1       3.253   5.029  19.578  0.00  0.00    +0.000 N 
ATOM      2  C   UNL     1       2.796   3.867  19.003  0.00  0.00    +0.000 C 
ATOM      3  O   UNL     1       1.679   3.398  19.198  0.00  0.00    +0.000 OA
ATOM      4  H   UNL     1       4.247   5.232  19.528  0.00  0.00    +0.000 HD
ENDROOT
BRANCH   1   5
ATOM      5  C   UNL     1       2.440   5.854  20.437  0.00  0.00    +0.000 C 
BRANCH   5  10
ATOM      6  C   UNL     1       1.511   8.293  20.223  0.00  0.00    +0.000 A 
ATOM      7  C   UNL     1       1.443   9.308  19.206  0.00  0.00    +0.000 A 
ATOM      8  C   UNL     1       1.971   8.902  18.005  0.00  0.00    +0.000 A 
ATOM      9  S   UNL     1       2.553   7.303  18.075  0.00  0.00    +0.000 S 
ATOM     10  C   UNL     1       2.114   7.138  19.731  0.00  0.00    +0.000 A 
BRANCH   6  12
ATOM     11  C   UNL     1      -0.492   8.615  21.733  0.00  0.00    +0.000 C 
ATOM     12  C   UNL     1       1.023   8.510  21.632  0.00  0.00    +0.000 C 
ENDBRANCH   6  12
ENDBRANCH   5  10
ENDBRANCH   1   5
BRANCH   2  13
ATOM     13  C   UNL     1       3.850   3.128  18.176  0.00  0.00    +0.000 C 
BRANCH  13  14
ATOM     14  N   UNL     1       4.508   4.050  17.270  0.00  0.00    +0.000 N 
ATOM     15  C   UNL     1       5.730   4.604  17.583  0.00  0.00    +0.000 C 
ATOM     16  O   UNL     1       6.286   4.361  18.652  0.00  0.00    +0.000 OA
ATOM     17  H   UNL     1       4.183   4.065  16.312  0.00  0.00    +0.000 HD
BRANCH  15  18
ATOM     18  C   UNL     1       6.336   5.525  16.505  0.00  0.00    +0.000 C 
ATOM     19  C   UNL     1       5.221   6.295  15.780  0.00  0.00    +0.000 C 
ATOM     20  C   UNL     1       7.283   6.543  17.166  0.00  0.00    +0.000 C 
ATOM     21  C   UNL     1       7.141   4.694  15.494  0.00  0.00    +0.000 C 
ENDBRANCH  15  18
ENDBRANCH  13  14
ENDBRANCH   2  13
TORSDOF 6
ENDMDL
MODEL 8
REMARK VINA RESULT:      -6.2      2.542      4.016
REMARK  Name = 
REMARK  10 active torsions:
REMARK  status: ('A' for Active; 'I' for Inactive)
REMARK    1  A    between atoms: C_1  and  C_2
REMARK    2  A    between atoms: C_2  and  C_3
REMARK    3  A    between atoms: C_7  and  C_8
REMARK    4  A    between atoms: C_8  and  N_9
REMARK    5  A    between atoms: C_10  and  C_12
REMARK    6  A    between atoms: C_12  and  N_13
REMARK    7  A    between atoms: C_14  and  C_16
REMARK    8  A    between atoms: C_16  and  C_17
REMARK    9  A    between atoms: C_16  and  C_18
REMARK   10  A    between atoms: C_16  and  C_19
REMARK                            x       y       z     vdW  Elec       q    Type
REMARK                         _______ _______ _______ _____ _____    ______ ____
ROOT
ATOM      1  N   UNL     1       3.262   5.239  19.706  0.00  0.00    +0.000 N 
ATOM      2  C   UNL     1       3.252   3.865  19.666  0.00  0.00    +0.000 C 
ATOM      3  O   UNL     1       2.472   3.165  20.306  0.00  0.00    +0.000 OA
ATOM      4  H   UNL     1       4.062   5.726  19.313  0.00  0.00    +0.000 HD
ENDROOT
BRANCH   1   5
ATOM      5  C   UNL     1       2.313   6.011  20.470  0.00  0.00    +0.000 C 
BRANCH   5  10
ATOM      6  C   UNL     1       1.470   8.479  20.239  0.00  0.00    +0.000 A 
ATOM      7  C   UNL     1       1.429   9.485  19.213  0.00  0.00    +0.000 A 
ATOM      8  C   UNL     1       1.931   9.049  18.011  0.00  0.00    +0.000 A 
ATOM      9  S   UNL     1       2.456   7.431  18.092  0.00  0.00    +0.000 S 
ATOM     10  C   UNL     1       2.026   7.299  19.754  0.00  0.00    +0.000 A 
BRANCH   6  12
ATOM     11  C   UNL     1      -0.501   8.561  21.822  0.00  0.00    +0.000 C 
ATOM     12  C   UNL     1       1.002   8.728  21.650  0.00  0.00    +0.000 C 
ENDBRANCH   6  12
ENDBRANCH   5  10
ENDBRANCH   1   5
BRANCH   2  13
ATOM     13  C   UNL     1       4.385   3.260  18.836  0.00  0.00    +0.000 C 
BRANCH  13  14
ATOM     14  N   UNL     1       4.822   4.205  17.826  0.00  0.00    +0.000 N 
ATOM     15  C   UNL     1       6.113   4.685  17.813  0.00  0.00    +0.000 C 
ATOM     16  O   UNL     1       6.926   4.354  18.673  0.00  0.00    +0.000 OA
ATOM     17  H   UNL     1       4.247   4.292  16.997  0.00  0.00    +0.000 HD
BRANCH  15  18
ATOM     18  C   UNL     1       6.452   5.643  16.652  0.00  0.00    +0.000 C 
ATOM     19  C   UNL     1       7.170   4.879  15.529  0.00  0.00    +0.000 C 
ATOM     20  C   UNL     1       5.154   6.245  16.082  0.00  0.00    +0.000 C 
ATOM     21  C   UNL     1       7.342   6.789  17.157  0.00  0.00    +0.000 C 
ENDBRANCH  15  18
ENDBRANCH  13  14
ENDBRANCH   2  13
TORSDOF 6
ENDMDL
MODEL 9
REMARK VINA RESULT:      -6.2      2.885      5.932
REMARK  Name = 
REMARK  10 active torsions:
REMARK  status: ('A' for Active; 'I' for Inactive)
REMARK    1  A    between atoms: C_1  and  C_2
REMARK    2  A    between atoms: C_2  and  C_3
REMARK    3  A    between atoms: C_7  and  C_8
REMARK    4  A    between atoms: C_8  and  N_9
REMARK    5  A    between atoms: C_10  and  C_12
REMARK    6  A    between atoms: C_12  and  N_13
REMARK    7  A    between atoms: C_14  and  C_16
REMARK    8  A    between atoms: C_16  and  C_17
REMARK    9  A    between atoms: C_16  and  C_18
REMARK   10  A    between atoms: C_16  and  C_19
REMARK                            x       y       z     vdW  Elec       q    Type
REMARK                         _______ _______ _______ _____ _____    ______ ____
ROOT
ATOM      1  N   UNL     1       3.886   6.706  17.723  0.00  0.00    +0.000 N 
ATOM      2  C   UNL     1       2.829   7.453  18.187  0.00  0.00    +0.000 C 
ATOM      3  O   UNL     1       2.477   8.522  17.698  0.00  0.00    +0.000 OA
ATOM      4  H   UNL     1       4.234   5.950  18.305  0.00  0.00    +0.000 HD
ENDROOT
BRANCH   1   5
ATOM      5  C   UNL     1       4.665   7.079  16.568  0.00  0.00    +0.000 C 
BRANCH   5  10
ATOM      6  C   UNL     1       6.919   5.783  16.882  0.00  0.00    +0.000 A 
ATOM      7  C   UNL     1       7.540   4.606  16.338  0.00  0.00    +0.000 A 
ATOM      8  C   UNL     1       6.783   3.997  15.367  0.00  0.00    +0.000 A 
ATOM      9  S   UNL     1       5.321   4.825  15.090  0.00  0.00    +0.000 S 
ATOM     10  C   UNL     1       5.681   6.009  16.286  0.00  0.00    +0.000 A 
BRANCH   6  12
ATOM     11  C   UNL     1       7.797   5.812  19.254  0.00  0.00    +0.000 C 
ATOM     12  C   UNL     1       7.542   6.605  17.980  0.00  0.00    +0.000 C 
ENDBRANCH   6  12
ENDBRANCH   5  10
ENDBRANCH   1   5
BRANCH   2  13
ATOM     13  C   UNL     1       2.186   6.894  19.458  0.00  0.00    +0.000 C 
BRANCH  13  14
ATOM     14  N   UNL     1       2.061   5.453  19.361  0.00  0.00    +0.000 N 
ATOM     15  C   UNL     1       2.133   4.656  20.482  0.00  0.00    +0.000 C 
ATOM     16  O   UNL     1       2.336   5.136  21.595  0.00  0.00    +0.000 OA
ATOM     17  H   UNL     1       1.662   5.082  18.507  0.00  0.00    +0.000 HD
BRANCH  15  18
ATOM     18  C   UNL     1       1.931   3.146  20.236  0.00  0.00    +0.000 C 
ATOM     19  C   UNL     1       0.817   2.923  19.201  0.00  0.00    +0.000 C 
ATOM     20  C   UNL     1       3.234   2.532  19.693  0.00  0.00    +0.000 C 
ATOM     21  C   UNL     1       1.570   2.441  21.553  0.00  0.00    +0.000 C 
ENDBRANCH  15  18
ENDBRANCH  13  14
ENDBRANCH   2  13
TORSDOF 6
ENDMDL
