MODEL 1
REMARK VINA RESULT:      -8.6      0.000      0.000
REMARK  Name = 
REMARK  6 active torsions:
REMARK  status: ('A' for Active; 'I' for Inactive)
REMARK    1  A    between atoms: C_1  and  O_2
REMARK    2  A    between atoms: O_2  and  C_3
REMARK    3  A    between atoms: N_11  and  S_12
REMARK    4  A    between atoms: S_12  and  C_15
REMARK    5  A    between atoms: C_17  and  N_18
REMARK    6  A    between atoms: C_19  and  C_20
REMARK                            x       y       z     vdW  Elec       q    Type
REMARK                         _______ _______ _______ _____ _____    ______ ____
ROOT
ATOM      1  S   UNL     1       3.168   3.720  18.178  0.00  0.00    +0.000 S 
ATOM      2  O   UNL     1       3.411   2.783  19.256  0.00  0.00    +0.000 OA
ATOM      3  O   UNL     1       2.190   3.405  17.162  0.00  0.00    +0.000 OA
ENDROOT
BRANCH   1  12
ATOM      4  C   UNL     1       1.036   9.820  19.463  0.00  0.00    +0.000 A 
ATOM      5  C   UNL     1       1.573   9.920  18.202  0.00  0.00    +0.000 A 
ATOM      6  C   UNL     1       2.272   8.821  17.778  0.00  0.00    +0.000 A 
ATOM      7  N   UNL     1       2.406   7.707  18.519  0.00  0.00    +0.000 NA
ATOM      8  C   UNL     1       1.870   7.726  19.753  0.00  0.00    +0.000 A 
ATOM      9  N   UNL     1       1.986   6.612  20.562  0.00  0.00    +0.000 N 
ATOM     10  C   UNL     1       2.418   5.369  20.213  0.00  0.00    +0.000 C 
ATOM     11  O   UNL     1       2.468   4.483  21.057  0.00  0.00    +0.000 OA
ATOM     12  N   UNL     1       2.700   5.138  18.875  0.00  0.00    +0.000 N 
ATOM     13  N   UNL     1       1.193   8.753  20.271  0.00  0.00    +0.000 NA
ATOM     14  H   UNL     1       1.667   6.725  21.510  0.00  0.00    +0.000 HD
ATOM     15  H   UNL     1       2.564   5.903  18.214  0.00  0.00    +0.000 HD
BRANCH   4  17
ATOM     16  C   UNL     1      -0.744  11.261  18.969  0.00  0.00    +0.000 C 
ATOM     17  O   UNL     1       0.285  10.900  19.884  0.00  0.00    +0.000 OA
ENDBRANCH   4  17
ENDBRANCH   1  12
BRANCH   1  18
ATOM     18  C   UNL     1       4.727   4.061  17.413  0.00  0.00    +0.000 A 
ATOM     19  C   UNL     1       4.868   3.711  16.059  0.00  0.00    +0.000 A 
ATOM     20  C   UNL     1       6.057   3.947  15.370  0.00  0.00    +0.000 A 
ATOM     21  C   UNL     1       7.109   4.569  16.052  0.00  0.00    +0.000 A 
ATOM     22  C   UNL     1       6.978   4.905  17.407  0.00  0.00    +0.000 A 
ATOM     23  C   UNL     1       5.789   4.643  18.100  0.00  0.00    +0.000 A 
ATOM     24 CL   UNL     1       5.738   5.089  19.765  0.00  0.00    +0.000 Cl
BRANCH  20  25
ATOM     25  N   UNL     1       6.259   3.580  14.019  0.00  0.00    +0.000 N 
ATOM     26  C   UNL     1       6.958   4.301  13.064  0.00  0.00    +0.000 C 
ATOM     27  C   UNL     1       6.968   3.662  11.700  0.00  0.00    +0.000 C 
ATOM     28  O   UNL     1       7.545   5.365  13.232  0.00  0.00    +0.000 OA
ATOM     29  H   UNL     1       5.815   2.723  13.716  0.00  0.00    +0.000 HD
ENDBRANCH  20  25
ENDBRANCH   1  18
TORSDOF 4
ENDMDL
MODEL 2
REMARK VINA RESULT:      -8.6      1.935      7.155
REMARK  Name = 
REMARK  6 active torsions:
REMARK  status: ('A' for Active; 'I' for Inactive)
REMARK    1  A    between atoms: C_1  and  O_2
REMARK    2  A    between atoms: O_2  and  C_3
REMARK    3  A    between atoms: N_11  and  S_12
REMARK    4  A    between atoms: S_12  and  C_15
REMARK    5  A    between atoms: C_17  and  N_18
REMARK    6  A    between atoms: C_19  and  C_20
REMARK                            x       y       z     vdW  Elec       q    Type
REMARK                         _______ _______ _______ _____ _____    ______ ____
ROOT
ATOM      1  S   UNL     1       4.078   2.968  18.939  0.00  0.00    +0.000 S 
ATOM      2  O   UNL     1       3.195   2.151  18.132  0.00  0.00    +0.000 OA
ATOM      3  O   UNL     1       4.801   2.371  20.039  0.00  0.00    +0.000 OA
ENDROOT
BRANCH   1  12
ATOM      4  C   UNL     1       7.473   5.194  13.750  0.00  0.00    +0.000 A 
ATOM      5  C   UNL     1       6.671   4.211  13.219  0.00  0.00    +0.000 A 
ATOM      6  C   UNL     1       6.003   3.446  14.138  0.00  0.00    +0.000 A 
ATOM      7  N   UNL     1       6.092   3.649  15.464  0.00  0.00    +0.000 NA
ATOM      8  C   UNL     1       6.931   4.615  15.880  0.00  0.00    +0.000 A 
ATOM      9  N   UNL     1       7.069   4.861  17.232  0.00  0.00    +0.000 N 
ATOM     10  C   UNL     1       6.307   4.376  18.251  0.00  0.00    +0.000 C 
ATOM     11  O   UNL     1       6.566   4.687  19.406  0.00  0.00    +0.000 OA
ATOM     12  N   UNL     1       5.199   3.612  17.917  0.00  0.00    +0.000 N 
ATOM     13  N   UNL     1       7.647   5.399  15.070  0.00  0.00    +0.000 NA
ATOM     14  H   UNL     1       7.792   5.513  17.486  0.00  0.00    +0.000 HD
ATOM     15  H   UNL     1       5.000   3.456  16.928  0.00  0.00    +0.000 HD
BRANCH   4  17
ATOM     16  C   UNL     1       7.696   5.781  11.493  0.00  0.00    +0.000 C 
ATOM     17  O   UNL     1       8.112   6.007  12.835  0.00  0.00    +0.000 OA
ENDBRANCH   4  17
ENDBRANCH   1  12
BRANCH   1  18
ATOM     18  C   UNL     1       3.132   4.343  19.530  0.00  0.00    +0.000 A 
ATOM     19  C   UNL     1       3.189   5.531  18.783  0.00  0.00    +0.000 A 
ATOM     20  C   UNL     1       2.472   6.663  19.167  0.00  0.00    +0.000 A 
ATOM     21  C   UNL     1       1.666   6.585  20.307  0.00  0.00    +0.000 A 
ATOM     22  C   UNL     1       1.619   5.407  21.065  0.00  0.00    +0.000 A 
ATOM     23  C   UNL     1       2.360   4.280  20.687  0.00  0.00    +0.000 A 
ATOM     24 CL   UNL     1       2.236   2.886  21.695  0.00  0.00    +0.000 Cl
BRANCH  20  25
ATOM     25  N   UNL     1       2.526   7.893  18.467  0.00  0.00    +0.000 N 
ATOM     26  C   UNL     1       1.807   9.039  18.760  0.00  0.00    +0.000 C 
ATOM     27  C   UNL     1       2.058  10.179  17.807  0.00  0.00    +0.000 C 
ATOM     28  O   UNL     1       1.022   9.197  19.689  0.00  0.00    +0.000 OA
ATOM     29  H   UNL     1       3.124   7.918  17.652  0.00  0.00    +0.000 HD
ENDBRANCH  20  25
ENDBRANCH   1  18
TORSDOF 4
ENDMDL
MODEL 3
REMARK VINA RESULT:      -8.3      1.029      1.029
REMARK  Name = 
REMARK  6 active torsions:
REMARK  status: ('A' for Active; 'I' for Inactive)
REMARK    1  A    between atoms: C_1  and  O_2
REMARK    2  A    between atoms: O_2  and  C_3
REMARK    3  A    between atoms: N_11  and  S_12
REMARK    4  A    between atoms: S_12  and  C_15
REMARK    5  A    between atoms: C_17  and  N_18
REMARK    6  A    between atoms: C_19  and  C_20
REMARK                            x       y       z     vdW  Elec       q    Type
REMARK                         _______ _______ _______ _____ _____    ______ ____
ROOT
ATOM      1  S   UNL     1       3.756   3.551  18.197  0.00  0.00    +0.000 S 
ATOM      2  O   UNL     1       4.287   2.769  19.296  0.00  0.00    +0.000 OA
ATOM      3  O   UNL     1       2.732   2.987  17.347  0.00  0.00    +0.000 OA
ENDROOT
BRANCH   1  12
ATOM      4  C   UNL     1       1.147   9.501  19.284  0.00  0.00    +0.000 A 
ATOM      5  C   UNL     1       1.802   9.646  18.084  0.00  0.00    +0.000 A 
ATOM      6  C   UNL     1       2.604   8.594  17.729  0.00  0.00    +0.000 A 
ATOM      7  N   UNL     1       2.729   7.483  18.475  0.00  0.00    +0.000 NA
ATOM      8  C   UNL     1       2.070   7.457  19.648  0.00  0.00    +0.000 A 
ATOM      9  N   UNL     1       2.169   6.344  20.460  0.00  0.00    +0.000 N 
ATOM     10  C   UNL     1       2.707   5.131  20.152  0.00  0.00    +0.000 C 
ATOM     11  O   UNL     1       2.724   4.242  20.993  0.00  0.00    +0.000 OA
ATOM     12  N   UNL     1       3.137   4.931  18.849  0.00  0.00    +0.000 N 
ATOM     13  N   UNL     1       1.284   8.438  20.099  0.00  0.00    +0.000 NA
ATOM     14  H   UNL     1       1.750   6.428  21.371  0.00  0.00    +0.000 HD
ATOM     15  H   UNL     1       3.023   5.693  18.181  0.00  0.00    +0.000 HD
BRANCH   4  17
ATOM     16  C   UNL     1       0.295  10.818  21.025  0.00  0.00    +0.000 C 
ATOM     17  O   UNL     1       0.294  10.531  19.631  0.00  0.00    +0.000 OA
ENDBRANCH   4  17
ENDBRANCH   1  12
BRANCH   1  18
ATOM     18  C   UNL     1       5.129   4.069  17.207  0.00  0.00    +0.000 A 
ATOM     19  C   UNL     1       5.250   3.498  15.929  0.00  0.00    +0.000 A 
ATOM     20  C   UNL     1       6.295   3.850  15.075  0.00  0.00    +0.000 A 
ATOM     21  C   UNL     1       7.214   4.810  15.508  0.00  0.00    +0.000 A 
ATOM     22  C   UNL     1       7.106   5.371  16.789  0.00  0.00    +0.000 A 
ATOM     23  C   UNL     1       6.067   4.996  17.651  0.00  0.00    +0.000 A 
ATOM     24 CL   UNL     1       6.033   5.740  19.207  0.00  0.00    +0.000 Cl
BRANCH  20  25
ATOM     25  N   UNL     1       6.479   3.276  13.794  0.00  0.00    +0.000 N 
ATOM     26  C   UNL     1       5.619   3.377  12.714  0.00  0.00    +0.000 C 
ATOM     27  C   UNL     1       6.078   2.625  11.492  0.00  0.00    +0.000 C 
ATOM     28  O   UNL     1       4.564   4.003  12.671  0.00  0.00    +0.000 OA
ATOM     29  H   UNL     1       7.306   2.705  13.674  0.00  0.00    +0.000 HD
ENDBRANCH  20  25
ENDBRANCH   1  18
TORSDOF 4
ENDMDL
MODEL 4
REMARK VINA RESULT:      -8.1      2.063      6.949
REMARK  Name = 
REMARK  6 active torsions:
REMARK  status: ('A' for Active; 'I' for Inactive)
REMARK    1  A    between atoms: C_1  and  O_2
REMARK    2  A    between atoms: O_2  and  C_3
REMARK    3  A    between atoms: N_11  and  S_12
REMARK    4  A    between atoms: S_12  and  C_15
REMARK    5  A    between atoms: C_17  and  N_18
REMARK    6  A    between atoms: C_19  and  C_20
REMARK                            x       y       z     vdW  Elec       q    Type
REMARK                         _______ _______ _______ _____ _____    ______ ____
ROOT
ATOM      1  S   UNL     1       3.227   2.781  17.953  0.00  0.00    +0.000 S 
ATOM      2  O   UNL     1       2.203   2.685  16.932  0.00  0.00    +0.000 OA
ATOM      3  O   UNL     1       3.633   1.596  18.673  0.00  0.00    +0.000 OA
ENDROOT
BRANCH   1  12
ATOM      4  C   UNL     1       7.690   5.185  13.746  0.00  0.00    +0.000 A 
ATOM      5  C   UNL     1       6.873   4.416  12.952  0.00  0.00    +0.000 A 
ATOM      6  C   UNL     1       5.971   3.637  13.627  0.00  0.00    +0.000 A 
ATOM      7  N   UNL     1       5.862   3.636  14.967  0.00  0.00    +0.000 NA
ATOM      8  C   UNL     1       6.732   4.401  15.651  0.00  0.00    +0.000 A 
ATOM      9  N   UNL     1       6.672   4.432  17.031  0.00  0.00    +0.000 N 
ATOM     10  C   UNL     1       5.695   3.928  17.835  0.00  0.00    +0.000 C 
ATOM     11  O   UNL     1       5.794   4.032  19.051  0.00  0.00    +0.000 OA
ATOM     12  N   UNL     1       4.573   3.389  17.224  0.00  0.00    +0.000 N 
ATOM     13  N   UNL     1       7.665   5.176  15.092  0.00  0.00    +0.000 NA
ATOM     14  H   UNL     1       7.416   4.928  17.490  0.00  0.00    +0.000 HD
ATOM     15  H   UNL     1       4.525   3.404  16.205  0.00  0.00    +0.000 HD
BRANCH   4  17
ATOM     16  C   UNL     1       8.174   6.293  11.739  0.00  0.00    +0.000 C 
ATOM     17  O   UNL     1       8.569   6.015  13.078  0.00  0.00    +0.000 OA
ENDBRANCH   4  17
ENDBRANCH   1  12
BRANCH   1  18
ATOM     18  C   UNL     1       2.710   4.024  19.103  0.00  0.00    +0.000 A 
ATOM     19  C   UNL     1       2.448   5.305  18.590  0.00  0.00    +0.000 A 
ATOM     20  C   UNL     1       2.029   6.345  19.419  0.00  0.00    +0.000 A 
ATOM     21  C   UNL     1       1.848   6.080  20.780  0.00  0.00    +0.000 A 
ATOM     22  C   UNL     1       2.124   4.807  21.299  0.00  0.00    +0.000 A 
ATOM     23  C   UNL     1       2.567   3.773  20.466  0.00  0.00    +0.000 A 
ATOM     24 CL   UNL     1       2.885   2.249  21.209  0.00  0.00    +0.000 Cl
BRANCH  20  25
ATOM     25  N   UNL     1       1.788   7.660  18.954  0.00  0.00    +0.000 N 
ATOM     26  C   UNL     1       2.541   8.357  18.024  0.00  0.00    +0.000 C 
ATOM     27  C   UNL     1       2.048   9.756  17.760  0.00  0.00    +0.000 C 
ATOM     28  O   UNL     1       3.528   7.946  17.421  0.00  0.00    +0.000 OA
ATOM     29  H   UNL     1       1.009   8.148  19.375  0.00  0.00    +0.000 HD
ENDBRANCH  20  25
ENDBRANCH   1  18
TORSDOF 4
ENDMDL
MODEL 5
REMARK VINA RESULT:      -8.1      4.912      7.253
REMARK  Name = 
REMARK  6 active torsions:
REMARK  status: ('A' for Active; 'I' for Inactive)
REMARK    1  A    between atoms: C_1  and  O_2
REMARK    2  A    between atoms: O_2  and  C_3
REMARK    3  A    between atoms: N_11  and  S_12
REMARK    4  A    between atoms: S_12  and  C_15
REMARK    5  A    between atoms: C_17  and  N_18
REMARK    6  A    between atoms: C_19  and  C_20
REMARK                            x       y       z     vdW  Elec       q    Type
REMARK                         _______ _______ _______ _____ _____    ______ ____
ROOT
ATOM      1  S   UNL     1       0.625  10.069  21.412  0.00  0.00    +0.000 S 
ATOM      2  O   UNL     1       1.614  11.117  21.575  0.00  0.00    +0.000 OA
ATOM      3  O   UNL     1       0.041   9.448  22.579  0.00  0.00    +0.000 OA
ENDROOT
BRANCH   1  12
ATOM      4  C   UNL     1      -4.294  11.232  17.188  0.00  0.00    +0.000 A 
ATOM      5  C   UNL     1      -3.512  10.309  16.534  0.00  0.00    +0.000 A 
ATOM      6  C   UNL     1      -2.304  10.048  17.123  0.00  0.00    +0.000 A 
ATOM      7  N   UNL     1      -1.909  10.623  18.272  0.00  0.00    +0.000 NA
ATOM      8  C   UNL     1      -2.735  11.537  18.813  0.00  0.00    +0.000 A 
ATOM      9  N   UNL     1      -2.377  12.167  19.989  0.00  0.00    +0.000 N 
ATOM     10  C   UNL     1      -1.351  11.850  20.826  0.00  0.00    +0.000 C 
ATOM     11  O   UNL     1      -1.160  12.517  21.835  0.00  0.00    +0.000 OA
ATOM     12  N   UNL     1      -0.612  10.713  20.536  0.00  0.00    +0.000 N 
ATOM     13  N   UNL     1      -3.921  11.883  18.306  0.00  0.00    +0.000 NA
ATOM     14  H   UNL     1      -2.977  12.920  20.283  0.00  0.00    +0.000 HD
ATOM     15  H   UNL     1      -0.875  10.162  19.719  0.00  0.00    +0.000 HD
BRANCH   4  17
ATOM     16  C   UNL     1      -6.163  12.643  17.134  0.00  0.00    +0.000 C 
ATOM     17  O   UNL     1      -5.537  11.467  16.633  0.00  0.00    +0.000 OA
ENDBRANCH   4  17
ENDBRANCH   1  12
BRANCH   1  18
ATOM     18  C   UNL     1       1.342   8.825  20.376  0.00  0.00    +0.000 A 
ATOM     19  C   UNL     1       1.592   7.571  20.958  0.00  0.00    +0.000 A 
ATOM     20  C   UNL     1       2.148   6.527  20.219  0.00  0.00    +0.000 A 
ATOM     21  C   UNL     1       2.430   6.747  18.867  0.00  0.00    +0.000 A 
ATOM     22  C   UNL     1       2.196   8.001  18.286  0.00  0.00    +0.000 A 
ATOM     23  C   UNL     1       1.660   9.053  19.040  0.00  0.00    +0.000 A 
ATOM     24 CL   UNL     1       1.421  10.557  18.229  0.00  0.00    +0.000 Cl
BRANCH  20  25
ATOM     25  N   UNL     1       2.452   5.260  20.769  0.00  0.00    +0.000 N 
ATOM     26  C   UNL     1       1.644   4.135  20.744  0.00  0.00    +0.000 C 
ATOM     27  C   UNL     1       2.235   2.941  21.447  0.00  0.00    +0.000 C 
ATOM     28  O   UNL     1       0.541   4.035  20.216  0.00  0.00    +0.000 OA
ATOM     29  H   UNL     1       3.332   5.184  21.262  0.00  0.00    +0.000 HD
ENDBRANCH  20  25
ENDBRANCH   1  18
TORSDOF 4
ENDMDL
MODEL 6
REMARK VINA RESULT:      -8.0      2.248      2.903
REMARK  Name = 
REMARK  6 active torsions:
REMARK  status: ('A' for Active; 'I' for Inactive)
REMARK    1  A    between atoms: C_1  and  O_2
REMARK    2  A    between atoms: O_2  and  C_3
REMARK    3  A    between atoms: N_11  and  S_12
REMARK    4  A    between atoms: S_12  and  C_15
REMARK    5  A    between atoms: C_17  and  N_18
REMARK    6  A    between atoms: C_19  and  C_20
REMARK                            x       y       z     vdW  Elec       q    Type
REMARK                         _______ _______ _______ _____ _____    ______ ____
ROOT
ATOM      1  S   UNL     1       2.522   4.385  18.355  0.00  0.00    +0.000 S 
ATOM      2  O   UNL     1       2.710   3.409  19.409  0.00  0.00    +0.000 OA
ATOM      3  O   UNL     1       1.500   4.172  17.356  0.00  0.00    +0.000 OA
ENDROOT
BRANCH   1  12
ATOM      4  C   UNL     1       0.831  10.582  19.813  0.00  0.00    +0.000 A 
ATOM      5  C   UNL     1       1.265  10.660  18.511  0.00  0.00    +0.000 A 
ATOM      6  C   UNL     1       1.867   9.527  18.030  0.00  0.00    +0.000 A 
ATOM      7  N   UNL     1       2.004   8.405  18.757  0.00  0.00    +0.000 NA
ATOM      8  C   UNL     1       1.575   8.446  20.032  0.00  0.00    +0.000 A 
ATOM      9  N   UNL     1       1.699   7.324  20.829  0.00  0.00    +0.000 N 
ATOM     10  C   UNL     1       2.033   6.062  20.445  0.00  0.00    +0.000 C 
ATOM     11  O   UNL     1       2.108   5.171  21.282  0.00  0.00    +0.000 OA
ATOM     12  N   UNL     1       2.191   5.822  19.088  0.00  0.00    +0.000 N 
ATOM     13  N   UNL     1       0.998   9.506  20.605  0.00  0.00    +0.000 NA
ATOM     14  H   UNL     1       1.467   7.450  21.800  0.00  0.00    +0.000 HD
ATOM     15  H   UNL     1       2.040   6.596  18.441  0.00  0.00    +0.000 HD
BRANCH   4  17
ATOM     16  C   UNL     1      -1.228  11.674  20.058  0.00  0.00    +0.000 C 
ATOM     17  O   UNL     1       0.176  11.698  20.295  0.00  0.00    +0.000 OA
ENDBRANCH   4  17
ENDBRANCH   1  12
BRANCH   1  18
ATOM     18  C   UNL     1       4.089   4.610  17.560  0.00  0.00    +0.000 A 
ATOM     19  C   UNL     1       4.681   5.879  17.656  0.00  0.00    +0.000 A 
ATOM     20  C   UNL     1       5.917   6.149  17.068  0.00  0.00    +0.000 A 
ATOM     21  C   UNL     1       6.573   5.113  16.396  0.00  0.00    +0.000 A 
ATOM     22  C   UNL     1       5.978   3.848  16.283  0.00  0.00    +0.000 A 
ATOM     23  C   UNL     1       4.726   3.591  16.856  0.00  0.00    +0.000 A 
ATOM     24 CL   UNL     1       4.081   2.004  16.650  0.00  0.00    +0.000 Cl
BRANCH  20  25
ATOM     25  N   UNL     1       6.536   7.420  17.108  0.00  0.00    +0.000 N 
ATOM     26  C   UNL     1       7.628   7.782  17.879  0.00  0.00    +0.000 C 
ATOM     27  C   UNL     1       8.037   9.224  17.725  0.00  0.00    +0.000 C 
ATOM     28  O   UNL     1       8.264   7.057  18.639  0.00  0.00    +0.000 OA
ATOM     29  H   UNL     1       6.112   8.143  16.542  0.00  0.00    +0.000 HD
ENDBRANCH  20  25
ENDBRANCH   1  18
TORSDOF 4
ENDMDL
MODEL 7
REMARK VINA RESULT:      -7.7      4.994      7.201
REMARK  Name = 
REMARK  6 active torsions:
REMARK  status: ('A' for Active; 'I' for Inactive)
REMARK    1  A    between atoms: C_1  and  O_2
REMARK    2  A    between atoms: O_2  and  C_3
REMARK    3  A    between atoms: N_11  and  S_12
REMARK    4  A    between atoms: S_12  and  C_15
REMARK    5  A    between atoms: C_17  and  N_18
REMARK    6  A    between atoms: C_19  and  C_20
REMARK                            x       y       z     vdW  Elec       q    Type
REMARK                         _______ _______ _______ _____ _____    ______ ____
ROOT
ATOM      1  S   UNL     1       7.437   5.479  18.889  0.00  0.00    +0.000 S 
ATOM      2  O   UNL     1       8.148   4.636  17.949  0.00  0.00    +0.000 OA
ATOM      3  O   UNL     1       7.689   5.343  20.305  0.00  0.00    +0.000 OA
ENDROOT
BRANCH   1  12
ATOM      4  C   UNL     1       9.884  11.579  18.431  0.00  0.00    +0.000 A 
ATOM      5  C   UNL     1      10.094  11.240  19.747  0.00  0.00    +0.000 A 
ATOM      6  C   UNL     1       9.488  10.081  20.153  0.00  0.00    +0.000 A 
ATOM      7  N   UNL     1       8.761   9.306  19.330  0.00  0.00    +0.000 NA
ATOM      8  C   UNL     1       8.589   9.747  18.070  0.00  0.00    +0.000 A 
ATOM      9  N   UNL     1       7.843   8.995  17.182  0.00  0.00    +0.000 N 
ATOM     10  C   UNL     1       7.391   7.721  17.342  0.00  0.00    +0.000 C 
ATOM     11  O   UNL     1       6.731   7.194  16.456  0.00  0.00    +0.000 OA
ATOM     12  N   UNL     1       7.781   7.039  18.485  0.00  0.00    +0.000 N 
ATOM     13  N   UNL     1       9.114  10.873  17.581  0.00  0.00    +0.000 NA
ATOM     14  H   UNL     1       7.655   9.428  16.294  0.00  0.00    +0.000 HD
ATOM     15  H   UNL     1       8.394   7.516  19.146  0.00  0.00    +0.000 HD
BRANCH   4  17
ATOM     16  C   UNL     1      10.297  13.852  18.820  0.00  0.00    +0.000 C 
ATOM     17  O   UNL     1      10.531  12.717  17.993  0.00  0.00    +0.000 OA
ENDBRANCH   4  17
ENDBRANCH   1  12
BRANCH   1  18
ATOM     18  C   UNL     1       5.707   5.279  18.573  0.00  0.00    +0.000 A 
ATOM     19  C   UNL     1       4.815   5.873  19.482  0.00  0.00    +0.000 A 
ATOM     20  C   UNL     1       3.435   5.775  19.311  0.00  0.00    +0.000 A 
ATOM     21  C   UNL     1       2.950   5.088  18.194  0.00  0.00    +0.000 A 
ATOM     22  C   UNL     1       3.835   4.480  17.293  0.00  0.00    +0.000 A 
ATOM     23  C   UNL     1       5.221   4.562  17.483  0.00  0.00    +0.000 A 
ATOM     24 CL   UNL     1       6.219   3.770  16.320  0.00  0.00    +0.000 Cl
BRANCH  20  25
ATOM     25  N   UNL     1       2.498   6.325  20.218  0.00  0.00    +0.000 N 
ATOM     26  C   UNL     1       1.875   7.558  20.113  0.00  0.00    +0.000 C 
ATOM     27  C   UNL     1       0.950   7.876  21.259  0.00  0.00    +0.000 C 
ATOM     28  O   UNL     1       2.005   8.372  19.204  0.00  0.00    +0.000 OA
ATOM     29  H   UNL     1       2.295   5.775  21.042  0.00  0.00    +0.000 HD
ENDBRANCH  20  25
ENDBRANCH   1  18
TORSDOF 4
ENDMDL
MODEL 8
REMARK VINA RESULT:      -7.6      9.383     12.319
REMARK  Name = 
REMARK  6 active torsions:
REMARK  status: ('A' for Active; 'I' for Inactive)
REMARK    1  A    between atoms: C_1  and  O_2
REMARK    2  A    between atoms: O_2  and  C_3
REMARK    3  A    between atoms: N_11  and  S_12
REMARK    4  A    between atoms: S_12  and  C_15
REMARK    5  A    between atoms: C_17  and  N_18
REMARK    6  A    between atoms: C_19  and  C_20
REMARK                            x       y       z     vdW  Elec       q    Type
REMARK                         _______ _______ _______ _____ _____    ______ ____
ROOT
ATOM      1  S   UNL     1      -6.823  13.077  20.927  0.00  0.00    +0.000 S 
ATOM      2  O   UNL     1      -7.078  14.500  20.826  0.00  0.00    +0.000 OA
ATOM      3  O   UNL     1      -7.916  12.171  21.198  0.00  0.00    +0.000 OA
ENDROOT
BRANCH   1  12
ATOM      4  C   UNL     1      -3.087  10.494  16.155  0.00  0.00    +0.000 A 
ATOM      5  C   UNL     1      -2.213  10.655  17.204  0.00  0.00    +0.000 A 
ATOM      6  C   UNL     1      -2.703  11.368  18.265  0.00  0.00    +0.000 A 
ATOM      7  N   UNL     1      -3.954  11.857  18.304  0.00  0.00    +0.000 NA
ATOM      8  C   UNL     1      -4.717  11.673  17.211  0.00  0.00    +0.000 A 
ATOM      9  N   UNL     1      -6.009  12.162  17.193  0.00  0.00    +0.000 N 
ATOM     10  C   UNL     1      -6.727  12.663  18.236  0.00  0.00    +0.000 C 
ATOM     11  O   UNL     1      -7.869  13.065  18.052  0.00  0.00    +0.000 OA
ATOM     12  N   UNL     1      -6.152  12.609  19.497  0.00  0.00    +0.000 N 
ATOM     13  N   UNL     1      -4.329  11.015  16.116  0.00  0.00    +0.000 NA
ATOM     14  H   UNL     1      -6.490  12.094  16.311  0.00  0.00    +0.000 HD
ATOM     15  H   UNL     1      -5.226  12.191  19.587  0.00  0.00    +0.000 HD
BRANCH   4  17
ATOM     16  C   UNL     1      -3.312   9.987  13.878  0.00  0.00    +0.000 C 
ATOM     17  O   UNL     1      -2.626   9.732  15.099  0.00  0.00    +0.000 OA
ENDBRANCH   4  17
ENDBRANCH   1  12
BRANCH   1  18
ATOM     18  C   UNL     1      -5.554  12.853  22.141  0.00  0.00    +0.000 A 
ATOM     19  C   UNL     1      -4.256  12.588  21.672  0.00  0.00    +0.000 A 
ATOM     20  C   UNL     1      -3.191  12.404  22.553  0.00  0.00    +0.000 A 
ATOM     21  C   UNL     1      -3.436  12.516  23.925  0.00  0.00    +0.000 A 
ATOM     22  C   UNL     1      -4.733  12.765  24.398  0.00  0.00    +0.000 A 
ATOM     23  C   UNL     1      -5.803  12.925  23.509  0.00  0.00    +0.000 A 
ATOM     24 CL   UNL     1      -7.357  13.218  24.197  0.00  0.00    +0.000 Cl
BRANCH  20  25
ATOM     25  N   UNL     1      -1.875  12.099  22.130  0.00  0.00    +0.000 N 
ATOM     26  C   UNL     1      -1.020  12.935  21.431  0.00  0.00    +0.000 C 
ATOM     27  C   UNL     1       0.308  12.309  21.095  0.00  0.00    +0.000 C 
ATOM     28  O   UNL     1      -1.244  14.090  21.082  0.00  0.00    +0.000 OA
ATOM     29  H   UNL     1      -1.546  11.164  22.329  0.00  0.00    +0.000 HD
ENDBRANCH  20  25
ENDBRANCH   1  18
TORSDOF 4
ENDMDL
MODEL 9
REMARK VINA RESULT:      -7.6      4.134      6.462
REMARK  Name = 
REMARK  6 active torsions:
REMARK  status: ('A' for Active; 'I' for Inactive)
REMARK    1  A    between atoms: C_1  and  O_2
REMARK    2  A    between atoms: O_2  and  C_3
REMARK    3  A    between atoms: N_11  and  S_12
REMARK    4  A    between atoms: S_12  and  C_15
REMARK    5  A    between atoms: C_17  and  N_18
REMARK    6  A    between atoms: C_19  and  C_20
REMARK                            x       y       z     vdW  Elec       q    Type
REMARK                         _______ _______ _______ _____ _____    ______ ____
ROOT
ATOM      1  S   UNL     1       0.622   9.345  21.177  0.00  0.00    +0.000 S 
ATOM      2  O   UNL     1       1.519  10.304  21.790  0.00  0.00    +0.000 OA
ATOM      3  O   UNL     1      -0.072   8.384  22.004  0.00  0.00    +0.000 OA
ENDROOT
BRANCH   1  12
ATOM      4  C   UNL     1      -4.140  11.466  17.149  0.00  0.00    +0.000 A 
ATOM      5  C   UNL     1      -3.495  10.500  16.413  0.00  0.00    +0.000 A 
ATOM      6  C   UNL     1      -2.327  10.037  16.957  0.00  0.00    +0.000 A 
ATOM      7  N   UNL     1      -1.848  10.466  18.138  0.00  0.00    +0.000 NA
ATOM      8  C   UNL     1      -2.539  11.438  18.761  0.00  0.00    +0.000 A 
ATOM      9  N   UNL     1      -2.087  11.924  19.973  0.00  0.00    +0.000 N 
ATOM     10  C   UNL     1      -1.105  11.411  20.764  0.00  0.00    +0.000 C 
ATOM     11  O   UNL     1      -0.817  11.968  21.815  0.00  0.00    +0.000 OA
ATOM     12  N   UNL     1      -0.527  10.212  20.376  0.00  0.00    +0.000 N 
ATOM     13  N   UNL     1      -3.673  11.975  18.305  0.00  0.00    +0.000 NA
ATOM     14  H   UNL     1      -2.579  12.725  20.333  0.00  0.00    +0.000 HD
ATOM     15  H   UNL     1      -0.870   9.764  19.525  0.00  0.00    +0.000 HD
BRANCH   4  17
ATOM     16  C   UNL     1      -6.261  12.330  17.643  0.00  0.00    +0.000 C 
ATOM     17  O   UNL     1      -5.346  11.905  16.639  0.00  0.00    +0.000 OA
ENDBRANCH   4  17
ENDBRANCH   1  12
BRANCH   1  18
ATOM     18  C   UNL     1       1.535   8.495  19.921  0.00  0.00    +0.000 A 
ATOM     19  C   UNL     1       1.853   7.147  20.160  0.00  0.00    +0.000 A 
ATOM     20  C   UNL     1       2.564   6.395  19.225  0.00  0.00    +0.000 A 
ATOM     21  C   UNL     1       2.935   7.006  18.023  0.00  0.00    +0.000 A 
ATOM     22  C   UNL     1       2.634   8.355  17.788  0.00  0.00    +0.000 A 
ATOM     23  C   UNL     1       1.940   9.112  18.741  0.00  0.00    +0.000 A 
ATOM     24 CL   UNL     1       1.629  10.764  18.354  0.00  0.00    +0.000 Cl
BRANCH  20  25
ATOM     25  N   UNL     1       2.939   5.047  19.435  0.00  0.00    +0.000 N 
ATOM     26  C   UNL     1       4.230   4.547  19.476  0.00  0.00    +0.000 C 
ATOM     27  C   UNL     1       4.303   3.057  19.684  0.00  0.00    +0.000 C 
ATOM     28  O   UNL     1       5.270   5.189  19.364  0.00  0.00    +0.000 OA
ATOM     29  H   UNL     1       2.183   4.381  19.528  0.00  0.00    +0.000 HD
ENDBRANCH  20  25
ENDBRANCH   1  18
TORSDOF 4
ENDMDL
