MODEL 1
REMARK VINA RESULT:     -10.2      0.000      0.000
REMARK  Name = 
REMARK  3 active torsions:
REMARK  status: ('A' for Active; 'I' for Inactive)
REMARK    1  A    between atoms: C_2  and  C_22
REMARK    2  A    between atoms: N_3  and  C_4
REMARK    3  A    between atoms: C_7  and  C_8
REMARK                            x       y       z     vdW  Elec       q    Type
REMARK                         _______ _______ _______ _____ _____    ______ ____
ROOT
ATOM      1  C   UNL     1       7.969   7.216  18.468  0.00  0.00    +0.000 A 
ATOM      2  C   UNL     1       7.776   6.037  19.236  0.00  0.00    +0.000 A 
ATOM      3  C   UNL     1       6.858   4.990  18.889  0.00  0.00    +0.000 A 
ATOM      4  C   UNL     1       6.084   5.075  17.746  0.00  0.00    +0.000 A 
ATOM      5  C   UNL     1       6.297   6.258  16.952  0.00  0.00    +0.000 A 
ATOM      6  C   UNL     1       7.196   7.297  17.310  0.00  0.00    +0.000 A 
ENDROOT
BRANCH   4   7
ATOM      7  C   UNL     1       5.006   4.125  17.267  0.00  0.00    +0.000 C 
ATOM      8  O   UNL     1       5.084   3.916  16.041  0.00  0.00    +0.000 OA
ATOM      9  N   UNL     1       3.915   3.511  17.967  0.00  0.00    +0.000 N 
ATOM     10  C   UNL     1       2.796   3.122  17.079  0.00  0.00    +0.000 C 
ATOM     11  C   UNL     1       1.625   4.084  17.260  0.00  0.00    +0.000 C 
ATOM     12  C   UNL     1       1.143   3.961  18.684  0.00  0.00    +0.000 C 
ATOM     13  C   UNL     1       2.293   4.225  19.668  0.00  0.00    +0.000 A 
ATOM     14  C   UNL     1       1.827   4.344  20.989  0.00  0.00    +0.000 A 
ATOM     15  C   UNL     1       2.154   3.331  21.867  0.00  0.00    +0.000 A 
ATOM     16  C   UNL     1       3.031   2.340  21.428  0.00  0.00    +0.000 A 
ATOM     17  C   UNL     1       3.739   2.483  20.205  0.00  0.00    +0.000 A 
ATOM     18  C   UNL     1       3.507   3.575  19.351  0.00  0.00    +0.000 A 
ENDBRANCH   4   7
BRANCH   1  21
ATOM     19  O   UNL     1       7.673  10.053  17.838  0.00  0.00    +0.000 OA
ATOM     20  C   UNL     1       8.657   9.625  18.436  0.00  0.00    +0.000 C 
ATOM     21  N   UNL     1       8.841   8.282  18.795  0.00  0.00    +0.000 N 
ATOM     22  H   UNL     1       9.646   8.066  19.388  0.00  0.00    +0.000 HD
BRANCH  20  23
ATOM     23  C   UNL     1       9.675  10.634  18.856  0.00  0.00    +0.000 A 
ATOM     24  C   UNL     1       9.711  10.971  20.221  0.00  0.00    +0.000 A 
ATOM     25  C   UNL     1      10.564  11.969  20.700  0.00  0.00    +0.000 A 
ATOM     26  C   UNL     1      11.387  12.655  19.814  0.00  0.00    +0.000 A 
ATOM     27  C   UNL     1      11.350  12.346  18.454  0.00  0.00    +0.000 A 
ATOM     28  C   UNL     1      10.498  11.337  17.967  0.00  0.00    +0.000 A 
ENDBRANCH  20  23
ENDBRANCH   1  21
TORSDOF 3
ENDMDL
MODEL 2
REMARK VINA RESULT:      -9.2      6.183      7.587
REMARK  Name = 
REMARK  3 active torsions:
REMARK  status: ('A' for Active; 'I' for Inactive)
REMARK    1  A    between atoms: C_2  and  C_22
REMARK    2  A    between atoms: N_3  and  C_4
REMARK    3  A    between atoms: C_7  and  C_8
REMARK                            x       y       z     vdW  Elec       q    Type
REMARK                         _______ _______ _______ _____ _____    ______ ____
ROOT
ATOM      1  C   UNL     1       0.557  10.039  19.722  0.00  0.00    +0.000 A 
ATOM      2  C   UNL     1       0.960   9.974  18.362  0.00  0.00    +0.000 A 
ATOM      3  C   UNL     1       1.790   8.938  17.816  0.00  0.00    +0.000 A 
ATOM      4  C   UNL     1       2.256   7.909  18.614  0.00  0.00    +0.000 A 
ATOM      5  C   UNL     1       1.827   7.959  19.988  0.00  0.00    +0.000 A 
ATOM      6  C   UNL     1       1.019   8.996  20.524  0.00  0.00    +0.000 A 
ENDROOT
BRANCH   4   7
ATOM      7  C   UNL     1       3.206   6.788  18.244  0.00  0.00    +0.000 C 
ATOM      8  O   UNL     1       4.037   7.149  17.389  0.00  0.00    +0.000 OA
ATOM      9  N   UNL     1       3.248   5.416  18.660  0.00  0.00    +0.000 N 
ATOM     10  C   UNL     1       3.937   4.532  17.691  0.00  0.00    +0.000 C 
ATOM     11  C   UNL     1       2.916   3.681  16.940  0.00  0.00    +0.000 C 
ATOM     12  C   UNL     1       2.220   2.801  17.947  0.00  0.00    +0.000 C 
ATOM     13  C   UNL     1       1.589   3.649  19.062  0.00  0.00    +0.000 A 
ATOM     14  C   UNL     1       0.745   2.880  19.883  0.00  0.00    +0.000 A 
ATOM     15  C   UNL     1       1.167   2.643  21.175  0.00  0.00    +0.000 A 
ATOM     16  C   UNL     1       2.320   3.290  21.618  0.00  0.00    +0.000 A 
ATOM     17  C   UNL     1       2.914   4.327  20.850  0.00  0.00    +0.000 A 
ATOM     18  C   UNL     1       2.423   4.666  19.578  0.00  0.00    +0.000 A 
ENDBRANCH   4   7
BRANCH   1  21
ATOM     19  O   UNL     1       1.440  12.335  21.298  0.00  0.00    +0.000 OA
ATOM     20  C   UNL     1       0.250  12.125  21.076  0.00  0.00    +0.000 C 
ATOM     21  N   UNL     1      -0.234  11.061  20.302  0.00  0.00    +0.000 N 
ATOM     22  H   UNL     1      -1.236  11.055  20.096  0.00  0.00    +0.000 HD
BRANCH  20  23
ATOM     23  C   UNL     1      -0.717  13.124  21.622  0.00  0.00    +0.000 A 
ATOM     24  C   UNL     1      -1.127  12.947  22.956  0.00  0.00    +0.000 A 
ATOM     25  C   UNL     1      -2.096  13.772  23.533  0.00  0.00    +0.000 A 
ATOM     26  C   UNL     1      -2.682  14.780  22.774  0.00  0.00    +0.000 A 
ATOM     27  C   UNL     1      -2.301  14.956  21.443  0.00  0.00    +0.000 A 
ATOM     28  C   UNL     1      -1.319  14.132  20.860  0.00  0.00    +0.000 A 
ENDBRANCH  20  23
ENDBRANCH   1  21
TORSDOF 3
ENDMDL
MODEL 3
REMARK VINA RESULT:      -9.1      6.229      7.913
REMARK  Name = 
REMARK  3 active torsions:
REMARK  status: ('A' for Active; 'I' for Inactive)
REMARK    1  A    between atoms: C_2  and  C_22
REMARK    2  A    between atoms: N_3  and  C_4
REMARK    3  A    between atoms: C_7  and  C_8
REMARK                            x       y       z     vdW  Elec       q    Type
REMARK                         _______ _______ _______ _____ _____    ______ ____
ROOT
ATOM      1  C   UNL     1       0.772  10.004  19.492  0.00  0.00    +0.000 A 
ATOM      2  C   UNL     1       1.316   9.966  18.180  0.00  0.00    +0.000 A 
ATOM      3  C   UNL     1       2.138   8.901  17.679  0.00  0.00    +0.000 A 
ATOM      4  C   UNL     1       2.454   7.815  18.475  0.00  0.00    +0.000 A 
ATOM      5  C   UNL     1       1.883   7.840  19.797  0.00  0.00    +0.000 A 
ATOM      6  C   UNL     1       1.083   8.904  20.290  0.00  0.00    +0.000 A 
ENDROOT
BRANCH   4   7
ATOM      7  C   UNL     1       3.371   6.652  18.158  0.00  0.00    +0.000 C 
ATOM      8  O   UNL     1       4.230   6.957  17.308  0.00  0.00    +0.000 OA
ATOM      9  N   UNL     1       3.358   5.292  18.617  0.00  0.00    +0.000 N 
ATOM     10  C   UNL     1       4.034   4.356  17.689  0.00  0.00    +0.000 C 
ATOM     11  C   UNL     1       2.998   3.517  16.946  0.00  0.00    +0.000 C 
ATOM     12  C   UNL     1       2.254   2.693  17.966  0.00  0.00    +0.000 C 
ATOM     13  C   UNL     1       1.633   3.596  19.042  0.00  0.00    +0.000 A 
ATOM     14  C   UNL     1       0.748   2.883  19.870  0.00  0.00    +0.000 A 
ATOM     15  C   UNL     1       1.139   2.672  21.177  0.00  0.00    +0.000 A 
ATOM     16  C   UNL     1       2.305   3.293  21.621  0.00  0.00    +0.000 A 
ATOM     17  C   UNL     1       2.949   4.285  20.833  0.00  0.00    +0.000 A 
ATOM     18  C   UNL     1       2.492   4.601  19.542  0.00  0.00    +0.000 A 
ENDBRANCH   4   7
BRANCH   1  21
ATOM     19  O   UNL     1      -1.998  10.688  18.867  0.00  0.00    +0.000 OA
ATOM     20  C   UNL     1      -1.336  11.347  19.665  0.00  0.00    +0.000 C 
ATOM     21  N   UNL     1      -0.015  11.051  20.030  0.00  0.00    +0.000 N 
ATOM     22  H   UNL     1       0.393  11.606  20.786  0.00  0.00    +0.000 HD
BRANCH  20  23
ATOM     23  C   UNL     1      -2.031  12.493  20.324  0.00  0.00    +0.000 A 
ATOM     24  C   UNL     1      -1.296  13.218  21.278  0.00  0.00    +0.000 A 
ATOM     25  C   UNL     1      -1.882  14.250  22.016  0.00  0.00    +0.000 A 
ATOM     26  C   UNL     1      -3.224  14.561  21.819  0.00  0.00    +0.000 A 
ATOM     27  C   UNL     1      -3.972  13.838  20.889  0.00  0.00    +0.000 A 
ATOM     28  C   UNL     1      -3.384  12.803  20.138  0.00  0.00    +0.000 A 
ENDBRANCH  20  23
ENDBRANCH   1  21
TORSDOF 3
ENDMDL
MODEL 4
REMARK VINA RESULT:      -9.0      6.437      8.226
REMARK  Name = 
REMARK  3 active torsions:
REMARK  status: ('A' for Active; 'I' for Inactive)
REMARK    1  A    between atoms: C_2  and  C_22
REMARK    2  A    between atoms: N_3  and  C_4
REMARK    3  A    between atoms: C_7  and  C_8
REMARK                            x       y       z     vdW  Elec       q    Type
REMARK                         _______ _______ _______ _____ _____    ______ ____
ROOT
ATOM      1  C   UNL     1       0.438  10.090  19.474  0.00  0.00    +0.000 A 
ATOM      2  C   UNL     1       0.820   9.910  18.118  0.00  0.00    +0.000 A 
ATOM      3  C   UNL     1       1.700   8.872  17.660  0.00  0.00    +0.000 A 
ATOM      4  C   UNL     1       2.239   7.957  18.545  0.00  0.00    +0.000 A 
ATOM      5  C   UNL     1       1.832   8.123  19.917  0.00  0.00    +0.000 A 
ATOM      6  C   UNL     1       0.974   9.161  20.365  0.00  0.00    +0.000 A 
ENDROOT
BRANCH   4   7
ATOM      7  C   UNL     1       3.246   6.860  18.268  0.00  0.00    +0.000 C 
ATOM      8  O   UNL     1       4.135   7.235  17.480  0.00  0.00    +0.000 OA
ATOM      9  N   UNL     1       3.291   5.493  18.703  0.00  0.00    +0.000 N 
ATOM     10  C   UNL     1       4.080   4.620  17.804  0.00  0.00    +0.000 C 
ATOM     11  C   UNL     1       3.148   3.734  16.983  0.00  0.00    +0.000 C 
ATOM     12  C   UNL     1       2.396   2.844  17.940  0.00  0.00    +0.000 C 
ATOM     13  C   UNL     1       1.653   3.685  18.989  0.00  0.00    +0.000 A 
ATOM     14  C   UNL     1       0.765   2.901  19.747  0.00  0.00    +0.000 A 
ATOM     15  C   UNL     1       1.086   2.688  21.073  0.00  0.00    +0.000 A 
ATOM     16  C   UNL     1       2.181   3.371  21.601  0.00  0.00    +0.000 A 
ATOM     17  C   UNL     1       2.808   4.417  20.871  0.00  0.00    +0.000 A 
ATOM     18  C   UNL     1       2.414   4.730  19.559  0.00  0.00    +0.000 A 
ENDBRANCH   4   7
BRANCH   1  21
ATOM     19  O   UNL     1      -2.167  10.940  18.462  0.00  0.00    +0.000 OA
ATOM     20  C   UNL     1      -1.632  11.501  19.415  0.00  0.00    +0.000 C 
ATOM     21  N   UNL     1      -0.401  11.120  19.966  0.00  0.00    +0.000 N 
ATOM     22  H   UNL     1      -0.111  11.591  20.827  0.00  0.00    +0.000 HD
BRANCH  20  23
ATOM     23  C   UNL     1      -2.398  12.614  20.051  0.00  0.00    +0.000 A 
ATOM     24  C   UNL     1      -3.800  12.526  20.010  0.00  0.00    +0.000 A 
ATOM     25  C   UNL     1      -4.608  13.558  20.497  0.00  0.00    +0.000 A 
ATOM     26  C   UNL     1      -4.019  14.705  21.019  0.00  0.00    +0.000 A 
ATOM     27  C   UNL     1      -2.628  14.816  21.050  0.00  0.00    +0.000 A 
ATOM     28  C   UNL     1      -1.811  13.776  20.568  0.00  0.00    +0.000 A 
ENDBRANCH  20  23
ENDBRANCH   1  21
TORSDOF 3
ENDMDL
MODEL 5
REMARK VINA RESULT:      -9.0      6.333      8.089
REMARK  Name = 
REMARK  3 active torsions:
REMARK  status: ('A' for Active; 'I' for Inactive)
REMARK    1  A    between atoms: C_2  and  C_22
REMARK    2  A    between atoms: N_3  and  C_4
REMARK    3  A    between atoms: C_7  and  C_8
REMARK                            x       y       z     vdW  Elec       q    Type
REMARK                         _______ _______ _______ _____ _____    ______ ____
ROOT
ATOM      1  C   UNL     1       0.062   9.973  20.283  0.00  0.00    +0.000 A 
ATOM      2  C   UNL     1       0.444  10.049  18.917  0.00  0.00    +0.000 A 
ATOM      3  C   UNL     1       1.337   9.124  18.277  0.00  0.00    +0.000 A 
ATOM      4  C   UNL     1       1.890   8.070  18.982  0.00  0.00    +0.000 A 
ATOM      5  C   UNL     1       1.484   7.977  20.361  0.00  0.00    +0.000 A 
ATOM      6  C   UNL     1       0.612   8.905  20.990  0.00  0.00    +0.000 A 
ENDROOT
BRANCH   4   7
ATOM      7  C   UNL     1       2.911   7.056  18.509  0.00  0.00    +0.000 C 
ATOM      8  O   UNL     1       3.692   7.542  17.669  0.00  0.00    +0.000 OA
ATOM      9  N   UNL     1       3.065   5.663  18.819  0.00  0.00    +0.000 N 
ATOM     10  C   UNL     1       3.794   4.910  17.772  0.00  0.00    +0.000 C 
ATOM     11  C   UNL     1       2.821   4.042  16.978  0.00  0.00    +0.000 C 
ATOM     12  C   UNL     1       2.218   3.039  17.928  0.00  0.00    +0.000 C 
ATOM     13  C   UNL     1       1.553   3.750  19.116  0.00  0.00    +0.000 A 
ATOM     14  C   UNL     1       0.790   2.861  19.892  0.00  0.00    +0.000 A 
ATOM     15  C   UNL     1       1.260   2.561  21.155  0.00  0.00    +0.000 A 
ATOM     16  C   UNL     1       2.373   3.258  21.623  0.00  0.00    +0.000 A 
ATOM     17  C   UNL     1       2.869   4.392  20.925  0.00  0.00    +0.000 A 
ATOM     18  C   UNL     1       2.322   4.787  19.693  0.00  0.00    +0.000 A 
ENDBRANCH   4   7
BRANCH   1  21
ATOM     19  O   UNL     1       0.795  12.399  21.736  0.00  0.00    +0.000 OA
ATOM     20  C   UNL     1      -0.371  12.020  21.662  0.00  0.00    +0.000 C 
ATOM     21  N   UNL     1      -0.789  10.884  20.954  0.00  0.00    +0.000 N 
ATOM     22  H   UNL     1      -1.798  10.733  20.873  0.00  0.00    +0.000 HD
BRANCH  20  23
ATOM     23  C   UNL     1      -1.397  12.882  22.322  0.00  0.00    +0.000 A 
ATOM     24  C   UNL     1      -1.232  14.273  22.201  0.00  0.00    +0.000 A 
ATOM     25  C   UNL     1      -2.085  15.165  22.856  0.00  0.00    +0.000 A 
ATOM     26  C   UNL     1      -3.111  14.675  23.657  0.00  0.00    +0.000 A 
ATOM     27  C   UNL     1      -3.276  13.297  23.803  0.00  0.00    +0.000 A 
ATOM     28  C   UNL     1      -2.424  12.394  23.139  0.00  0.00    +0.000 A 
ENDBRANCH  20  23
ENDBRANCH   1  21
TORSDOF 3
ENDMDL
MODEL 6
REMARK VINA RESULT:      -8.8      6.512      8.347
REMARK  Name = 
REMARK  3 active torsions:
REMARK  status: ('A' for Active; 'I' for Inactive)
REMARK    1  A    between atoms: C_2  and  C_22
REMARK    2  A    between atoms: N_3  and  C_4
REMARK    3  A    between atoms: C_7  and  C_8
REMARK                            x       y       z     vdW  Elec       q    Type
REMARK                         _______ _______ _______ _____ _____    ______ ____
ROOT
ATOM      1  C   UNL     1       0.187  10.244  20.717  0.00  0.00    +0.000 A 
ATOM      2  C   UNL     1       0.690   9.139  21.454  0.00  0.00    +0.000 A 
ATOM      3  C   UNL     1       1.505   8.099  20.892  0.00  0.00    +0.000 A 
ATOM      4  C   UNL     1       1.858   8.120  19.556  0.00  0.00    +0.000 A 
ATOM      5  C   UNL     1       1.370   9.253  18.812  0.00  0.00    +0.000 A 
ATOM      6  C   UNL     1       0.552  10.270  19.371  0.00  0.00    +0.000 A 
ENDROOT
BRANCH   4   7
ATOM      7  C   UNL     1       2.626   7.077  18.770  0.00  0.00    +0.000 C 
ATOM      8  O   UNL     1       3.195   7.571  17.778  0.00  0.00    +0.000 OA
ATOM      9  N   UNL     1       2.737   5.658  18.949  0.00  0.00    +0.000 N 
ATOM     10  C   UNL     1       3.094   4.938  17.705  0.00  0.00    +0.000 C 
ATOM     11  C   UNL     1       1.875   4.201  17.158  0.00  0.00    +0.000 C 
ATOM     12  C   UNL     1       1.462   3.172  18.179  0.00  0.00    +0.000 C 
ATOM     13  C   UNL     1       1.199   3.835  19.540  0.00  0.00    +0.000 A 
ATOM     14  C   UNL     1       0.595   2.943  20.443  0.00  0.00    +0.000 A 
ATOM     15  C   UNL     1       1.356   2.517  21.513  0.00  0.00    +0.000 A 
ATOM     16  C   UNL     1       2.609   3.100  21.701  0.00  0.00    +0.000 A 
ATOM     17  C   UNL     1       2.998   4.247  20.958  0.00  0.00    +0.000 A 
ATOM     18  C   UNL     1       2.180   4.770  19.943  0.00  0.00    +0.000 A 
ENDBRANCH   4   7
BRANCH   1  21
ATOM     19  O   UNL     1      -0.468  10.818  23.505  0.00  0.00    +0.000 OA
ATOM     20  C   UNL     1      -0.944  11.476  22.583  0.00  0.00    +0.000 C 
ATOM     21  N   UNL     1      -0.645  11.270  21.229  0.00  0.00    +0.000 N 
ATOM     22  H   UNL     1      -1.016  11.952  20.563  0.00  0.00    +0.000 HD
BRANCH  20  23
ATOM     23  C   UNL     1      -1.846  12.604  22.963  0.00  0.00    +0.000 A 
ATOM     24  C   UNL     1      -3.214  12.448  22.680  0.00  0.00    +0.000 A 
ATOM     25  C   UNL     1      -4.127  13.480  22.913  0.00  0.00    +0.000 A 
ATOM     26  C   UNL     1      -3.678  14.694  23.422  0.00  0.00    +0.000 A 
ATOM     27  C   UNL     1      -2.320  14.872  23.690  0.00  0.00    +0.000 A 
ATOM     28  C   UNL     1      -1.398  13.833  23.464  0.00  0.00    +0.000 A 
ENDBRANCH  20  23
ENDBRANCH   1  21
TORSDOF 3
ENDMDL
MODEL 7
REMARK VINA RESULT:      -8.7      6.623      9.317
REMARK  Name = 
REMARK  3 active torsions:
REMARK  status: ('A' for Active; 'I' for Inactive)
REMARK    1  A    between atoms: C_2  and  C_22
REMARK    2  A    between atoms: N_3  and  C_4
REMARK    3  A    between atoms: C_7  and  C_8
REMARK                            x       y       z     vdW  Elec       q    Type
REMARK                         _______ _______ _______ _____ _____    ______ ____
ROOT
ATOM      1  C   UNL     1      -0.706  10.150  18.922  0.00  0.00    +0.000 A 
ATOM      2  C   UNL     1      -0.022   9.664  20.068  0.00  0.00    +0.000 A 
ATOM      3  C   UNL     1       1.151   8.838  20.016  0.00  0.00    +0.000 A 
ATOM      4  C   UNL     1       1.699   8.460  18.803  0.00  0.00    +0.000 A 
ATOM      5  C   UNL     1       1.021   8.973  17.641  0.00  0.00    +0.000 A 
ATOM      6  C   UNL     1      -0.148   9.777  17.700  0.00  0.00    +0.000 A 
ENDROOT
BRANCH   4   7
ATOM      7  C   UNL     1       2.866   7.529  18.548  0.00  0.00    +0.000 C 
ATOM      8  O   UNL     1       3.752   8.074  17.863  0.00  0.00    +0.000 OA
ATOM      9  N   UNL     1       3.066   6.153  18.902  0.00  0.00    +0.000 N 
ATOM     10  C   UNL     1       4.035   5.459  18.023  0.00  0.00    +0.000 C 
ATOM     11  C   UNL     1       3.301   4.517  17.074  0.00  0.00    +0.000 C 
ATOM     12  C   UNL     1       2.608   3.469  17.908  0.00  0.00    +0.000 C 
ATOM     13  C   UNL     1       1.677   4.127  18.937  0.00  0.00    +0.000 A 
ATOM     14  C   UNL     1       0.851   3.180  19.568  0.00  0.00    +0.000 A 
ATOM     15  C   UNL     1       1.095   2.918  20.902  0.00  0.00    +0.000 A 
ATOM     16  C   UNL     1       2.041   3.701  21.561  0.00  0.00    +0.000 A 
ATOM     17  C   UNL     1       2.572   4.871  20.953  0.00  0.00    +0.000 A 
ATOM     18  C   UNL     1       2.240   5.221  19.633  0.00  0.00    +0.000 A 
ENDBRANCH   4   7
BRANCH   1  21
ATOM     19  O   UNL     1      -3.273   9.592  17.644  0.00  0.00    +0.000 OA
ATOM     20  C   UNL     1      -3.079  10.628  18.274  0.00  0.00    +0.000 C 
ATOM     21  N   UNL     1      -1.882  10.939  18.935  0.00  0.00    +0.000 N 
ATOM     22  H   UNL     1      -1.879  11.779  19.518  0.00  0.00    +0.000 HD
BRANCH  20  23
ATOM     23  C   UNL     1      -4.233  11.571  18.382  0.00  0.00    +0.000 A 
ATOM     24  C   UNL     1      -5.002  11.770  17.222  0.00  0.00    +0.000 A 
ATOM     25  C   UNL     1      -6.046  12.698  17.194  0.00  0.00    +0.000 A 
ATOM     26  C   UNL     1      -6.327  13.454  18.328  0.00  0.00    +0.000 A 
ATOM     27  C   UNL     1      -5.561  13.281  19.481  0.00  0.00    +0.000 A 
ATOM     28  C   UNL     1      -4.513  12.342  19.517  0.00  0.00    +0.000 A 
ENDBRANCH  20  23
ENDBRANCH   1  21
TORSDOF 3
ENDMDL
MODEL 8
REMARK VINA RESULT:      -8.7      6.438      7.915
REMARK  Name = 
REMARK  3 active torsions:
REMARK  status: ('A' for Active; 'I' for Inactive)
REMARK    1  A    between atoms: C_2  and  C_22
REMARK    2  A    between atoms: N_3  and  C_4
REMARK    3  A    between atoms: C_7  and  C_8
REMARK                            x       y       z     vdW  Elec       q    Type
REMARK                         _______ _______ _______ _____ _____    ______ ____
ROOT
ATOM      1  C   UNL     1       0.290  10.105  19.474  0.00  0.00    +0.000 A 
ATOM      2  C   UNL     1       0.754   9.183  20.450  0.00  0.00    +0.000 A 
ATOM      3  C   UNL     1       1.679   8.119  20.177  0.00  0.00    +0.000 A 
ATOM      4  C   UNL     1       2.186   7.930  18.904  0.00  0.00    +0.000 A 
ATOM      5  C   UNL     1       1.736   8.880  17.920  0.00  0.00    +0.000 A 
ATOM      6  C   UNL     1       0.809   9.920  18.194  0.00  0.00    +0.000 A 
ENDROOT
BRANCH   4   7
ATOM      7  C   UNL     1       3.091   6.821  18.408  0.00  0.00    +0.000 C 
ATOM      8  O   UNL     1       3.862   7.217  17.513  0.00  0.00    +0.000 OA
ATOM      9  N   UNL     1       3.145   5.428  18.749  0.00  0.00    +0.000 N 
ATOM     10  C   UNL     1       3.748   4.590  17.687  0.00  0.00    +0.000 C 
ATOM     11  C   UNL     1       2.663   3.789  16.972  0.00  0.00    +0.000 C 
ATOM     12  C   UNL     1       2.032   2.864  17.982  0.00  0.00    +0.000 C 
ATOM     13  C   UNL     1       1.496   3.659  19.182  0.00  0.00    +0.000 A 
ATOM     14  C   UNL     1       0.705   2.857  20.023  0.00  0.00    +0.000 A 
ATOM     15  C   UNL     1       1.218   2.549  21.267  0.00  0.00    +0.000 A 
ATOM     16  C   UNL     1       2.409   3.160  21.655  0.00  0.00    +0.000 A 
ATOM     17  C   UNL     1       2.960   4.230  20.899  0.00  0.00    +0.000 A 
ATOM     18  C   UNL     1       2.380   4.640  19.686  0.00  0.00    +0.000 A 
ENDBRANCH   4   7
BRANCH   1  21
ATOM     19  O   UNL     1       0.488  12.340  21.346  0.00  0.00    +0.000 OA
ATOM     20  C   UNL     1      -0.503  12.178  20.638  0.00  0.00    +0.000 C 
ATOM     21  N   UNL     1      -0.644  11.146  19.700  0.00  0.00    +0.000 N 
ATOM     22  H   UNL     1      -1.467  11.180  19.092  0.00  0.00    +0.000 HD
BRANCH  20  23
ATOM     23  C   UNL     1      -1.585  13.201  20.759  0.00  0.00    +0.000 A 
ATOM     24  C   UNL     1      -1.195  14.495  21.148  0.00  0.00    +0.000 A 
ATOM     25  C   UNL     1      -2.139  15.500  21.376  0.00  0.00    +0.000 A 
ATOM     26  C   UNL     1      -3.494  15.218  21.232  0.00  0.00    +0.000 A 
ATOM     27  C   UNL     1      -3.898  13.933  20.865  0.00  0.00    +0.000 A 
ATOM     28  C   UNL     1      -2.950  12.920  20.627  0.00  0.00    +0.000 A 
ENDBRANCH  20  23
ENDBRANCH   1  21
TORSDOF 3
ENDMDL
MODEL 9
REMARK VINA RESULT:      -8.6      6.337      7.451
REMARK  Name = 
REMARK  3 active torsions:
REMARK  status: ('A' for Active; 'I' for Inactive)
REMARK    1  A    between atoms: C_2  and  C_22
REMARK    2  A    between atoms: N_3  and  C_4
REMARK    3  A    between atoms: C_7  and  C_8
REMARK                            x       y       z     vdW  Elec       q    Type
REMARK                         _______ _______ _______ _____ _____    ______ ____
ROOT
ATOM      1  C   UNL     1       0.747  10.137  19.430  0.00  0.00    +0.000 A 
ATOM      2  C   UNL     1       1.011   9.088  20.351  0.00  0.00    +0.000 A 
ATOM      3  C   UNL     1       1.823   7.941  20.055  0.00  0.00    +0.000 A 
ATOM      4  C   UNL     1       2.414   7.792  18.814  0.00  0.00    +0.000 A 
ATOM      5  C   UNL     1       2.168   8.867  17.888  0.00  0.00    +0.000 A 
ATOM      6  C   UNL     1       1.351   9.991  18.182  0.00  0.00    +0.000 A 
ENDROOT
BRANCH   4   7
ATOM      7  C   UNL     1       3.220   6.622  18.291  0.00  0.00    +0.000 C 
ATOM      8  O   UNL     1       3.958   6.954  17.344  0.00  0.00    +0.000 OA
ATOM      9  N   UNL     1       3.213   5.235  18.660  0.00  0.00    +0.000 N 
ATOM     10  C   UNL     1       3.701   4.342  17.584  0.00  0.00    +0.000 C 
ATOM     11  C   UNL     1       2.530   3.594  16.953  0.00  0.00    +0.000 C 
ATOM     12  C   UNL     1       1.907   2.728  18.019  0.00  0.00    +0.000 C 
ATOM     13  C   UNL     1       1.492   3.577  19.230  0.00  0.00    +0.000 A 
ATOM     14  C   UNL     1       0.707   2.841  20.135  0.00  0.00    +0.000 A 
ATOM     15  C   UNL     1       1.275   2.526  21.353  0.00  0.00    +0.000 A 
ATOM     16  C   UNL     1       2.521   3.072  21.656  0.00  0.00    +0.000 A 
ATOM     17  C   UNL     1       3.087   4.092  20.845  0.00  0.00    +0.000 A 
ATOM     18  C   UNL     1       2.461   4.513  19.659  0.00  0.00    +0.000 A 
ENDBRANCH   4   7
BRANCH   1  21
ATOM     19  O   UNL     1       1.290  12.424  21.164  0.00  0.00    +0.000 OA
ATOM     20  C   UNL     1       0.233  12.321  20.546  0.00  0.00    +0.000 C 
ATOM     21  N   UNL     1      -0.073  11.265  19.676  0.00  0.00    +0.000 N 
ATOM     22  H   UNL     1      -0.937  11.346  19.134  0.00  0.00    +0.000 HD
BRANCH  20  23
ATOM     23  C   UNL     1      -0.743  13.440  20.700  0.00  0.00    +0.000 A 
ATOM     24  C   UNL     1      -2.088  13.087  20.909  0.00  0.00    +0.000 A 
ATOM     25  C   UNL     1      -3.092  14.056  20.976  0.00  0.00    +0.000 A 
ATOM     26  C   UNL     1      -2.764  15.399  20.817  0.00  0.00    +0.000 A 
ATOM     27  C   UNL     1      -1.437  15.765  20.589  0.00  0.00    +0.000 A 
ATOM     28  C   UNL     1      -0.421  14.792  20.529  0.00  0.00    +0.000 A 
ENDBRANCH  20  23
ENDBRANCH   1  21
TORSDOF 3
ENDMDL
