MODEL 1
REMARK VINA RESULT:      -6.7      0.000      0.000
REMARK  Name = 
REMARK  5 active torsions:
REMARK  status: ('A' for Active; 'I' for Inactive)
REMARK    1  A    between atoms: C_1  and  C_2
REMARK    2  A    between atoms: N_4  and  C_5
REMARK    3  A    between atoms: C_8  and  C_9
REMARK    4  A    between atoms: C_9  and  S_10
REMARK    5  A    between atoms: S_10  and  C_11
REMARK                            x       y       z     vdW  Elec       q    Type
REMARK                         _______ _______ _______ _____ _____    ______ ____
ROOT
ATOM      1  C   UNL     1       5.362   6.248  16.900  0.00  0.00    +0.000 A 
ATOM      2  C   UNL     1       5.415   4.974  16.309  0.00  0.00    +0.000 A 
ATOM      3  C   UNL     1       4.403   4.046  16.524  0.00  0.00    +0.000 A 
ATOM      4  C   UNL     1       3.310   4.346  17.343  0.00  0.00    +0.000 A 
ATOM      5  C   UNL     1       3.220   5.626  17.913  0.00  0.00    +0.000 A 
ATOM      6  C   UNL     1       4.238   6.568  17.694  0.00  0.00    +0.000 A 
ENDROOT
BRANCH   1  10
ATOM      7  C   UNL     1       8.142   8.752  17.815  0.00  0.00    +0.000 C 
ATOM      8  C   UNL     1       7.473   7.406  17.749  0.00  0.00    +0.000 C 
ATOM      9  N   UNL     1       7.851   6.463  18.539  0.00  0.00    +0.000 NA
ATOM     10  N   UNL     1       6.425   7.203  16.796  0.00  0.00    +0.000 N 
ATOM     11  H   UNL     1       8.606   6.587  19.228  0.00  0.00    +0.000 HD
ATOM     12  H   UNL     1       6.367   7.889  16.025  0.00  0.00    +0.000 HD
ENDBRANCH   1  10
BRANCH   4  13
ATOM     13  C   UNL     1       2.279   3.279  17.621  0.00  0.00    +0.000 C 
BRANCH  13  14
ATOM     14  S   UNL     1       2.423   2.809  19.389  0.00  0.00    +0.000 S 
BRANCH  14  15
ATOM     15  C   UNL     1       3.963   1.886  19.271  0.00  0.00    +0.000 C 
ATOM     16  N   UNL     1       4.966   2.180  20.018  0.00  0.00    +0.000 NA
ATOM     17  N   UNL     1       4.039   0.774  18.397  0.00  0.00    +0.000 N 
ATOM     18  H   UNL     1       4.928   2.962  20.686  0.00  0.00    +0.000 HD
ATOM     19  H   UNL     1       3.223   0.508  17.828  0.00  0.00    +0.000 HD
ATOM     20  H   UNL     1       4.892   0.200  18.351  0.00  0.00    +0.000 HD
ENDBRANCH  14  15
ENDBRANCH  13  14
ENDBRANCH   4  13
TORSDOF 4
ENDMDL
MODEL 2
REMARK VINA RESULT:      -6.6      0.480      1.566
REMARK  Name = 
REMARK  5 active torsions:
REMARK  status: ('A' for Active; 'I' for Inactive)
REMARK    1  A    between atoms: C_1  and  C_2
REMARK    2  A    between atoms: N_4  and  C_5
REMARK    3  A    between atoms: C_8  and  C_9
REMARK    4  A    between atoms: C_9  and  S_10
REMARK    5  A    between atoms: S_10  and  C_11
REMARK                            x       y       z     vdW  Elec       q    Type
REMARK                         _______ _______ _______ _____ _____    ______ ____
ROOT
ATOM      1  C   UNL     1       5.776   6.350  17.137  0.00  0.00    +0.000 A 
ATOM      2  C   UNL     1       4.739   6.379  18.084  0.00  0.00    +0.000 A 
ATOM      3  C   UNL     1       3.771   5.382  18.112  0.00  0.00    +0.000 A 
ATOM      4  C   UNL     1       3.792   4.329  17.193  0.00  0.00    +0.000 A 
ATOM      5  C   UNL     1       4.840   4.261  16.262  0.00  0.00    +0.000 A 
ATOM      6  C   UNL     1       5.823   5.264  16.234  0.00  0.00    +0.000 A 
ENDROOT
BRANCH   1  10
ATOM      7  C   UNL     1       8.284   9.155  17.959  0.00  0.00    +0.000 C 
ATOM      8  C   UNL     1       7.755   7.746  17.943  0.00  0.00    +0.000 C 
ATOM      9  N   UNL     1       8.224   6.877  18.767  0.00  0.00    +0.000 NA
ATOM     10  N   UNL     1       6.737   7.403  16.997  0.00  0.00    +0.000 N 
ATOM     11  H   UNL     1       8.960   7.102  19.451  0.00  0.00    +0.000 HD
ATOM     12  H   UNL     1       6.612   8.051  16.202  0.00  0.00    +0.000 HD
ENDBRANCH   1  10
BRANCH   4  13
ATOM     13  C   UNL     1       2.672   3.316  17.203  0.00  0.00    +0.000 C 
BRANCH  13  14
ATOM     14  S   UNL     1       2.407   2.790  18.941  0.00  0.00    +0.000 S 
BRANCH  14  15
ATOM     15  C   UNL     1       3.894   1.792  19.122  0.00  0.00    +0.000 C 
ATOM     16  N   UNL     1       4.068   0.734  18.415  0.00  0.00    +0.000 NA
ATOM     17  N   UNL     1       4.917   2.227  19.999  0.00  0.00    +0.000 N 
ATOM     18  H   UNL     1       3.355   0.412  17.745  0.00  0.00    +0.000 HD
ATOM     19  H   UNL     1       4.801   3.099  20.536  0.00  0.00    +0.000 HD
ATOM     20  H   UNL     1       5.798   1.701  20.080  0.00  0.00    +0.000 HD
ENDBRANCH  14  15
ENDBRANCH  13  14
ENDBRANCH   4  13
TORSDOF 4
ENDMDL
MODEL 3
REMARK VINA RESULT:      -6.6      1.781      1.906
REMARK  Name = 
REMARK  5 active torsions:
REMARK  status: ('A' for Active; 'I' for Inactive)
REMARK    1  A    between atoms: C_1  and  C_2
REMARK    2  A    between atoms: N_4  and  C_5
REMARK    3  A    between atoms: C_8  and  C_9
REMARK    4  A    between atoms: C_9  and  S_10
REMARK    5  A    between atoms: S_10  and  C_11
REMARK                            x       y       z     vdW  Elec       q    Type
REMARK                         _______ _______ _______ _____ _____    ______ ____
ROOT
ATOM      1  C   UNL     1       5.069   6.087  16.981  0.00  0.00    +0.000 A 
ATOM      2  C   UNL     1       5.099   4.750  16.550  0.00  0.00    +0.000 A 
ATOM      3  C   UNL     1       4.056   3.881  16.852  0.00  0.00    +0.000 A 
ATOM      4  C   UNL     1       2.956   4.306  17.601  0.00  0.00    +0.000 A 
ATOM      5  C   UNL     1       2.889   5.647  18.010  0.00  0.00    +0.000 A 
ATOM      6  C   UNL     1       3.938   6.530  17.703  0.00  0.00    +0.000 A 
ENDROOT
BRANCH   1  10
ATOM      7  C   UNL     1       8.006   8.485  17.662  0.00  0.00    +0.000 C 
ATOM      8  C   UNL     1       7.279   7.167  17.665  0.00  0.00    +0.000 C 
ATOM      9  N   UNL     1       7.672   6.221  18.443  0.00  0.00    +0.000 NA
ATOM     10  N   UNL     1       6.161   6.995  16.788  0.00  0.00    +0.000 N 
ATOM     11  H   UNL     1       8.477   6.324  19.077  0.00  0.00    +0.000 HD
ATOM     12  H   UNL     1       6.077   7.672  16.012  0.00  0.00    +0.000 HD
ENDBRANCH   1  10
BRANCH   4  13
ATOM     13  C   UNL     1       1.890   3.307  17.981  0.00  0.00    +0.000 C 
BRANCH  13  14
ATOM     14  S   UNL     1       2.548   2.279  19.351  0.00  0.00    +0.000 S 
BRANCH  14  15
ATOM     15  C   UNL     1       1.523   2.947  20.671  0.00  0.00    +0.000 C 
ATOM     16  N   UNL     1       0.545   3.738  20.409  0.00  0.00    +0.000 NA
ATOM     17  N   UNL     1       1.752   2.530  22.004  0.00  0.00    +0.000 N 
ATOM     18  H   UNL     1       0.334   4.032  19.445  0.00  0.00    +0.000 HD
ATOM     19  H   UNL     1       2.508   1.861  22.214  0.00  0.00    +0.000 HD
ATOM     20  H   UNL     1       1.146   2.858  22.769  0.00  0.00    +0.000 HD
ENDBRANCH  14  15
ENDBRANCH  13  14
ENDBRANCH   4  13
TORSDOF 4
ENDMDL
MODEL 4
REMARK VINA RESULT:      -6.3      2.179      2.490
REMARK  Name = 
REMARK  5 active torsions:
REMARK  status: ('A' for Active; 'I' for Inactive)
REMARK    1  A    between atoms: C_1  and  C_2
REMARK    2  A    between atoms: N_4  and  C_5
REMARK    3  A    between atoms: C_8  and  C_9
REMARK    4  A    between atoms: C_9  and  S_10
REMARK    5  A    between atoms: S_10  and  C_11
REMARK                            x       y       z     vdW  Elec       q    Type
REMARK                         _______ _______ _______ _____ _____    ______ ____
ROOT
ATOM      1  C   UNL     1       5.079   5.470  18.041  0.00  0.00    +0.000 A 
ATOM      2  C   UNL     1       5.417   4.575  19.070  0.00  0.00    +0.000 A 
ATOM      3  C   UNL     1       4.674   3.418  19.280  0.00  0.00    +0.000 A 
ATOM      4  C   UNL     1       3.564   3.118  18.486  0.00  0.00    +0.000 A 
ATOM      5  C   UNL     1       3.231   3.982  17.430  0.00  0.00    +0.000 A 
ATOM      6  C   UNL     1       3.982   5.148  17.210  0.00  0.00    +0.000 A 
ENDROOT
BRANCH   1  10
ATOM      7  C   UNL     1       7.831   8.128  17.599  0.00  0.00    +0.000 C 
ATOM      8  C   UNL     1       7.023   6.913  17.232  0.00  0.00    +0.000 C 
ATOM      9  N   UNL     1       7.486   6.070  16.377  0.00  0.00    +0.000 NA
ATOM     10  N   UNL     1       5.744   6.724  17.846  0.00  0.00    +0.000 N 
ATOM     11  H   UNL     1       8.402   6.191  15.920  0.00  0.00    +0.000 HD
ATOM     12  H   UNL     1       5.323   7.555  18.294  0.00  0.00    +0.000 HD
ENDBRANCH   1  10
BRANCH   4  13
ATOM     13  C   UNL     1       2.734   1.899  18.807  0.00  0.00    +0.000 C 
BRANCH  13  14
ATOM     14  S   UNL     1       1.005   2.453  19.078  0.00  0.00    +0.000 S 
BRANCH  14  15
ATOM     15  C   UNL     1       1.278   3.355  20.611  0.00  0.00    +0.000 C 
ATOM     16  N   UNL     1       1.183   4.636  20.649  0.00  0.00    +0.000 NA
ATOM     17  N   UNL     1       1.521   2.633  21.805  0.00  0.00    +0.000 N 
ATOM     18  H   UNL     1       0.975   5.184  19.803  0.00  0.00    +0.000 HD
ATOM     19  H   UNL     1       1.554   1.604  21.788  0.00  0.00    +0.000 HD
ATOM     20  H   UNL     1       1.628   3.125  22.703  0.00  0.00    +0.000 HD
ENDBRANCH  14  15
ENDBRANCH  13  14
ENDBRANCH   4  13
TORSDOF 4
ENDMDL
MODEL 5
REMARK VINA RESULT:      -6.3      1.750      2.194
REMARK  Name = 
REMARK  5 active torsions:
REMARK  status: ('A' for Active; 'I' for Inactive)
REMARK    1  A    between atoms: C_1  and  C_2
REMARK    2  A    between atoms: N_4  and  C_5
REMARK    3  A    between atoms: C_8  and  C_9
REMARK    4  A    between atoms: C_9  and  S_10
REMARK    5  A    between atoms: S_10  and  C_11
REMARK                            x       y       z     vdW  Elec       q    Type
REMARK                         _______ _______ _______ _____ _____    ______ ____
ROOT
ATOM      1  C   UNL     1       5.104   6.062  17.273  0.00  0.00    +0.000 A 
ATOM      2  C   UNL     1       3.910   6.485  17.882  0.00  0.00    +0.000 A 
ATOM      3  C   UNL     1       2.868   5.592  18.103  0.00  0.00    +0.000 A 
ATOM      4  C   UNL     1       2.971   4.252  17.718  0.00  0.00    +0.000 A 
ATOM      5  C   UNL     1       4.169   3.801  17.141  0.00  0.00    +0.000 A 
ATOM      6  C   UNL     1       5.226   4.699  16.920  0.00  0.00    +0.000 A 
ENDROOT
BRANCH   1  10
ATOM      7  C   UNL     1       8.021   8.563  17.541  0.00  0.00    +0.000 C 
ATOM      8  C   UNL     1       7.322   7.243  17.723  0.00  0.00    +0.000 C 
ATOM      9  N   UNL     1       7.771   6.394  18.579  0.00  0.00    +0.000 NA
ATOM     10  N   UNL     1       6.166   6.959  16.928  0.00  0.00    +0.000 N 
ATOM     11  H   UNL     1       8.604   6.577  19.156  0.00  0.00    +0.000 HD
ATOM     12  H   UNL     1       6.032   7.546  16.088  0.00  0.00    +0.000 HD
ENDBRANCH   1  10
BRANCH   4  13
ATOM     13  C   UNL     1       1.782   3.339  17.896  0.00  0.00    +0.000 C 
BRANCH  13  14
ATOM     14  S   UNL     1       2.237   2.063  19.135  0.00  0.00    +0.000 S 
BRANCH  14  15
ATOM     15  C   UNL     1       1.561   2.883  20.587  0.00  0.00    +0.000 C 
ATOM     16  N   UNL     1       2.013   2.622  21.761  0.00  0.00    +0.000 NA
ATOM     17  N   UNL     1       0.573   3.883  20.420  0.00  0.00    +0.000 N 
ATOM     18  H   UNL     1       2.754   1.924  21.909  0.00  0.00    +0.000 HD
ATOM     19  H   UNL     1       0.238   4.127  19.477  0.00  0.00    +0.000 HD
ATOM     20  H   UNL     1       0.209   4.402  21.232  0.00  0.00    +0.000 HD
ENDBRANCH  14  15
ENDBRANCH  13  14
ENDBRANCH   4  13
TORSDOF 4
ENDMDL
MODEL 6
REMARK VINA RESULT:      -6.3      1.668      2.278
REMARK  Name = 
REMARK  5 active torsions:
REMARK  status: ('A' for Active; 'I' for Inactive)
REMARK    1  A    between atoms: C_1  and  C_2
REMARK    2  A    between atoms: N_4  and  C_5
REMARK    3  A    between atoms: C_8  and  C_9
REMARK    4  A    between atoms: C_9  and  S_10
REMARK    5  A    between atoms: S_10  and  C_11
REMARK                            x       y       z     vdW  Elec       q    Type
REMARK                         _______ _______ _______ _____ _____    ______ ____
ROOT
ATOM      1  C   UNL     1       5.970   6.361  17.077  0.00  0.00    +0.000 A 
ATOM      2  C   UNL     1       4.771   6.500  17.798  0.00  0.00    +0.000 A 
ATOM      3  C   UNL     1       3.826   5.480  17.810  0.00  0.00    +0.000 A 
ATOM      4  C   UNL     1       4.033   4.295  17.099  0.00  0.00    +0.000 A 
ATOM      5  C   UNL     1       5.239   4.122  16.402  0.00  0.00    +0.000 A 
ATOM      6  C   UNL     1       6.199   5.147  16.391  0.00  0.00    +0.000 A 
ENDROOT
BRANCH   1  10
ATOM      7  C   UNL     1       8.369   9.258  17.908  0.00  0.00    +0.000 C 
ATOM      8  C   UNL     1       7.857   7.843  17.948  0.00  0.00    +0.000 C 
ATOM      9  N   UNL     1       8.261   7.042  18.870  0.00  0.00    +0.000 NA
ATOM     10  N   UNL     1       6.929   7.417  16.945  0.00  0.00    +0.000 N 
ATOM     11  H   UNL     1       8.932   7.327  19.597  0.00  0.00    +0.000 HD
ATOM     12  H   UNL     1       6.868   8.005  16.098  0.00  0.00    +0.000 HD
ENDBRANCH   1  10
BRANCH   4  13
ATOM     13  C   UNL     1       2.942   3.251  17.068  0.00  0.00    +0.000 C 
BRANCH  13  14
ATOM     14  S   UNL     1       1.427   4.004  17.780  0.00  0.00    +0.000 S 
BRANCH  14  15
ATOM     15  C   UNL     1       1.128   2.779  19.065  0.00  0.00    +0.000 C 
ATOM     16  N   UNL     1       1.444   1.547  18.887  0.00  0.00    +0.000 NA
ATOM     17  N   UNL     1       0.610   3.199  20.314  0.00  0.00    +0.000 N 
ATOM     18  H   UNL     1       1.852   1.219  18.000  0.00  0.00    +0.000 HD
ATOM     19  H   UNL     1       0.396   4.194  20.477  0.00  0.00    +0.000 HD
ATOM     20  H   UNL     1       0.480   2.525  21.081  0.00  0.00    +0.000 HD
ENDBRANCH  14  15
ENDBRANCH  13  14
ENDBRANCH   4  13
TORSDOF 4
ENDMDL
MODEL 7
REMARK VINA RESULT:      -6.1      2.130      2.445
REMARK  Name = 
REMARK  5 active torsions:
REMARK  status: ('A' for Active; 'I' for Inactive)
REMARK    1  A    between atoms: C_1  and  C_2
REMARK    2  A    between atoms: N_4  and  C_5
REMARK    3  A    between atoms: C_8  and  C_9
REMARK    4  A    between atoms: C_9  and  S_10
REMARK    5  A    between atoms: S_10  and  C_11
REMARK                            x       y       z     vdW  Elec       q    Type
REMARK                         _______ _______ _______ _____ _____    ______ ____
ROOT
ATOM      1  C   UNL     1       4.937   5.706  18.087  0.00  0.00    +0.000 A 
ATOM      2  C   UNL     1       3.858   5.281  17.293  0.00  0.00    +0.000 A 
ATOM      3  C   UNL     1       3.228   4.066  17.538  0.00  0.00    +0.000 A 
ATOM      4  C   UNL     1       3.655   3.227  18.571  0.00  0.00    +0.000 A 
ATOM      5  C   UNL     1       4.707   3.649  19.399  0.00  0.00    +0.000 A 
ATOM      6  C   UNL     1       5.343   4.878  19.159  0.00  0.00    +0.000 A 
ENDROOT
BRANCH   1  10
ATOM      7  C   UNL     1       7.865   8.146  17.535  0.00  0.00    +0.000 C 
ATOM      8  C   UNL     1       6.996   6.954  17.238  0.00  0.00    +0.000 C 
ATOM      9  N   UNL     1       7.433   6.016  16.475  0.00  0.00    +0.000 NA
ATOM     10  N   UNL     1       5.687   6.895  17.815  0.00  0.00    +0.000 N 
ATOM     11  H   UNL     1       8.369   6.042  16.046  0.00  0.00    +0.000 HD
ATOM     12  H   UNL     1       5.304   7.785  18.176  0.00  0.00    +0.000 HD
ENDBRANCH   1  10
BRANCH   4  13
ATOM     13  C   UNL     1       3.000   1.877  18.746  0.00  0.00    +0.000 C 
BRANCH  13  14
ATOM     14  S   UNL     1       1.194   2.151  18.931  0.00  0.00    +0.000 S 
BRANCH  14  15
ATOM     15  C   UNL     1       1.245   3.067  20.479  0.00  0.00    +0.000 C 
ATOM     16  N   UNL     1       0.761   4.254  20.558  0.00  0.00    +0.000 NA
ATOM     17  N   UNL     1       1.756   2.437  21.640  0.00  0.00    +0.000 N 
ATOM     18  H   UNL     1       0.353   4.724  19.738  0.00  0.00    +0.000 HD
ATOM     19  H   UNL     1       2.106   1.469  21.591  0.00  0.00    +0.000 HD
ATOM     20  H   UNL     1       1.747   2.923  22.548  0.00  0.00    +0.000 HD
ENDBRANCH  14  15
ENDBRANCH  13  14
ENDBRANCH   4  13
TORSDOF 4
ENDMDL
MODEL 8
REMARK VINA RESULT:      -6.1      1.297      1.387
REMARK  Name = 
REMARK  5 active torsions:
REMARK  status: ('A' for Active; 'I' for Inactive)
REMARK    1  A    between atoms: C_1  and  C_2
REMARK    2  A    between atoms: N_4  and  C_5
REMARK    3  A    between atoms: C_8  and  C_9
REMARK    4  A    between atoms: C_9  and  S_10
REMARK    5  A    between atoms: S_10  and  C_11
REMARK                            x       y       z     vdW  Elec       q    Type
REMARK                         _______ _______ _______ _____ _____    ______ ____
ROOT
ATOM      1  C   UNL     1       4.954   6.076  17.019  0.00  0.00    +0.000 A 
ATOM      2  C   UNL     1       4.965   4.734  16.603  0.00  0.00    +0.000 A 
ATOM      3  C   UNL     1       3.932   3.871  16.951  0.00  0.00    +0.000 A 
ATOM      4  C   UNL     1       2.860   4.308  17.734  0.00  0.00    +0.000 A 
ATOM      5  C   UNL     1       2.811   5.654  18.130  0.00  0.00    +0.000 A 
ATOM      6  C   UNL     1       3.850   6.530  17.775  0.00  0.00    +0.000 A 
ENDROOT
BRANCH   1  10
ATOM      7  C   UNL     1       7.907   8.488  17.568  0.00  0.00    +0.000 C 
ATOM      8  C   UNL     1       7.181   7.171  17.620  0.00  0.00    +0.000 C 
ATOM      9  N   UNL     1       7.593   6.243  18.410  0.00  0.00    +0.000 NA
ATOM     10  N   UNL     1       6.040   6.978  16.777  0.00  0.00    +0.000 N 
ATOM     11  H   UNL     1       8.414   6.360  19.021  0.00  0.00    +0.000 HD
ATOM     12  H   UNL     1       5.937   7.637  15.988  0.00  0.00    +0.000 HD
ENDBRANCH   1  10
BRANCH   4  13
ATOM     13  C   UNL     1       1.805   3.316  18.163  0.00  0.00    +0.000 C 
BRANCH  13  14
ATOM     14  S   UNL     1       1.201   3.823  19.820  0.00  0.00    +0.000 S 
BRANCH  14  15
ATOM     15  C   UNL     1       2.453   2.983  20.803  0.00  0.00    +0.000 C 
ATOM     16  N   UNL     1       2.349   2.913  22.082  0.00  0.00    +0.000 NA
ATOM     17  N   UNL     1       3.522   2.327  20.147  0.00  0.00    +0.000 N 
ATOM     18  H   UNL     1       1.565   3.353  22.582  0.00  0.00    +0.000 HD
ATOM     19  H   UNL     1       3.586   2.343  19.119  0.00  0.00    +0.000 HD
ATOM     20  H   UNL     1       4.221   1.796  20.685  0.00  0.00    +0.000 HD
ENDBRANCH  14  15
ENDBRANCH  13  14
ENDBRANCH   4  13
TORSDOF 4
ENDMDL
MODEL 9
REMARK VINA RESULT:      -6.1      2.781      5.276
REMARK  Name = 
REMARK  5 active torsions:
REMARK  status: ('A' for Active; 'I' for Inactive)
REMARK    1  A    between atoms: C_1  and  C_2
REMARK    2  A    between atoms: N_4  and  C_5
REMARK    3  A    between atoms: C_8  and  C_9
REMARK    4  A    between atoms: C_9  and  S_10
REMARK    5  A    between atoms: S_10  and  C_11
REMARK                            x       y       z     vdW  Elec       q    Type
REMARK                         _______ _______ _______ _____ _____    ______ ____
ROOT
ATOM      1  C   UNL     1       2.769   4.567  18.395  0.00  0.00    +0.000 A 
ATOM      2  C   UNL     1       3.036   5.945  18.336  0.00  0.00    +0.000 A 
ATOM      3  C   UNL     1       4.102   6.433  17.589  0.00  0.00    +0.000 A 
ATOM      4  C   UNL     1       4.945   5.569  16.885  0.00  0.00    +0.000 A 
ATOM      5  C   UNL     1       4.674   4.192  16.902  0.00  0.00    +0.000 A 
ATOM      6  C   UNL     1       3.595   3.695  17.651  0.00  0.00    +0.000 A 
ENDROOT
BRANCH   1  10
ATOM      7  C   UNL     1       0.984   2.832  21.335  0.00  0.00    +0.000 C 
ATOM      8  C   UNL     1       1.786   3.911  20.658  0.00  0.00    +0.000 C 
ATOM      9  N   UNL     1       2.481   4.731  21.365  0.00  0.00    +0.000 NA
ATOM     10  N   UNL     1       1.750   4.003  19.230  0.00  0.00    +0.000 N 
ATOM     11  H   UNL     1       2.516   4.685  22.393  0.00  0.00    +0.000 HD
ATOM     12  H   UNL     1       0.974   3.510  18.758  0.00  0.00    +0.000 HD
ENDBRANCH   1  10
BRANCH   4  13
ATOM     13  C   UNL     1       6.143   6.134  16.159  0.00  0.00    +0.000 C 
BRANCH  13  14
ATOM     14  S   UNL     1       7.242   6.907  17.409  0.00  0.00    +0.000 S 
BRANCH  14  15
ATOM     15  C   UNL     1       7.562   5.436  18.395  0.00  0.00    +0.000 C 
ATOM     16  N   UNL     1       7.234   5.391  19.637  0.00  0.00    +0.000 NA
ATOM     17  N   UNL     1       8.110   4.290  17.771  0.00  0.00    +0.000 N 
ATOM     18  H   UNL     1       6.804   6.198  20.108  0.00  0.00    +0.000 HD
ATOM     19  H   UNL     1       8.334   4.307  16.765  0.00  0.00    +0.000 HD
ATOM     20  H   UNL     1       8.254   3.420  18.303  0.00  0.00    +0.000 HD
ENDBRANCH  14  15
ENDBRANCH  13  14
ENDBRANCH   4  13
TORSDOF 4
ENDMDL
