MODEL 1
REMARK VINA RESULT:      -7.2      0.000      0.000
REMARK  Name = 
REMARK  6 active torsions:
REMARK  status: ('A' for Active; 'I' for Inactive)
REMARK    1  A    between atoms: C_1  and  C_2
REMARK    2  A    between atoms: C_2  and  O_3
REMARK    3  A    between atoms: O_3  and  C_4
REMARK    4  A    between atoms: C_9  and  C_10
REMARK    5  A    between atoms: C_10  and  C_11
REMARK    6  A    between atoms: C_11  and  N_12
REMARK                            x       y       z     vdW  Elec       q    Type
REMARK                         _______ _______ _______ _____ _____    ______ ____
ROOT
ATOM      1  C   UNL     1       3.799   2.696  17.041  0.00  0.00    +0.000 C 
ENDROOT
BRANCH   1   2
ATOM      2  N   UNL     1       4.799   3.730  17.219  0.00  0.00    +0.000 N 
ATOM      3  C   UNL     1       5.209   4.640  16.162  0.00  0.00    +0.000 C 
ATOM      4  C   UNL     1       6.171   5.551  16.879  0.00  0.00    +0.000 A 
ATOM      5  N   UNL     1       6.769   6.642  16.360  0.00  0.00    +0.000 NA
ATOM      6  C   UNL     1       7.586   7.302  17.221  0.00  0.00    +0.000 A 
ATOM      7  C   UNL     1       7.830   6.913  18.544  0.00  0.00    +0.000 A 
ATOM      8  C   UNL     1       7.191   5.779  19.043  0.00  0.00    +0.000 A 
ATOM      9  C   UNL     1       6.354   5.110  18.179  0.00  0.00    +0.000 A 
ATOM     10  C   UNL     1       5.502   3.943  18.397  0.00  0.00    +0.000 C 
ATOM     11  O   UNL     1       5.444   3.322  19.437  0.00  0.00    +0.000 OA
ENDBRANCH   1   2
BRANCH   1  12
ATOM     12  C   UNL     1       2.370   3.213  17.204  0.00  0.00    +0.000 C 
BRANCH  12  18
ATOM     13  C   UNL     1       1.828   4.692  19.227  0.00  0.00    +0.000 A 
ATOM     14  C   UNL     1       1.472   4.799  20.579  0.00  0.00    +0.000 A 
ATOM     15  C   UNL     1       1.458   3.673  21.400  0.00  0.00    +0.000 A 
ATOM     16  C   UNL     1       1.754   2.424  20.868  0.00  0.00    +0.000 A 
ATOM     17  C   UNL     1       2.018   2.294  19.507  0.00  0.00    +0.000 A 
ATOM     18  C   UNL     1       2.035   3.422  18.664  0.00  0.00    +0.000 A 
BRANCH  13  19
ATOM     19  O   UNL     1       2.020   5.783  18.415  0.00  0.00    +0.000 OA
BRANCH  19  21
ATOM     20  C   UNL     1       3.314   7.710  17.776  0.00  0.00    +0.000 C 
ATOM     21  C   UNL     1       3.026   6.698  18.869  0.00  0.00    +0.000 C 
ENDBRANCH  19  21
ENDBRANCH  13  19
ENDBRANCH  12  18
ENDBRANCH   1  12
TORSDOF 5
ENDMDL
MODEL 2
REMARK VINA RESULT:      -6.8      0.989      2.619
REMARK  Name = 
REMARK  6 active torsions:
REMARK  status: ('A' for Active; 'I' for Inactive)
REMARK    1  A    between atoms: C_1  and  C_2
REMARK    2  A    between atoms: C_2  and  O_3
REMARK    3  A    between atoms: O_3  and  C_4
REMARK    4  A    between atoms: C_9  and  C_10
REMARK    5  A    between atoms: C_10  and  C_11
REMARK    6  A    between atoms: C_11  and  N_12
REMARK                            x       y       z     vdW  Elec       q    Type
REMARK                         _______ _______ _______ _____ _____    ______ ____
ROOT
ATOM      1  C   UNL     1       3.450   3.256  17.269  0.00  0.00    +0.000 C 
ENDROOT
BRANCH   1   2
ATOM      2  N   UNL     1       4.577   4.155  17.419  0.00  0.00    +0.000 N 
ATOM      3  C   UNL     1       5.008   5.080  16.383  0.00  0.00    +0.000 C 
ATOM      4  C   UNL     1       6.124   5.827  17.065  0.00  0.00    +0.000 A 
ATOM      5  N   UNL     1       6.805   6.875  16.560  0.00  0.00    +0.000 NA
ATOM      6  C   UNL     1       7.760   7.380  17.383  0.00  0.00    +0.000 A 
ATOM      7  C   UNL     1       8.058   6.880  18.657  0.00  0.00    +0.000 A 
ATOM      8  C   UNL     1       7.330   5.796  19.144  0.00  0.00    +0.000 A 
ATOM      9  C   UNL     1       6.354   5.284  18.319  0.00  0.00    +0.000 A 
ATOM     10  C   UNL     1       5.390   4.209  18.542  0.00  0.00    +0.000 C 
ATOM     11  O   UNL     1       5.340   3.532  19.547  0.00  0.00    +0.000 OA
ENDBRANCH   1   2
BRANCH   1  12
ATOM     12  C   UNL     1       2.103   3.976  17.291  0.00  0.00    +0.000 C 
BRANCH  12  18
ATOM     13  C   UNL     1       1.591   4.757  19.679  0.00  0.00    +0.000 A 
ATOM     14  C   UNL     1       1.636   5.765  20.651  0.00  0.00    +0.000 A 
ATOM     15  C   UNL     1       2.020   7.062  20.312  0.00  0.00    +0.000 A 
ATOM     16  C   UNL     1       2.404   7.350  19.008  0.00  0.00    +0.000 A 
ATOM     17  C   UNL     1       2.451   6.335  18.057  0.00  0.00    +0.000 A 
ATOM     18  C   UNL     1       2.068   5.020  18.385  0.00  0.00    +0.000 A 
BRANCH  13  19
ATOM     19  O   UNL     1       1.065   3.510  19.918  0.00  0.00    +0.000 OA
BRANCH  19  21
ATOM     20  C   UNL     1       1.598   2.381  21.976  0.00  0.00    +0.000 C 
ATOM     21  C   UNL     1       1.976   2.581  20.521  0.00  0.00    +0.000 C 
ENDBRANCH  19  21
ENDBRANCH  13  19
ENDBRANCH  12  18
ENDBRANCH   1  12
TORSDOF 5
ENDMDL
MODEL 3
REMARK VINA RESULT:      -6.7      2.127      3.090
REMARK  Name = 
REMARK  6 active torsions:
REMARK  status: ('A' for Active; 'I' for Inactive)
REMARK    1  A    between atoms: C_1  and  C_2
REMARK    2  A    between atoms: C_2  and  O_3
REMARK    3  A    between atoms: O_3  and  C_4
REMARK    4  A    between atoms: C_9  and  C_10
REMARK    5  A    between atoms: C_10  and  C_11
REMARK    6  A    between atoms: C_11  and  N_12
REMARK                            x       y       z     vdW  Elec       q    Type
REMARK                         _______ _______ _______ _____ _____    ______ ____
ROOT
ATOM      1  C   UNL     1       5.705   4.592  18.830  0.00  0.00    +0.000 C 
ENDROOT
BRANCH   1   2
ATOM      2  N   UNL     1       5.984   4.630  17.409  0.00  0.00    +0.000 N 
ATOM      3  C   UNL     1       7.067   5.406  16.824  0.00  0.00    +0.000 C 
ATOM      4  C   UNL     1       6.981   5.029  15.368  0.00  0.00    +0.000 A 
ATOM      5  N   UNL     1       7.835   5.408  14.397  0.00  0.00    +0.000 NA
ATOM      6  C   UNL     1       7.542   4.921  13.164  0.00  0.00    +0.000 A 
ATOM      7  C   UNL     1       6.447   4.098  12.872  0.00  0.00    +0.000 A 
ATOM      8  C   UNL     1       5.587   3.727  13.905  0.00  0.00    +0.000 A 
ATOM      9  C   UNL     1       5.883   4.210  15.160  0.00  0.00    +0.000 A 
ATOM     10  C   UNL     1       5.234   3.969  16.446  0.00  0.00    +0.000 C 
ATOM     11  O   UNL     1       4.237   3.295  16.594  0.00  0.00    +0.000 OA
ENDBRANCH   1   2
BRANCH   1  12
ATOM     12  C   UNL     1       4.646   5.605  19.259  0.00  0.00    +0.000 C 
BRANCH  12  18
ATOM     13  C   UNL     1       2.206   5.584  20.047  0.00  0.00    +0.000 A 
ATOM     14  C   UNL     1       1.082   4.857  20.464  0.00  0.00    +0.000 A 
ATOM     15  C   UNL     1       1.178   3.492  20.728  0.00  0.00    +0.000 A 
ATOM     16  C   UNL     1       2.386   2.833  20.536  0.00  0.00    +0.000 A 
ATOM     17  C   UNL     1       3.483   3.527  20.035  0.00  0.00    +0.000 A 
ATOM     18  C   UNL     1       3.403   4.906  19.761  0.00  0.00    +0.000 A 
BRANCH  13  19
ATOM     19  O   UNL     1       2.212   6.953  19.933  0.00  0.00    +0.000 OA
BRANCH  19  21
ATOM     20  C   UNL     1       0.975   8.964  20.406  0.00  0.00    +0.000 C 
ATOM     21  C   UNL     1       1.480   7.643  20.955  0.00  0.00    +0.000 C 
ENDBRANCH  19  21
ENDBRANCH  13  19
ENDBRANCH  12  18
ENDBRANCH   1  12
TORSDOF 5
ENDMDL
MODEL 4
REMARK VINA RESULT:      -6.7      1.297      1.659
REMARK  Name = 
REMARK  6 active torsions:
REMARK  status: ('A' for Active; 'I' for Inactive)
REMARK    1  A    between atoms: C_1  and  C_2
REMARK    2  A    between atoms: C_2  and  O_3
REMARK    3  A    between atoms: O_3  and  C_4
REMARK    4  A    between atoms: C_9  and  C_10
REMARK    5  A    between atoms: C_10  and  C_11
REMARK    6  A    between atoms: C_11  and  N_12
REMARK                            x       y       z     vdW  Elec       q    Type
REMARK                         _______ _______ _______ _____ _____    ______ ____
ROOT
ATOM      1  C   UNL     1       3.791   2.503  17.187  0.00  0.00    +0.000 C 
ENDROOT
BRANCH   1   2
ATOM      2  N   UNL     1       4.726   3.551  17.544  0.00  0.00    +0.000 N 
ATOM      3  C   UNL     1       5.254   3.732  18.887  0.00  0.00    +0.000 C 
ATOM      4  C   UNL     1       6.229   4.864  18.698  0.00  0.00    +0.000 A 
ATOM      5  N   UNL     1       7.062   5.360  19.634  0.00  0.00    +0.000 NA
ATOM      6  C   UNL     1       7.854   6.377  19.206  0.00  0.00    +0.000 A 
ATOM      7  C   UNL     1       7.834   6.910  17.911  0.00  0.00    +0.000 A 
ATOM      8  C   UNL     1       6.958   6.369  16.971  0.00  0.00    +0.000 A 
ATOM      9  C   UNL     1       6.159   5.332  17.396  0.00  0.00    +0.000 A 
ATOM     10  C   UNL     1       5.193   4.516  16.663  0.00  0.00    +0.000 C 
ATOM     11  O   UNL     1       4.901   4.683  15.498  0.00  0.00    +0.000 OA
ENDBRANCH   1   2
BRANCH   1  12
ATOM     12  C   UNL     1       2.332   2.944  17.293  0.00  0.00    +0.000 C 
BRANCH  12  18
ATOM     13  C   UNL     1       1.821   4.622  19.163  0.00  0.00    +0.000 A 
ATOM     14  C   UNL     1       1.444   4.867  20.491  0.00  0.00    +0.000 A 
ATOM     15  C   UNL     1       1.359   3.821  21.409  0.00  0.00    +0.000 A 
ATOM     16  C   UNL     1       1.605   2.517  20.996  0.00  0.00    +0.000 A 
ATOM     17  C   UNL     1       1.889   2.253  19.659  0.00  0.00    +0.000 A 
ATOM     18  C   UNL     1       1.978   3.299  18.720  0.00  0.00    +0.000 A 
BRANCH  13  19
ATOM     19  O   UNL     1       2.083   5.626  18.262  0.00  0.00    +0.000 OA
BRANCH  19  21
ATOM     20  C   UNL     1       2.430   8.006  18.153  0.00  0.00    +0.000 C 
ATOM     21  C   UNL     1       2.883   6.699  18.776  0.00  0.00    +0.000 C 
ENDBRANCH  19  21
ENDBRANCH  13  19
ENDBRANCH  12  18
ENDBRANCH   1  12
TORSDOF 5
ENDMDL
MODEL 5
REMARK VINA RESULT:      -6.5      2.532      3.898
REMARK  Name = 
REMARK  6 active torsions:
REMARK  status: ('A' for Active; 'I' for Inactive)
REMARK    1  A    between atoms: C_1  and  C_2
REMARK    2  A    between atoms: C_2  and  O_3
REMARK    3  A    between atoms: O_3  and  C_4
REMARK    4  A    between atoms: C_9  and  C_10
REMARK    5  A    between atoms: C_10  and  C_11
REMARK    6  A    between atoms: C_11  and  N_12
REMARK                            x       y       z     vdW  Elec       q    Type
REMARK                         _______ _______ _______ _____ _____    ______ ____
ROOT
ATOM      1  C   UNL     1       5.065   5.258  17.622  0.00  0.00    +0.000 C 
ENDROOT
BRANCH   1   2
ATOM      2  N   UNL     1       5.612   4.942  16.317  0.00  0.00    +0.000 N 
ATOM      3  C   UNL     1       5.057   3.922  15.440  0.00  0.00    +0.000 C 
ATOM      4  C   UNL     1       5.911   4.062  14.207  0.00  0.00    +0.000 A 
ATOM      5  N   UNL     1       5.744   3.400  13.045  0.00  0.00    +0.000 NA
ATOM      6  C   UNL     1       6.644   3.715  12.079  0.00  0.00    +0.000 A 
ATOM      7  C   UNL     1       7.687   4.638  12.233  0.00  0.00    +0.000 A 
ATOM      8  C   UNL     1       7.826   5.303  13.451  0.00  0.00    +0.000 A 
ATOM      9  C   UNL     1       6.911   4.995  14.432  0.00  0.00    +0.000 A 
ATOM     10  C   UNL     1       6.740   5.542  15.776  0.00  0.00    +0.000 C 
ATOM     11  O   UNL     1       7.466   6.377  16.272  0.00  0.00    +0.000 OA
ENDBRANCH   1   2
BRANCH   1  12
ATOM     12  C   UNL     1       3.685   5.907  17.550  0.00  0.00    +0.000 C 
BRANCH  12  18
ATOM     13  C   UNL     1       2.079   4.146  18.497  0.00  0.00    +0.000 A 
ATOM     14  C   UNL     1       1.292   3.682  19.560  0.00  0.00    +0.000 A 
ATOM     15  C   UNL     1       1.083   4.476  20.687  0.00  0.00    +0.000 A 
ATOM     16  C   UNL     1       1.695   5.721  20.780  0.00  0.00    +0.000 A 
ATOM     17  C   UNL     1       2.552   6.150  19.770  0.00  0.00    +0.000 A 
ATOM     18  C   UNL     1       2.774   5.359  18.626  0.00  0.00    +0.000 A 
BRANCH  13  19
ATOM     19  O   UNL     1       2.184   3.482  17.298  0.00  0.00    +0.000 OA
BRANCH  19  21
ATOM     20  C   UNL     1       3.730   1.877  18.210  0.00  0.00    +0.000 C 
ATOM     21  C   UNL     1       2.455   2.079  17.412  0.00  0.00    +0.000 C 
ENDBRANCH  19  21
ENDBRANCH  13  19
ENDBRANCH  12  18
ENDBRANCH   1  12
TORSDOF 5
ENDMDL
MODEL 6
REMARK VINA RESULT:      -6.5      1.684      3.053
REMARK  Name = 
REMARK  6 active torsions:
REMARK  status: ('A' for Active; 'I' for Inactive)
REMARK    1  A    between atoms: C_1  and  C_2
REMARK    2  A    between atoms: C_2  and  O_3
REMARK    3  A    between atoms: O_3  and  C_4
REMARK    4  A    between atoms: C_9  and  C_10
REMARK    5  A    between atoms: C_10  and  C_11
REMARK    6  A    between atoms: C_11  and  N_12
REMARK                            x       y       z     vdW  Elec       q    Type
REMARK                         _______ _______ _______ _____ _____    ______ ____
ROOT
ATOM      1  C   UNL     1       3.399   3.133  17.480  0.00  0.00    +0.000 C 
ENDROOT
BRANCH   1   2
ATOM      2  N   UNL     1       4.496   4.015  17.826  0.00  0.00    +0.000 N 
ATOM      3  C   UNL     1       5.112   4.053  19.143  0.00  0.00    +0.000 C 
ATOM      4  C   UNL     1       6.233   5.039  18.945  0.00  0.00    +0.000 A 
ATOM      5  N   UNL     1       7.176   5.363  19.851  0.00  0.00    +0.000 NA
ATOM      6  C   UNL     1       8.086   6.274  19.421  0.00  0.00    +0.000 A 
ATOM      7  C   UNL     1       8.079   6.867  18.152  0.00  0.00    +0.000 A 
ATOM      8  C   UNL     1       7.087   6.505  17.242  0.00  0.00    +0.000 A 
ATOM      9  C   UNL     1       6.166   5.575  17.669  0.00  0.00    +0.000 A 
ATOM     10  C   UNL     1       5.055   4.945  16.960  0.00  0.00    +0.000 C 
ATOM     11  O   UNL     1       4.732   5.209  15.821  0.00  0.00    +0.000 OA
ENDBRANCH   1   2
BRANCH   1  12
ATOM     12  C   UNL     1       2.045   3.840  17.471  0.00  0.00    +0.000 C 
BRANCH  12  18
ATOM     13  C   UNL     1       1.538   4.670  19.844  0.00  0.00    +0.000 A 
ATOM     14  C   UNL     1       1.562   5.707  20.786  0.00  0.00    +0.000 A 
ATOM     15  C   UNL     1       1.897   7.005  20.406  0.00  0.00    +0.000 A 
ATOM     16  C   UNL     1       2.254   7.270  19.089  0.00  0.00    +0.000 A 
ATOM     17  C   UNL     1       2.322   6.229  18.166  0.00  0.00    +0.000 A 
ATOM     18  C   UNL     1       1.989   4.912  18.535  0.00  0.00    +0.000 A 
BRANCH  13  19
ATOM     19  O   UNL     1       1.058   3.413  20.124  0.00  0.00    +0.000 OA
BRANCH  19  21
ATOM     20  C   UNL     1       2.774   2.404  21.479  0.00  0.00    +0.000 C 
ATOM     21  C   UNL     1       1.355   2.939  21.444  0.00  0.00    +0.000 C 
ENDBRANCH  19  21
ENDBRANCH  13  19
ENDBRANCH  12  18
ENDBRANCH   1  12
TORSDOF 5
ENDMDL
MODEL 7
REMARK VINA RESULT:      -6.5      1.856      5.844
REMARK  Name = 
REMARK  6 active torsions:
REMARK  status: ('A' for Active; 'I' for Inactive)
REMARK    1  A    between atoms: C_1  and  C_2
REMARK    2  A    between atoms: C_2  and  O_3
REMARK    3  A    between atoms: O_3  and  C_4
REMARK    4  A    between atoms: C_9  and  C_10
REMARK    5  A    between atoms: C_10  and  C_11
REMARK    6  A    between atoms: C_11  and  N_12
REMARK                            x       y       z     vdW  Elec       q    Type
REMARK                         _______ _______ _______ _____ _____    ______ ____
ROOT
ATOM      1  C   UNL     1       2.981   6.883  17.444  0.00  0.00    +0.000 C 
ENDROOT
BRANCH   1   2
ATOM      2  N   UNL     1       2.682   5.839  18.404  0.00  0.00    +0.000 N 
ATOM      3  C   UNL     1       3.198   5.827  19.764  0.00  0.00    +0.000 C 
ATOM      4  C   UNL     1       2.525   4.613  20.350  0.00  0.00    +0.000 A 
ATOM      5  N   UNL     1       2.596   4.207  21.633  0.00  0.00    +0.000 NA
ATOM      6  C   UNL     1       1.886   3.084  21.912  0.00  0.00    +0.000 A 
ATOM      7  C   UNL     1       1.136   2.364  20.974  0.00  0.00    +0.000 A 
ATOM      8  C   UNL     1       1.087   2.816  19.656  0.00  0.00    +0.000 A 
ATOM      9  C   UNL     1       1.797   3.960  19.369  0.00  0.00    +0.000 A 
ATOM     10  C   UNL     1       1.908   4.721  18.126  0.00  0.00    +0.000 C 
ATOM     11  O   UNL     1       1.388   4.400  17.079  0.00  0.00    +0.000 OA
ENDBRANCH   1   2
BRANCH   1  12
ATOM     12  C   UNL     1       4.464   7.246  17.398  0.00  0.00    +0.000 C 
BRANCH  12  18
ATOM     13  C   UNL     1       6.225   5.382  17.435  0.00  0.00    +0.000 A 
ATOM     14  C   UNL     1       6.895   4.346  16.769  0.00  0.00    +0.000 A 
ATOM     15  C   UNL     1       6.722   4.154  15.399  0.00  0.00    +0.000 A 
ATOM     16  C   UNL     1       5.845   4.967  14.692  0.00  0.00    +0.000 A 
ATOM     17  C   UNL     1       5.106   5.939  15.361  0.00  0.00    +0.000 A 
ATOM     18  C   UNL     1       5.268   6.144  16.744  0.00  0.00    +0.000 A 
BRANCH  13  19
ATOM     19  O   UNL     1       6.482   5.722  18.741  0.00  0.00    +0.000 OA
BRANCH  19  21
ATOM     20  C   UNL     1       8.151   7.424  18.399  0.00  0.00    +0.000 C 
ATOM     21  C   UNL     1       7.846   6.070  19.012  0.00  0.00    +0.000 C 
ENDBRANCH  19  21
ENDBRANCH  13  19
ENDBRANCH  12  18
ENDBRANCH   1  12
TORSDOF 5
ENDMDL
MODEL 8
REMARK VINA RESULT:      -6.5      2.592      4.193
REMARK  Name = 
REMARK  6 active torsions:
REMARK  status: ('A' for Active; 'I' for Inactive)
REMARK    1  A    between atoms: C_1  and  C_2
REMARK    2  A    between atoms: C_2  and  O_3
REMARK    3  A    between atoms: O_3  and  C_4
REMARK    4  A    between atoms: C_9  and  C_10
REMARK    5  A    between atoms: C_10  and  C_11
REMARK    6  A    between atoms: C_11  and  N_12
REMARK                            x       y       z     vdW  Elec       q    Type
REMARK                         _______ _______ _______ _____ _____    ______ ____
ROOT
ATOM      1  C   UNL     1       5.494   4.779  17.757  0.00  0.00    +0.000 C 
ENDROOT
BRANCH   1   2
ATOM      2  N   UNL     1       5.950   4.623  16.391  0.00  0.00    +0.000 N 
ATOM      3  C   UNL     1       5.466   3.583  15.496  0.00  0.00    +0.000 C 
ATOM      4  C   UNL     1       6.166   3.920  14.205  0.00  0.00    +0.000 A 
ATOM      5  N   UNL     1       5.983   3.307  13.019  0.00  0.00    +0.000 NA
ATOM      6  C   UNL     1       6.730   3.808  12.002  0.00  0.00    +0.000 A 
ATOM      7  C   UNL     1       7.638   4.867  12.128  0.00  0.00    +0.000 A 
ATOM      8  C   UNL     1       7.798   5.476  13.372  0.00  0.00    +0.000 A 
ATOM      9  C   UNL     1       7.037   4.978  14.406  0.00  0.00    +0.000 A 
ATOM     10  C   UNL     1       6.921   5.417  15.795  0.00  0.00    +0.000 C 
ATOM     11  O   UNL     1       7.564   6.322  16.283  0.00  0.00    +0.000 OA
ENDBRANCH   1   2
BRANCH   1  12
ATOM     12  C   UNL     1       3.999   4.515  17.922  0.00  0.00    +0.000 C 
BRANCH  12  18
ATOM     13  C   UNL     1       2.655   5.738  19.732  0.00  0.00    +0.000 A 
ATOM     14  C   UNL     1       2.066   6.920  20.201  0.00  0.00    +0.000 A 
ATOM     15  C   UNL     1       1.988   8.047  19.384  0.00  0.00    +0.000 A 
ATOM     16  C   UNL     1       2.537   8.015  18.108  0.00  0.00    +0.000 A 
ATOM     17  C   UNL     1       3.206   6.877  17.667  0.00  0.00    +0.000 A 
ATOM     18  C   UNL     1       3.294   5.731  18.481  0.00  0.00    +0.000 A 
BRANCH  13  19
ATOM     19  O   UNL     1       2.612   4.553  20.426  0.00  0.00    +0.000 OA
BRANCH  19  21
ATOM     20  C   UNL     1       0.806   3.177  19.624  0.00  0.00    +0.000 C 
ATOM     21  C   UNL     1       1.292   4.088  20.736  0.00  0.00    +0.000 C 
ENDBRANCH  19  21
ENDBRANCH  13  19
ENDBRANCH  12  18
ENDBRANCH   1  12
TORSDOF 5
ENDMDL
MODEL 9
REMARK VINA RESULT:      -6.5      1.445      1.907
REMARK  Name = 
REMARK  6 active torsions:
REMARK  status: ('A' for Active; 'I' for Inactive)
REMARK    1  A    between atoms: C_1  and  C_2
REMARK    2  A    between atoms: C_2  and  O_3
REMARK    3  A    between atoms: O_3  and  C_4
REMARK    4  A    between atoms: C_9  and  C_10
REMARK    5  A    between atoms: C_10  and  C_11
REMARK    6  A    between atoms: C_11  and  N_12
REMARK                            x       y       z     vdW  Elec       q    Type
REMARK                         _______ _______ _______ _____ _____    ______ ____
ROOT
ATOM      1  C   UNL     1       3.427   3.910  16.968  0.00  0.00    +0.000 C 
ENDROOT
BRANCH   1   2
ATOM      2  N   UNL     1       4.572   4.643  17.469  0.00  0.00    +0.000 N 
ATOM      3  C   UNL     1       5.395   4.187  18.578  0.00  0.00    +0.000 C 
ATOM      4  C   UNL     1       6.477   5.234  18.627  0.00  0.00    +0.000 A 
ATOM      5  N   UNL     1       7.558   5.224  19.431  0.00  0.00    +0.000 NA
ATOM      6  C   UNL     1       8.392   6.283  19.272  0.00  0.00    +0.000 A 
ATOM      7  C   UNL     1       8.183   7.332  18.368  0.00  0.00    +0.000 A 
ATOM      8  C   UNL     1       7.052   7.306  17.553  0.00  0.00    +0.000 A 
ATOM      9  C   UNL     1       6.206   6.231  17.703  0.00  0.00    +0.000 A 
ATOM     10  C   UNL     1       4.989   5.873  16.978  0.00  0.00    +0.000 C 
ATOM     11  O   UNL     1       4.487   6.551  16.107  0.00  0.00    +0.000 OA
ENDBRANCH   1   2
BRANCH   1  12
ATOM     12  C   UNL     1       2.099   4.427  17.520  0.00  0.00    +0.000 C 
BRANCH  12  18
ATOM     13  C   UNL     1       2.305   4.963  20.019  0.00  0.00    +0.000 A 
ATOM     14  C   UNL     1       2.093   4.586  21.352  0.00  0.00    +0.000 A 
ATOM     15  C   UNL     1       1.666   3.297  21.666  0.00  0.00    +0.000 A 
ATOM     16  C   UNL     1       1.404   2.388  20.648  0.00  0.00    +0.000 A 
ATOM     17  C   UNL     1       1.523   2.782  19.318  0.00  0.00    +0.000 A 
ATOM     18  C   UNL     1       1.952   4.081  18.985  0.00  0.00    +0.000 A 
BRANCH  13  19
ATOM     19  O   UNL     1       2.881   6.158  19.662  0.00  0.00    +0.000 OA
BRANCH  19  21
ATOM     20  C   UNL     1       2.222   8.178  18.528  0.00  0.00    +0.000 C 
ATOM     21  C   UNL     1       2.008   7.292  19.741  0.00  0.00    +0.000 C 
ENDBRANCH  19  21
ENDBRANCH  13  19
ENDBRANCH  12  18
ENDBRANCH   1  12
TORSDOF 5
ENDMDL
