MODEL 1
REMARK VINA RESULT:      -7.8      0.000      0.000
REMARK  Name = 
REMARK  9 active torsions:
REMARK  status: ('A' for Active; 'I' for Inactive)
REMARK    1  A    between atoms: C_1  and  C_2
REMARK    2  A    between atoms: C_2  and  C_3
REMARK    3  A    between atoms: C_2  and  C_4
REMARK    4  A    between atoms: N_6  and  C_7
REMARK    5  A    between atoms: C_11  and  N_12
REMARK    6  A    between atoms: N_15  and  C_16
REMARK    7  A    between atoms: C_16  and  C_17
REMARK    8  A    between atoms: C_17  and  C_18
REMARK    9  A    between atoms: C_18  and  N_19
REMARK                            x       y       z     vdW  Elec       q    Type
REMARK                         _______ _______ _______ _____ _____    ______ ____
ROOT
ATOM      1  N   UNL     1       0.411   9.455  20.626  0.00  0.00    +0.000 N 
ATOM      2  C   UNL     1      -0.211   8.831  21.785  0.00  0.00    +0.000 C 
ATOM      3  C   UNL     1       0.168   9.657  23.026  0.00  0.00    +0.000 C 
ATOM      4  N   UNL     1      -0.241  11.073  22.873  0.00  0.00    +0.000 NA
ATOM      5  C   UNL     1       0.444  11.662  21.692  0.00  0.00    +0.000 C 
ATOM      6  C   UNL     1       0.119  10.871  20.414  0.00  0.00    +0.000 C 
ENDROOT
BRANCH   1  11
ATOM      7  C   UNL     1       2.599   6.745  19.215  0.00  0.00    +0.000 A 
ATOM      8  C   UNL     1       2.976   7.319  17.997  0.00  0.00    +0.000 A 
ATOM      9  C   UNL     1       2.468   8.566  17.624  0.00  0.00    +0.000 A 
ATOM     10  C   UNL     1       1.601   9.250  18.473  0.00  0.00    +0.000 A 
ATOM     11  C   UNL     1       1.224   8.701  19.718  0.00  0.00    +0.000 A 
ATOM     12  C   UNL     1       1.714   7.422  20.063  0.00  0.00    +0.000 A 
BRANCH   7  15
ATOM     13  C   UNL     1       2.446   4.304  19.321  0.00  0.00    +0.000 C 
ATOM     14  O   UNL     1       1.428   4.311  18.644  0.00  0.00    +0.000 OA
ATOM     15  N   UNL     1       3.090   5.468  19.618  0.00  0.00    +0.000 N 
ATOM     16  H   UNL     1       4.018   5.435  20.060  0.00  0.00    +0.000 HD
BRANCH  13  18
ATOM     17  C   UNL     1       2.401   1.793  18.977  0.00  0.00    +0.000 C 
ATOM     18  C   UNL     1       3.000   2.966  19.768  0.00  0.00    +0.000 C 
ATOM     19  C   UNL     1       4.524   2.977  19.663  0.00  0.00    +0.000 C 
ENDBRANCH  13  18
ENDBRANCH   7  15
ENDBRANCH   1  11
BRANCH   4  20
ATOM     20  C   UNL     1      -1.711  11.292  22.830  0.00  0.00    +0.000 C 
BRANCH  20  21
ATOM     21  C   UNL     1      -2.143  12.674  23.356  0.00  0.00    +0.000 C 
BRANCH  21  22
ATOM     22  C   UNL     1      -2.699  13.515  22.203  0.00  0.00    +0.000 C 
BRANCH  22  23
ATOM     23  N   UNL     1      -3.898  12.952  21.585  0.00  0.00    +0.000 N 
ATOM     24  C   UNL     1      -5.107  12.903  22.413  0.00  0.00    +0.000 C 
ATOM     25  C   UNL     1      -6.305  12.301  21.739  0.00  0.00    +0.000 C 
ATOM     26  O   UNL     1      -7.310  12.087  22.400  0.00  0.00    +0.000 OA
ATOM     27  N   UNL     1      -6.267  11.951  20.435  0.00  0.00    +0.000 N 
ATOM     28  C   UNL     1      -7.352  11.331  19.715  0.00  0.00    +0.000 C 
ATOM     29  C   UNL     1      -6.730  10.874  18.387  0.00  0.00    +0.000 C 
ATOM     30  C   UNL     1      -5.257  11.330  18.420  0.00  0.00    +0.000 C 
ATOM     31  C   UNL     1      -5.208  12.336  19.556  0.00  0.00    +0.000 C 
ATOM     32  C   UNL     1      -3.905  12.601  20.259  0.00  0.00    +0.000 C 
ATOM     33  O   UNL     1      -2.884  12.679  19.588  0.00  0.00    +0.000 OA
ENDBRANCH  22  23
ENDBRANCH  21  22
ENDBRANCH  20  21
ENDBRANCH   4  20
TORSDOF 7
ENDMDL
MODEL 2
REMARK VINA RESULT:      -7.3      2.380      3.812
REMARK  Name = 
REMARK  9 active torsions:
REMARK  status: ('A' for Active; 'I' for Inactive)
REMARK    1  A    between atoms: C_1  and  C_2
REMARK    2  A    between atoms: C_2  and  C_3
REMARK    3  A    between atoms: C_2  and  C_4
REMARK    4  A    between atoms: N_6  and  C_7
REMARK    5  A    between atoms: C_11  and  N_12
REMARK    6  A    between atoms: N_15  and  C_16
REMARK    7  A    between atoms: C_16  and  C_17
REMARK    8  A    between atoms: C_17  and  C_18
REMARK    9  A    between atoms: C_18  and  N_19
REMARK                            x       y       z     vdW  Elec       q    Type
REMARK                         _______ _______ _______ _____ _____    ______ ____
ROOT
ATOM      1  N   UNL     1       1.873   7.762  20.204  0.00  0.00    +0.000 N 
ATOM      2  C   UNL     1       1.915   8.672  19.069  0.00  0.00    +0.000 C 
ATOM      3  C   UNL     1       0.512   9.279  18.896  0.00  0.00    +0.000 C 
ATOM      4  N   UNL     1       0.065   9.959  20.134  0.00  0.00    +0.000 NA
ATOM      5  C   UNL     1       0.017   8.976  21.250  0.00  0.00    +0.000 C 
ATOM      6  C   UNL     1       1.390   8.318  21.467  0.00  0.00    +0.000 C 
ENDROOT
BRANCH   1  11
ATOM      7  C   UNL     1       3.826   4.739  19.125  0.00  0.00    +0.000 A 
ATOM      8  C   UNL     1       3.092   3.719  19.738  0.00  0.00    +0.000 A 
ATOM      9  C   UNL     1       1.995   4.033  20.543  0.00  0.00    +0.000 A 
ATOM     10  C   UNL     1       1.617   5.362  20.721  0.00  0.00    +0.000 A 
ATOM     11  C   UNL     1       2.328   6.408  20.094  0.00  0.00    +0.000 A 
ATOM     12  C   UNL     1       3.459   6.077  19.316  0.00  0.00    +0.000 A 
BRANCH   7  15
ATOM     13  C   UNL     1       4.853   4.141  16.984  0.00  0.00    +0.000 C 
ATOM     14  O   UNL     1       3.764   4.147  16.429  0.00  0.00    +0.000 OA
ATOM     15  N   UNL     1       4.959   4.451  18.307  0.00  0.00    +0.000 N 
ATOM     16  H   UNL     1       5.890   4.585  18.724  0.00  0.00    +0.000 HD
BRANCH  13  18
ATOM     17  C   UNL     1       5.855   4.119  14.656  0.00  0.00    +0.000 C 
ATOM     18  C   UNL     1       6.082   3.841  16.149  0.00  0.00    +0.000 C 
ATOM     19  C   UNL     1       7.274   4.636  16.680  0.00  0.00    +0.000 C 
ENDBRANCH  13  18
ENDBRANCH   7  15
ENDBRANCH   1  11
BRANCH   4  20
ATOM     20  C   UNL     1       0.850  11.169  20.494  0.00  0.00    +0.000 C 
BRANCH  20  21
ATOM     21  C   UNL     1       0.910  12.220  19.369  0.00  0.00    +0.000 C 
BRANCH  21  22
ATOM     22  C   UNL     1      -0.237  13.222  19.536  0.00  0.00    +0.000 C 
BRANCH  22  23
ATOM     23  N   UNL     1      -1.532  12.720  19.082  0.00  0.00    +0.000 N 
ATOM     24  C   UNL     1      -1.555  12.024  17.790  0.00  0.00    +0.000 C 
ATOM     25  C   UNL     1      -2.909  11.544  17.361  0.00  0.00    +0.000 C 
ATOM     26  O   UNL     1      -3.045  11.086  16.236  0.00  0.00    +0.000 OA
ATOM     27  N   UNL     1      -3.980  11.657  18.177  0.00  0.00    +0.000 N 
ATOM     28  C   UNL     1      -5.325  11.262  17.836  0.00  0.00    +0.000 C 
ATOM     29  C   UNL     1      -6.201  11.852  18.952  0.00  0.00    +0.000 C 
ATOM     30  C   UNL     1      -5.237  12.545  19.937  0.00  0.00    +0.000 C 
ATOM     31  C   UNL     1      -3.871  12.003  19.560  0.00  0.00    +0.000 C 
ATOM     32  C   UNL     1      -2.638  12.800  19.888  0.00  0.00    +0.000 C 
ATOM     33  O   UNL     1      -2.579  13.364  20.973  0.00  0.00    +0.000 OA
ENDBRANCH  22  23
ENDBRANCH  21  22
ENDBRANCH  20  21
ENDBRANCH   4  20
TORSDOF 7
ENDMDL
MODEL 3
REMARK VINA RESULT:      -7.3      2.095      3.157
REMARK  Name = 
REMARK  9 active torsions:
REMARK  status: ('A' for Active; 'I' for Inactive)
REMARK    1  A    between atoms: C_1  and  C_2
REMARK    2  A    between atoms: C_2  and  C_3
REMARK    3  A    between atoms: C_2  and  C_4
REMARK    4  A    between atoms: N_6  and  C_7
REMARK    5  A    between atoms: C_11  and  N_12
REMARK    6  A    between atoms: N_15  and  C_16
REMARK    7  A    between atoms: C_16  and  C_17
REMARK    8  A    between atoms: C_17  and  C_18
REMARK    9  A    between atoms: C_18  and  N_19
REMARK                            x       y       z     vdW  Elec       q    Type
REMARK                         _______ _______ _______ _____ _____    ______ ____
ROOT
ATOM      1  N   UNL     1       1.630   8.055  20.137  0.00  0.00    +0.000 N 
ATOM      2  C   UNL     1       1.741   9.054  19.083  0.00  0.00    +0.000 C 
ATOM      3  C   UNL     1       0.365   9.721  18.916  0.00  0.00    +0.000 C 
ATOM      4  N   UNL     1      -0.104  10.311  20.191  0.00  0.00    +0.000 NA
ATOM      5  C   UNL     1      -0.223   9.242  21.218  0.00  0.00    +0.000 C 
ATOM      6  C   UNL     1       1.120   8.522  21.424  0.00  0.00    +0.000 C 
ENDROOT
BRANCH   1  11
ATOM      7  C   UNL     1       3.173   5.003  18.580  0.00  0.00    +0.000 A 
ATOM      8  C   UNL     1       2.695   4.003  19.432  0.00  0.00    +0.000 A 
ATOM      9  C   UNL     1       1.913   4.342  20.539  0.00  0.00    +0.000 A 
ATOM     10  C   UNL     1       1.593   5.674  20.787  0.00  0.00    +0.000 A 
ATOM     11  C   UNL     1       2.046   6.700  19.929  0.00  0.00    +0.000 A 
ATOM     12  C   UNL     1       2.867   6.346  18.836  0.00  0.00    +0.000 A 
BRANCH   7  15
ATOM     13  C   UNL     1       5.299   4.345  17.557  0.00  0.00    +0.000 C 
ATOM     14  O   UNL     1       5.826   4.243  18.655  0.00  0.00    +0.000 OA
ATOM     15  N   UNL     1       3.984   4.691  17.449  0.00  0.00    +0.000 N 
ATOM     16  H   UNL     1       3.518   4.630  16.534  0.00  0.00    +0.000 HD
BRANCH  13  18
ATOM     17  C   UNL     1       5.422   4.425  15.026  0.00  0.00    +0.000 C 
ATOM     18  C   UNL     1       6.126   4.020  16.330  0.00  0.00    +0.000 C 
ATOM     19  C   UNL     1       7.498   4.684  16.441  0.00  0.00    +0.000 C 
ENDBRANCH  13  18
ENDBRANCH   7  15
ENDBRANCH   1  11
BRANCH   4  20
ATOM     20  C   UNL     1       0.706  11.460  20.676  0.00  0.00    +0.000 C 
BRANCH  20  21
ATOM     21  C   UNL     1      -0.090  12.449  21.548  0.00  0.00    +0.000 C 
BRANCH  21  22
ATOM     22  C   UNL     1      -1.087  13.220  20.677  0.00  0.00    +0.000 C 
BRANCH  22  23
ATOM     23  N   UNL     1      -2.473  13.113  21.128  0.00  0.00    +0.000 N 
ATOM     24  C   UNL     1      -2.775  13.634  22.465  0.00  0.00    +0.000 C 
ATOM     25  C   UNL     1      -4.207  13.484  22.887  0.00  0.00    +0.000 C 
ATOM     26  O   UNL     1      -4.515  13.756  24.038  0.00  0.00    +0.000 OA
ATOM     27  N   UNL     1      -5.139  13.010  22.033  0.00  0.00    +0.000 N 
ATOM     28  C   UNL     1      -6.528  12.794  22.362  0.00  0.00    +0.000 C 
ATOM     29  C   UNL     1      -7.089  11.989  21.180  0.00  0.00    +0.000 C 
ATOM     30  C   UNL     1      -5.929  11.828  20.177  0.00  0.00    +0.000 C 
ATOM     31  C   UNL     1      -4.902  12.848  20.633  0.00  0.00    +0.000 C 
ATOM     32  C   UNL     1      -3.452  12.652  20.284  0.00  0.00    +0.000 C 
ATOM     33  O   UNL     1      -3.170  12.249  19.163  0.00  0.00    +0.000 OA
ENDBRANCH  22  23
ENDBRANCH  21  22
ENDBRANCH  20  21
ENDBRANCH   4  20
TORSDOF 7
ENDMDL
MODEL 4
REMARK VINA RESULT:      -7.3      2.246      3.412
REMARK  Name = 
REMARK  9 active torsions:
REMARK  status: ('A' for Active; 'I' for Inactive)
REMARK    1  A    between atoms: C_1  and  C_2
REMARK    2  A    between atoms: C_2  and  C_3
REMARK    3  A    between atoms: C_2  and  C_4
REMARK    4  A    between atoms: N_6  and  C_7
REMARK    5  A    between atoms: C_11  and  N_12
REMARK    6  A    between atoms: N_15  and  C_16
REMARK    7  A    between atoms: C_16  and  C_17
REMARK    8  A    between atoms: C_17  and  C_18
REMARK    9  A    between atoms: C_18  and  N_19
REMARK                            x       y       z     vdW  Elec       q    Type
REMARK                         _______ _______ _______ _____ _____    ______ ____
ROOT
ATOM      1  N   UNL     1       1.457   8.410  19.387  0.00  0.00    +0.000 N 
ATOM      2  C   UNL     1       0.613   8.978  20.428  0.00  0.00    +0.000 C 
ATOM      3  C   UNL     1       1.055  10.433  20.655  0.00  0.00    +0.000 C 
ATOM      4  N   UNL     1       0.988  11.217  19.399  0.00  0.00    +0.000 NA
ATOM      5  C   UNL     1       1.888  10.605  18.385  0.00  0.00    +0.000 C 
ATOM      6  C   UNL     1       1.508   9.139  18.121  0.00  0.00    +0.000 C 
ENDROOT
BRANCH   1  11
ATOM      7  C   UNL     1       3.827   5.540  18.871  0.00  0.00    +0.000 A 
ATOM      8  C   UNL     1       3.396   4.661  19.869  0.00  0.00    +0.000 A 
ATOM      9  C   UNL     1       2.367   5.036  20.737  0.00  0.00    +0.000 A 
ATOM     10  C   UNL     1       1.755   6.280  20.597  0.00  0.00    +0.000 A 
ATOM     11  C   UNL     1       2.158   7.175  19.583  0.00  0.00    +0.000 A 
ATOM     12  C   UNL     1       3.225   6.798  18.740  0.00  0.00    +0.000 A 
BRANCH   7  15
ATOM     13  C   UNL     1       4.716   4.319  16.944  0.00  0.00    +0.000 C 
ATOM     14  O   UNL     1       3.618   3.833  16.711  0.00  0.00    +0.000 OA
ATOM     15  N   UNL     1       4.883   5.191  17.979  0.00  0.00    +0.000 N 
ATOM     16  H   UNL     1       5.771   5.701  18.073  0.00  0.00    +0.000 HD
BRANCH  13  18
ATOM     17  C   UNL     1       5.616   4.451  14.578  0.00  0.00    +0.000 C 
ATOM     18  C   UNL     1       5.864   3.973  16.017  0.00  0.00    +0.000 C 
ATOM     19  C   UNL     1       7.166   4.550  16.570  0.00  0.00    +0.000 C 
ENDBRANCH  13  18
ENDBRANCH   7  15
ENDBRANCH   1  11
BRANCH   4  20
ATOM     20  C   UNL     1      -0.386  11.422  18.870  0.00  0.00    +0.000 C 
BRANCH  20  21
ATOM     21  C   UNL     1      -1.156  12.552  19.580  0.00  0.00    +0.000 C 
BRANCH  21  22
ATOM     22  C   UNL     1      -2.653  12.426  19.280  0.00  0.00    +0.000 C 
BRANCH  22  23
ATOM     23  N   UNL     1      -3.504  12.522  20.464  0.00  0.00    +0.000 N 
ATOM     24  C   UNL     1      -2.825  12.687  21.754  0.00  0.00    +0.000 C 
ATOM     25  C   UNL     1      -3.742  12.763  22.939  0.00  0.00    +0.000 C 
ATOM     26  O   UNL     1      -3.259  12.753  24.061  0.00  0.00    +0.000 OA
ATOM     27  N   UNL     1      -5.083  12.791  22.782  0.00  0.00    +0.000 N 
ATOM     28  C   UNL     1      -6.040  12.822  23.861  0.00  0.00    +0.000 C 
ATOM     29  C   UNL     1      -7.395  12.552  23.188  0.00  0.00    +0.000 C 
ATOM     30  C   UNL     1      -7.111  12.422  21.678  0.00  0.00    +0.000 C 
ATOM     31  C   UNL     1      -5.714  12.993  21.516  0.00  0.00    +0.000 C 
ATOM     32  C   UNL     1      -4.869  12.571  20.345  0.00  0.00    +0.000 C 
ATOM     33  O   UNL     1      -5.404  12.457  19.249  0.00  0.00    +0.000 OA
ENDBRANCH  22  23
ENDBRANCH  21  22
ENDBRANCH  20  21
ENDBRANCH   4  20
TORSDOF 7
ENDMDL
MODEL 5
REMARK VINA RESULT:      -7.2      1.401      1.983
REMARK  Name = 
REMARK  9 active torsions:
REMARK  status: ('A' for Active; 'I' for Inactive)
REMARK    1  A    between atoms: C_1  and  C_2
REMARK    2  A    between atoms: C_2  and  C_3
REMARK    3  A    between atoms: C_2  and  C_4
REMARK    4  A    between atoms: N_6  and  C_7
REMARK    5  A    between atoms: C_11  and  N_12
REMARK    6  A    between atoms: N_15  and  C_16
REMARK    7  A    between atoms: C_16  and  C_17
REMARK    8  A    between atoms: C_17  and  C_18
REMARK    9  A    between atoms: C_18  and  N_19
REMARK                            x       y       z     vdW  Elec       q    Type
REMARK                         _______ _______ _______ _____ _____    ______ ____
ROOT
ATOM      1  N   UNL     1       1.467   8.825  19.772  0.00  0.00    +0.000 N 
ATOM      2  C   UNL     1       0.919  10.087  19.295  0.00  0.00    +0.000 C 
ATOM      3  C   UNL     1      -0.580  10.110  19.634  0.00  0.00    +0.000 C 
ATOM      4  N   UNL     1      -0.805   9.923  21.087  0.00  0.00    +0.000 NA
ATOM      5  C   UNL     1      -0.250   8.609  21.509  0.00  0.00    +0.000 C 
ATOM      6  C   UNL     1       1.250   8.513  21.183  0.00  0.00    +0.000 C 
ENDROOT
BRANCH   1  11
ATOM      7  C   UNL     1       3.052   5.743  18.319  0.00  0.00    +0.000 A 
ATOM      8  C   UNL     1       3.854   6.306  17.321  0.00  0.00    +0.000 A 
ATOM      9  C   UNL     1       3.829   7.685  17.097  0.00  0.00    +0.000 A 
ATOM     10  C   UNL     1       3.021   8.505  17.881  0.00  0.00    +0.000 A 
ATOM     11  C   UNL     1       2.219   7.963  18.909  0.00  0.00    +0.000 A 
ATOM     12  C   UNL     1       2.225   6.563  19.096  0.00  0.00    +0.000 A 
BRANCH   7  15
ATOM     13  C   UNL     1       2.099   3.504  18.044  0.00  0.00    +0.000 C 
ATOM     14  O   UNL     1       1.232   3.936  17.297  0.00  0.00    +0.000 OA
ATOM     15  N   UNL     1       3.046   4.338  18.562  0.00  0.00    +0.000 N 
ATOM     16  H   UNL     1       3.849   3.941  19.066  0.00  0.00    +0.000 HD
BRANCH  13  18
ATOM     17  C   UNL     1       3.557   1.479  18.483  0.00  0.00    +0.000 C 
ATOM     18  C   UNL     1       2.127   2.016  18.326  0.00  0.00    +0.000 C 
ATOM     19  C   UNL     1       1.287   1.709  19.565  0.00  0.00    +0.000 C 
ENDBRANCH  13  18
ENDBRANCH   7  15
ENDBRANCH   1  11
BRANCH   4  20
ATOM     20  C   UNL     1      -0.309  11.035  21.939  0.00  0.00    +0.000 C 
BRANCH  20  21
ATOM     21  C   UNL     1      -1.272  11.413  23.080  0.00  0.00    +0.000 C 
BRANCH  21  22
ATOM     22  C   UNL     1      -1.885  12.790  22.805  0.00  0.00    +0.000 C 
BRANCH  22  23
ATOM     23  N   UNL     1      -3.322  12.756  22.543  0.00  0.00    +0.000 N 
ATOM     24  C   UNL     1      -4.209  12.883  23.705  0.00  0.00    +0.000 C 
ATOM     25  C   UNL     1      -5.673  12.825  23.385  0.00  0.00    +0.000 C 
ATOM     26  O   UNL     1      -6.477  12.775  24.304  0.00  0.00    +0.000 OA
ATOM     27  N   UNL     1      -6.105  12.777  22.106  0.00  0.00    +0.000 N 
ATOM     28  C   UNL     1      -7.488  12.680  21.705  0.00  0.00    +0.000 C 
ATOM     29  C   UNL     1      -7.437  12.366  20.202  0.00  0.00    +0.000 C 
ATOM     30  C   UNL     1      -5.945  12.350  19.814  0.00  0.00    +0.000 C 
ATOM     31  C   UNL     1      -5.251  13.019  20.986  0.00  0.00    +0.000 C 
ATOM     32  C   UNL     1      -3.801  12.726  21.258  0.00  0.00    +0.000 C 
ATOM     33  O   UNL     1      -3.032  12.647  20.309  0.00  0.00    +0.000 OA
ENDBRANCH  22  23
ENDBRANCH  21  22
ENDBRANCH  20  21
ENDBRANCH   4  20
TORSDOF 7
ENDMDL
MODEL 6
REMARK VINA RESULT:      -7.2      2.188     10.148
REMARK  Name = 
REMARK  9 active torsions:
REMARK  status: ('A' for Active; 'I' for Inactive)
REMARK    1  A    between atoms: C_1  and  C_2
REMARK    2  A    between atoms: C_2  and  C_3
REMARK    3  A    between atoms: C_2  and  C_4
REMARK    4  A    between atoms: N_6  and  C_7
REMARK    5  A    between atoms: C_11  and  N_12
REMARK    6  A    between atoms: N_15  and  C_16
REMARK    7  A    between atoms: C_16  and  C_17
REMARK    8  A    between atoms: C_17  and  C_18
REMARK    9  A    between atoms: C_18  and  N_19
REMARK                            x       y       z     vdW  Elec       q    Type
REMARK                         _______ _______ _______ _____ _____    ______ ____
ROOT
ATOM      1  N   UNL     1      -0.552  11.898  20.654  0.00  0.00    +0.000 N 
ATOM      2  C   UNL     1       0.599  11.104  21.058  0.00  0.00    +0.000 C 
ATOM      3  C   UNL     1       0.339   9.647  20.638  0.00  0.00    +0.000 C 
ATOM      4  N   UNL     1       0.079   9.546  19.183  0.00  0.00    +0.000 NA
ATOM      5  C   UNL     1      -1.120  10.354  18.837  0.00  0.00    +0.000 C 
ATOM      6  C   UNL     1      -0.932  11.825  19.245  0.00  0.00    +0.000 C 
ENDROOT
BRANCH   1  11
ATOM      7  C   UNL     1      -3.298  13.778  22.400  0.00  0.00    +0.000 A 
ATOM      8  C   UNL     1      -2.557  14.552  23.298  0.00  0.00    +0.000 A 
ATOM      9  C   UNL     1      -1.168  14.414  23.361  0.00  0.00    +0.000 A 
ATOM     10  C   UNL     1      -0.516  13.519  22.516  0.00  0.00    +0.000 A 
ATOM     11  C   UNL     1      -1.240  12.743  21.585  0.00  0.00    +0.000 A 
ATOM     12  C   UNL     1      -2.647  12.865  21.561  0.00  0.00    +0.000 A 
BRANCH   7  15
ATOM     13  C   UNL     1      -5.560  13.093  23.042  0.00  0.00    +0.000 C 
ATOM     14  O   UNL     1      -5.116  12.275  23.835  0.00  0.00    +0.000 OA
ATOM     15  N   UNL     1      -4.718  13.887  22.321  0.00  0.00    +0.000 N 
ATOM     16  H   UNL     1      -5.103  14.666  21.771  0.00  0.00    +0.000 HD
BRANCH  13  18
ATOM     17  C   UNL     1      -7.729  11.992  22.330  0.00  0.00    +0.000 C 
ATOM     18  C   UNL     1      -7.064  13.240  22.930  0.00  0.00    +0.000 C 
ATOM     19  C   UNL     1      -7.654  13.572  24.299  0.00  0.00    +0.000 C 
ENDBRANCH  13  18
ENDBRANCH   7  15
ENDBRANCH   1  11
BRANCH   4  20
ATOM     20  C   UNL     1       1.243   9.881  18.322  0.00  0.00    +0.000 C 
BRANCH  20  21
ATOM     21  C   UNL     1       1.975   8.643  17.768  0.00  0.00    +0.000 C 
BRANCH  21  22
ATOM     22  C   UNL     1       2.707   7.924  18.905  0.00  0.00    +0.000 C 
BRANCH  22  23
ATOM     23  N   UNL     1       2.740   6.470  18.760  0.00  0.00    +0.000 N 
ATOM     24  C   UNL     1       3.544   5.934  17.657  0.00  0.00    +0.000 C 
ATOM     25  C   UNL     1       3.532   4.438  17.541  0.00  0.00    +0.000 C 
ATOM     26  O   UNL     1       4.053   3.917  16.566  0.00  0.00    +0.000 OA
ATOM     27  N   UNL     1       2.914   3.673  18.466  0.00  0.00    +0.000 N 
ATOM     28  C   UNL     1       2.816   2.234  18.417  0.00  0.00    +0.000 C 
ATOM     29  C   UNL     1       1.795   1.874  19.506  0.00  0.00    +0.000 C 
ATOM     30  C   UNL     1       1.388   3.203  20.174  0.00  0.00    +0.000 C 
ATOM     31  C   UNL     1       2.451   4.186  19.717  0.00  0.00    +0.000 C 
ATOM     32  C   UNL     1       2.141   5.657  19.689  0.00  0.00    +0.000 C 
ATOM     33  O   UNL     1       1.499   6.138  20.615  0.00  0.00    +0.000 OA
ENDBRANCH  22  23
ENDBRANCH  21  22
ENDBRANCH  20  21
ENDBRANCH   4  20
TORSDOF 7
ENDMDL
MODEL 7
REMARK VINA RESULT:      -7.1      4.367      6.808
REMARK  Name = 
REMARK  9 active torsions:
REMARK  status: ('A' for Active; 'I' for Inactive)
REMARK    1  A    between atoms: C_1  and  C_2
REMARK    2  A    between atoms: C_2  and  C_3
REMARK    3  A    between atoms: C_2  and  C_4
REMARK    4  A    between atoms: N_6  and  C_7
REMARK    5  A    between atoms: C_11  and  N_12
REMARK    6  A    between atoms: N_15  and  C_16
REMARK    7  A    between atoms: C_16  and  C_17
REMARK    8  A    between atoms: C_17  and  C_18
REMARK    9  A    between atoms: C_18  and  N_19
REMARK                            x       y       z     vdW  Elec       q    Type
REMARK                         _______ _______ _______ _____ _____    ______ ____
ROOT
ATOM      1  N   UNL     1       4.378   5.126  18.044  0.00  0.00    +0.000 N 
ATOM      2  C   UNL     1       3.129   5.874  18.012  0.00  0.00    +0.000 C 
ATOM      3  C   UNL     1       2.002   4.933  18.469  0.00  0.00    +0.000 C 
ATOM      4  N   UNL     1       2.279   4.377  19.814  0.00  0.00    +0.000 NA
ATOM      5  C   UNL     1       3.549   3.604  19.779  0.00  0.00    +0.000 C 
ATOM      6  C   UNL     1       4.720   4.486  19.313  0.00  0.00    +0.000 C 
ENDROOT
BRANCH   1  11
ATOM      7  C   UNL     1       5.742   4.264  14.650  0.00  0.00    +0.000 A 
ATOM      8  C   UNL     1       7.031   4.796  14.743  0.00  0.00    +0.000 A 
ATOM      9  C   UNL     1       7.427   5.478  15.896  0.00  0.00    +0.000 A 
ATOM     10  C   UNL     1       6.544   5.613  16.965  0.00  0.00    +0.000 A 
ATOM     11  C   UNL     1       5.244   5.066  16.904  0.00  0.00    +0.000 A 
ATOM     12  C   UNL     1       4.845   4.414  15.716  0.00  0.00    +0.000 A 
BRANCH   7  15
ATOM     13  C   UNL     1       6.053   3.504  12.343  0.00  0.00    +0.000 C 
ATOM     14  O   UNL     1       7.169   4.000  12.302  0.00  0.00    +0.000 OA
ATOM     15  N   UNL     1       5.304   3.574  13.481  0.00  0.00    +0.000 N 
ATOM     16  H   UNL     1       4.435   3.030  13.550  0.00  0.00    +0.000 HD
BRANCH  13  18
ATOM     17  C   UNL     1       5.995   1.290  11.112  0.00  0.00    +0.000 C 
ATOM     18  C   UNL     1       5.553   2.760  11.121  0.00  0.00    +0.000 C 
ATOM     19  C   UNL     1       4.032   2.876  11.032  0.00  0.00    +0.000 C 
ENDBRANCH  13  18
ENDBRANCH   7  15
ENDBRANCH   1  11
BRANCH   4  20
ATOM     20  C   UNL     1       2.269   5.379  20.912  0.00  0.00    +0.000 C 
BRANCH  20  21
ATOM     21  C   UNL     1       1.200   6.474  20.736  0.00  0.00    +0.000 C 
BRANCH  21  22
ATOM     22  C   UNL     1       1.870   7.852  20.712  0.00  0.00    +0.000 C 
BRANCH  22  23
ATOM     23  N   UNL     1       0.938   8.966  20.873  0.00  0.00    +0.000 N 
ATOM     24  C   UNL     1       0.581   9.335  22.247  0.00  0.00    +0.000 C 
ATOM     25  C   UNL     1      -0.391  10.471  22.359  0.00  0.00    +0.000 C 
ATOM     26  O   UNL     1      -0.855  10.748  23.455  0.00  0.00    +0.000 OA
ATOM     27  N   UNL     1      -0.794  11.153  21.264  0.00  0.00    +0.000 N 
ATOM     28  C   UNL     1      -1.753  12.231  21.269  0.00  0.00    +0.000 C 
ATOM     29  C   UNL     1      -2.084  12.467  19.788  0.00  0.00    +0.000 C 
ATOM     30  C   UNL     1      -1.207  11.483  18.987  0.00  0.00    +0.000 C 
ATOM     31  C   UNL     1      -0.165  11.019  19.988  0.00  0.00    +0.000 C 
ATOM     32  C   UNL     1       0.520   9.695  19.789  0.00  0.00    +0.000 C 
ATOM     33  O   UNL     1       0.858   9.376  18.656  0.00  0.00    +0.000 OA
ENDBRANCH  22  23
ENDBRANCH  21  22
ENDBRANCH  20  21
ENDBRANCH   4  20
TORSDOF 7
ENDMDL
MODEL 8
REMARK VINA RESULT:      -7.1      4.188      6.553
REMARK  Name = 
REMARK  9 active torsions:
REMARK  status: ('A' for Active; 'I' for Inactive)
REMARK    1  A    between atoms: C_1  and  C_2
REMARK    2  A    between atoms: C_2  and  C_3
REMARK    3  A    between atoms: C_2  and  C_4
REMARK    4  A    between atoms: N_6  and  C_7
REMARK    5  A    between atoms: C_11  and  N_12
REMARK    6  A    between atoms: N_15  and  C_16
REMARK    7  A    between atoms: C_16  and  C_17
REMARK    8  A    between atoms: C_17  and  C_18
REMARK    9  A    between atoms: C_18  and  N_19
REMARK                            x       y       z     vdW  Elec       q    Type
REMARK                         _______ _______ _______ _____ _____    ______ ____
ROOT
ATOM      1  N   UNL     1       1.754   8.036  20.085  0.00  0.00    +0.000 N 
ATOM      2  C   UNL     1       1.852   8.929  18.940  0.00  0.00    +0.000 C 
ATOM      3  C   UNL     1       0.446   9.477  18.644  0.00  0.00    +0.000 C 
ATOM      4  N   UNL     1      -0.125  10.157  19.830  0.00  0.00    +0.000 NA
ATOM      5  C   UNL     1      -0.226   9.191  20.956  0.00  0.00    +0.000 C 
ATOM      6  C   UNL     1       1.150   8.592  21.294  0.00  0.00    +0.000 C 
ENDROOT
BRANCH   1  11
ATOM      7  C   UNL     1       3.790   5.038  19.093  0.00  0.00    +0.000 A 
ATOM      8  C   UNL     1       3.143   4.030  19.813  0.00  0.00    +0.000 A 
ATOM      9  C   UNL     1       2.077   4.348  20.659  0.00  0.00    +0.000 A 
ATOM     10  C   UNL     1       1.645   5.667  20.772  0.00  0.00    +0.000 A 
ATOM     11  C   UNL     1       2.268   6.699  20.037  0.00  0.00    +0.000 A 
ATOM     12  C   UNL     1       3.369   6.368  19.217  0.00  0.00    +0.000 A 
BRANCH   7  15
ATOM     13  C   UNL     1       4.731   4.180  17.001  0.00  0.00    +0.000 C 
ATOM     14  O   UNL     1       3.614   3.941  16.565  0.00  0.00    +0.000 OA
ATOM     15  N   UNL     1       4.889   4.747  18.231  0.00  0.00    +0.000 N 
ATOM     16  H   UNL     1       5.819   5.074  18.522  0.00  0.00    +0.000 HD
BRANCH  13  18
ATOM     17  C   UNL     1       5.683   4.297  14.655  0.00  0.00    +0.000 C 
ATOM     18  C   UNL     1       5.925   3.886  16.115  0.00  0.00    +0.000 C 
ATOM     19  C   UNL     1       7.168   4.571  16.679  0.00  0.00    +0.000 C 
ENDBRANCH  13  18
ENDBRANCH   7  15
ENDBRANCH   1  11
BRANCH   4  20
ATOM     20  C   UNL     1       0.581  11.403  20.228  0.00  0.00    +0.000 C 
BRANCH  20  21
ATOM     21  C   UNL     1      -0.195  12.688  19.882  0.00  0.00    +0.000 C 
BRANCH  21  22
ATOM     22  C   UNL     1       0.310  13.254  18.551  0.00  0.00    +0.000 C 
BRANCH  22  23
ATOM     23  N   UNL     1       1.441  14.169  18.689  0.00  0.00    +0.000 N 
ATOM     24  C   UNL     1       1.155  15.494  19.250  0.00  0.00    +0.000 C 
ATOM     25  C   UNL     1       2.345  16.401  19.354  0.00  0.00    +0.000 C 
ATOM     26  O   UNL     1       2.172  17.568  19.671  0.00  0.00    +0.000 OA
ATOM     27  N   UNL     1       3.586  15.959  19.055  0.00  0.00    +0.000 N 
ATOM     28  C   UNL     1       4.780  16.768  19.087  0.00  0.00    +0.000 C 
ATOM     29  C   UNL     1       5.852  15.909  18.399  0.00  0.00    +0.000 C 
ATOM     30  C   UNL     1       5.171  14.573  18.040  0.00  0.00    +0.000 C 
ATOM     31  C   UNL     1       3.894  14.577  18.861  0.00  0.00    +0.000 C 
ATOM     32  C   UNL     1       2.719  13.753  18.413  0.00  0.00    +0.000 C 
ATOM     33  O   UNL     1       2.926  12.630  17.971  0.00  0.00    +0.000 OA
ENDBRANCH  22  23
ENDBRANCH  21  22
ENDBRANCH  20  21
ENDBRANCH   4  20
TORSDOF 7
ENDMDL
MODEL 9
REMARK VINA RESULT:      -7.1      2.342      3.502
REMARK  Name = 
REMARK  9 active torsions:
REMARK  status: ('A' for Active; 'I' for Inactive)
REMARK    1  A    between atoms: C_1  and  C_2
REMARK    2  A    between atoms: C_2  and  C_3
REMARK    3  A    between atoms: C_2  and  C_4
REMARK    4  A    between atoms: N_6  and  C_7
REMARK    5  A    between atoms: C_11  and  N_12
REMARK    6  A    between atoms: N_15  and  C_16
REMARK    7  A    between atoms: C_16  and  C_17
REMARK    8  A    between atoms: C_17  and  C_18
REMARK    9  A    between atoms: C_18  and  N_19
REMARK                            x       y       z     vdW  Elec       q    Type
REMARK                         _______ _______ _______ _____ _____    ______ ____
ROOT
ATOM      1  N   UNL     1       1.863   7.934  19.667  0.00  0.00    +0.000 N 
ATOM      2  C   UNL     1       2.107   8.735  18.477  0.00  0.00    +0.000 C 
ATOM      3  C   UNL     1       0.780   9.398  18.072  0.00  0.00    +0.000 C 
ATOM      4  N   UNL     1       0.224  10.208  19.180  0.00  0.00    +0.000 NA
ATOM      5  C   UNL     1      -0.029   9.333  20.356  0.00  0.00    +0.000 C 
ATOM      6  C   UNL     1       1.261   8.625  20.805  0.00  0.00    +0.000 C 
ENDROOT
BRANCH   1  11
ATOM      7  C   UNL     1       3.318   4.595  18.739  0.00  0.00    +0.000 A 
ATOM      8  C   UNL     1       2.815   3.795  19.769  0.00  0.00    +0.000 A 
ATOM      9  C   UNL     1       2.047   4.364  20.788  0.00  0.00    +0.000 A 
ATOM     10  C   UNL     1       1.764   5.728  20.770  0.00  0.00    +0.000 A 
ATOM     11  C   UNL     1       2.242   6.553  19.729  0.00  0.00    +0.000 A 
ATOM     12  C   UNL     1       3.049   5.970  18.728  0.00  0.00    +0.000 A 
BRANCH   7  15
ATOM     13  C   UNL     1       5.111   4.747  17.079  0.00  0.00    +0.000 C 
ATOM     14  O   UNL     1       5.393   5.878  17.446  0.00  0.00    +0.000 OA
ATOM     15  N   UNL     1       4.115   4.046  17.692  0.00  0.00    +0.000 N 
ATOM     16  H   UNL     1       3.988   3.049  17.473  0.00  0.00    +0.000 HD
BRANCH  13  18
ATOM     17  C   UNL     1       5.456   4.555  14.575  0.00  0.00    +0.000 C 
ATOM     18  C   UNL     1       5.937   4.127  15.970  0.00  0.00    +0.000 C 
ATOM     19  C   UNL     1       7.412   4.468  16.171  0.00  0.00    +0.000 C 
ENDBRANCH  13  18
ENDBRANCH   7  15
ENDBRANCH   1  11
BRANCH   4  20
ATOM     20  C   UNL     1       1.033  11.402  19.540  0.00  0.00    +0.000 C 
BRANCH  20  21
ATOM     21  C   UNL     1       0.234  12.719  19.506  0.00  0.00    +0.000 C 
BRANCH  21  22
ATOM     22  C   UNL     1      -0.870  12.627  18.448  0.00  0.00    +0.000 C 
BRANCH  22  23
ATOM     23  N   UNL     1      -2.210  12.457  19.005  0.00  0.00    +0.000 N 
ATOM     24  C   UNL     1      -2.467  13.074  20.310  0.00  0.00    +0.000 C 
ATOM     25  C   UNL     1      -3.851  12.856  20.846  0.00  0.00    +0.000 C 
ATOM     26  O   UNL     1      -4.105  13.209  21.987  0.00  0.00    +0.000 OA
ATOM     27  N   UNL     1      -4.794  12.236  20.105  0.00  0.00    +0.000 N 
ATOM     28  C   UNL     1      -6.136  11.947  20.550  0.00  0.00    +0.000 C 
ATOM     29  C   UNL     1      -6.705  10.996  19.486  0.00  0.00    +0.000 C 
ATOM     30  C   UNL     1      -5.603  10.832  18.419  0.00  0.00    +0.000 C 
ATOM     31  C   UNL     1      -4.636  11.965  18.710  0.00  0.00    +0.000 C 
ATOM     32  C   UNL     1      -3.201  11.848  18.277  0.00  0.00    +0.000 C 
ATOM     33  O   UNL     1      -2.959  11.366  17.178  0.00  0.00    +0.000 OA
ENDBRANCH  22  23
ENDBRANCH  21  22
ENDBRANCH  20  21
ENDBRANCH   4  20
TORSDOF 7
ENDMDL
