MODEL 1
REMARK VINA RESULT:      -6.5      0.000      0.000
REMARK  Name = 
REMARK  2 active torsions:
REMARK  status: ('A' for Active; 'I' for Inactive)
REMARK    1  A    between atoms: N_3  and  C_4
REMARK    2  A    between atoms: C_7  and  C_8
REMARK                            x       y       z     vdW  Elec       q    Type
REMARK                         _______ _______ _______ _____ _____    ______ ____
ROOT
ATOM      1  C   UNL     1       4.973   5.378  16.478  0.00  0.00    +0.000 A 
ATOM      2  C   UNL     1       4.742   4.000  16.553  0.00  0.00    +0.000 A 
ATOM      3  C   UNL     1       3.911   3.460  17.540  0.00  0.00    +0.000 A 
ATOM      4  C   UNL     1       3.291   4.293  18.479  0.00  0.00    +0.000 A 
ATOM      5  C   UNL     1       3.513   5.671  18.404  0.00  0.00    +0.000 A 
ATOM      6  C   UNL     1       4.361   6.205  17.429  0.00  0.00    +0.000 A 
ENDROOT
BRANCH   4   7
ATOM      7  C   UNL     1       2.445   3.759  19.528  0.00  0.00    +0.000 A 
ATOM      8  C   UNL     1       1.067   3.713  19.513  0.00  0.00    +0.000 A 
ATOM      9  N   UNL     1       0.716   3.112  20.690  0.00  0.00    +0.000 N 
ATOM     10  C   UNL     1       1.868   2.816  21.362  0.00  0.00    +0.000 A 
ATOM     11  N   UNL     1       2.930   3.180  20.680  0.00  0.00    +0.000 NA
ATOM     12  H   UNL     1      -0.222   2.914  21.007  0.00  0.00    +0.000 HD
ENDBRANCH   4   7
BRANCH   1  15
ATOM     13  N   UNL     1       7.688   5.427  14.113  0.00  0.00    +0.000 N 
ATOM     14  C   UNL     1       6.799   5.068  15.074  0.00  0.00    +0.000 C 
ATOM     15  N   UNL     1       5.853   5.841  15.485  0.00  0.00    +0.000 NA
ATOM     16  H   UNL     1       8.602   4.994  14.145  0.00  0.00    +0.000 HD
ATOM     17  H   UNL     1       7.701   6.424  13.926  0.00  0.00    +0.000 HD
ENDBRANCH   1  15
TORSDOF 2
ENDMDL
MODEL 2
REMARK VINA RESULT:      -6.4      1.053      1.425
REMARK  Name = 
REMARK  2 active torsions:
REMARK  status: ('A' for Active; 'I' for Inactive)
REMARK    1  A    between atoms: N_3  and  C_4
REMARK    2  A    between atoms: C_7  and  C_8
REMARK                            x       y       z     vdW  Elec       q    Type
REMARK                         _______ _______ _______ _____ _____    ______ ____
ROOT
ATOM      1  C   UNL     1       6.001   4.513  17.020  0.00  0.00    +0.000 A 
ATOM      2  C   UNL     1       6.111   4.725  18.398  0.00  0.00    +0.000 A 
ATOM      3  C   UNL     1       5.059   4.407  19.263  0.00  0.00    +0.000 A 
ATOM      4  C   UNL     1       3.867   3.869  18.762  0.00  0.00    +0.000 A 
ATOM      5  C   UNL     1       3.755   3.648  17.386  0.00  0.00    +0.000 A 
ATOM      6  C   UNL     1       4.802   3.987  16.523  0.00  0.00    +0.000 A 
ENDROOT
BRANCH   4   7
ATOM      7  C   UNL     1       2.750   3.553  19.632  0.00  0.00    +0.000 A 
ATOM      8  C   UNL     1       1.428   3.862  19.395  0.00  0.00    +0.000 A 
ATOM      9  N   UNL     1       0.744   3.353  20.464  0.00  0.00    +0.000 N 
ATOM     10  C   UNL     1       1.656   2.762  21.293  0.00  0.00    +0.000 A 
ATOM     11  N   UNL     1       2.874   2.853  20.811  0.00  0.00    +0.000 NA
ATOM     12  H   UNL     1      -0.253   3.396  20.616  0.00  0.00    +0.000 HD
ENDBRANCH   4   7
BRANCH   1  15
ATOM     13  N   UNL     1       7.895   5.386  14.083  0.00  0.00    +0.000 N 
ATOM     14  C   UNL     1       6.909   5.011  14.939  0.00  0.00    +0.000 C 
ATOM     15  N   UNL     1       7.085   4.897  16.210  0.00  0.00    +0.000 NA
ATOM     16  H   UNL     1       7.828   5.053  13.129  0.00  0.00    +0.000 HD
ATOM     17  H   UNL     1       8.824   5.328  14.486  0.00  0.00    +0.000 HD
ENDBRANCH   1  15
TORSDOF 2
ENDMDL
MODEL 3
REMARK VINA RESULT:      -6.4      0.580      1.408
REMARK  Name = 
REMARK  2 active torsions:
REMARK  status: ('A' for Active; 'I' for Inactive)
REMARK    1  A    between atoms: N_3  and  C_4
REMARK    2  A    between atoms: C_7  and  C_8
REMARK                            x       y       z     vdW  Elec       q    Type
REMARK                         _______ _______ _______ _____ _____    ______ ____
ROOT
ATOM      1  C   UNL     1       5.163   5.349  16.228  0.00  0.00    +0.000 A 
ATOM      2  C   UNL     1       4.529   6.276  17.061  0.00  0.00    +0.000 A 
ATOM      3  C   UNL     1       3.602   5.865  18.025  0.00  0.00    +0.000 A 
ATOM      4  C   UNL     1       3.289   4.509  18.174  0.00  0.00    +0.000 A 
ATOM      5  C   UNL     1       3.925   3.577  17.348  0.00  0.00    +0.000 A 
ATOM      6  C   UNL     1       4.835   3.995  16.372  0.00  0.00    +0.000 A 
ENDROOT
BRANCH   4   7
ATOM      7  C   UNL     1       2.314   4.055  19.147  0.00  0.00    +0.000 A 
ATOM      8  C   UNL     1       1.164   3.346  18.871  0.00  0.00    +0.000 A 
ATOM      9  N   UNL     1       0.579   3.125  20.086  0.00  0.00    +0.000 N 
ATOM     10  C   UNL     1       1.379   3.691  21.038  0.00  0.00    +0.000 A 
ATOM     11  N   UNL     1       2.442   4.248  20.504  0.00  0.00    +0.000 NA
ATOM     12  H   UNL     1      -0.283   2.628  20.257  0.00  0.00    +0.000 HD
ENDBRANCH   4   7
BRANCH   1  15
ATOM     13  N   UNL     1       7.843   5.447  13.824  0.00  0.00    +0.000 N 
ATOM     14  C   UNL     1       6.952   5.060  14.773  0.00  0.00    +0.000 C 
ATOM     15  N   UNL     1       6.050   5.843  15.255  0.00  0.00    +0.000 NA
ATOM     16  H   UNL     1       8.736   4.971  13.809  0.00  0.00    +0.000 HD
ATOM     17  H   UNL     1       7.900   6.454  13.710  0.00  0.00    +0.000 HD
ENDBRANCH   1  15
TORSDOF 2
ENDMDL
MODEL 4
REMARK VINA RESULT:      -6.4      1.053      1.222
REMARK  Name = 
REMARK  2 active torsions:
REMARK  status: ('A' for Active; 'I' for Inactive)
REMARK    1  A    between atoms: N_3  and  C_4
REMARK    2  A    between atoms: C_7  and  C_8
REMARK                            x       y       z     vdW  Elec       q    Type
REMARK                         _______ _______ _______ _____ _____    ______ ____
ROOT
ATOM      1  C   UNL     1       5.410   5.375  16.257  0.00  0.00    +0.000 A 
ATOM      2  C   UNL     1       5.147   4.001  16.272  0.00  0.00    +0.000 A 
ATOM      3  C   UNL     1       4.085   3.477  17.016  0.00  0.00    +0.000 A 
ATOM      4  C   UNL     1       3.258   4.323  17.764  0.00  0.00    +0.000 A 
ATOM      5  C   UNL     1       3.511   5.698  17.747  0.00  0.00    +0.000 A 
ATOM      6  C   UNL     1       4.588   6.215  17.019  0.00  0.00    +0.000 A 
ENDROOT
BRANCH   4   7
ATOM      7  C   UNL     1       2.164   3.806  18.564  0.00  0.00    +0.000 A 
ATOM      8  C   UNL     1       1.728   4.319  19.767  0.00  0.00    +0.000 A 
ATOM      9  N   UNL     1       0.674   3.529  20.132  0.00  0.00    +0.000 N 
ATOM     10  C   UNL     1       0.507   2.588  19.156  0.00  0.00    +0.000 A 
ATOM     11  N   UNL     1       1.381   2.737  18.188  0.00  0.00    +0.000 NA
ATOM     12  H   UNL     1       0.112   3.624  20.966  0.00  0.00    +0.000 HD
ENDBRANCH   4   7
BRANCH   1  15
ATOM     13  N   UNL     1       7.989   5.481  13.746  0.00  0.00    +0.000 N 
ATOM     14  C   UNL     1       6.931   5.123  14.519  0.00  0.00    +0.000 C 
ATOM     15  N   UNL     1       6.521   5.821  15.521  0.00  0.00    +0.000 NA
ATOM     16  H   UNL     1       8.501   4.736  13.291  0.00  0.00    +0.000 HD
ATOM     17  H   UNL     1       8.571   6.199  14.165  0.00  0.00    +0.000 HD
ENDBRANCH   1  15
TORSDOF 2
ENDMDL
MODEL 5
REMARK VINA RESULT:      -6.4      1.070      1.764
REMARK  Name = 
REMARK  2 active torsions:
REMARK  status: ('A' for Active; 'I' for Inactive)
REMARK    1  A    between atoms: N_3  and  C_4
REMARK    2  A    between atoms: C_7  and  C_8
REMARK                            x       y       z     vdW  Elec       q    Type
REMARK                         _______ _______ _______ _____ _____    ______ ____
ROOT
ATOM      1  C   UNL     1       5.327   5.352  16.118  0.00  0.00    +0.000 A 
ATOM      2  C   UNL     1       4.579   6.231  16.907  0.00  0.00    +0.000 A 
ATOM      3  C   UNL     1       3.545   5.765  17.725  0.00  0.00    +0.000 A 
ATOM      4  C   UNL     1       3.237   4.400  17.771  0.00  0.00    +0.000 A 
ATOM      5  C   UNL     1       3.987   3.516  16.989  0.00  0.00    +0.000 A 
ATOM      6  C   UNL     1       5.006   3.989  16.156  0.00  0.00    +0.000 A 
ENDROOT
BRANCH   4   7
ATOM      7  C   UNL     1       2.155   3.890  18.591  0.00  0.00    +0.000 A 
ATOM      8  C   UNL     1       1.732   4.418  19.792  0.00  0.00    +0.000 A 
ATOM      9  N   UNL     1       0.685   3.630  20.180  0.00  0.00    +0.000 N 
ATOM     10  C   UNL     1       0.509   2.674  19.220  0.00  0.00    +0.000 A 
ATOM     11  N   UNL     1       1.372   2.814  18.239  0.00  0.00    +0.000 NA
ATOM     12  H   UNL     1       0.132   3.734  21.019  0.00  0.00    +0.000 HD
ENDBRANCH   4   7
BRANCH   1  15
ATOM     13  N   UNL     1       8.019   5.555  13.733  0.00  0.00    +0.000 N 
ATOM     14  C   UNL     1       7.044   5.114  14.569  0.00  0.00    +0.000 C 
ATOM     15  N   UNL     1       6.321   5.901  15.289  0.00  0.00    +0.000 NA
ATOM     16  H   UNL     1       8.788   4.924  13.548  0.00  0.00    +0.000 HD
ATOM     17  H   UNL     1       8.293   6.517  13.905  0.00  0.00    +0.000 HD
ENDBRANCH   1  15
TORSDOF 2
ENDMDL
MODEL 6
REMARK VINA RESULT:      -6.4      1.034      1.054
REMARK  Name = 
REMARK  2 active torsions:
REMARK  status: ('A' for Active; 'I' for Inactive)
REMARK    1  A    between atoms: N_3  and  C_4
REMARK    2  A    between atoms: C_7  and  C_8
REMARK                            x       y       z     vdW  Elec       q    Type
REMARK                         _______ _______ _______ _____ _____    ______ ____
ROOT
ATOM      1  C   UNL     1       5.977   4.772  17.175  0.00  0.00    +0.000 A 
ATOM      2  C   UNL     1       4.824   4.210  16.617  0.00  0.00    +0.000 A 
ATOM      3  C   UNL     1       3.743   3.836  17.422  0.00  0.00    +0.000 A 
ATOM      4  C   UNL     1       3.794   4.016  18.809  0.00  0.00    +0.000 A 
ATOM      5  C   UNL     1       4.942   4.583  19.371  0.00  0.00    +0.000 A 
ATOM      6  C   UNL     1       6.029   4.937  18.566  0.00  0.00    +0.000 A 
ENDROOT
BRANCH   4   7
ATOM      7  C   UNL     1       2.699   3.614  19.670  0.00  0.00    +0.000 A 
ATOM      8  C   UNL     1       1.363   3.889  19.464  0.00  0.00    +0.000 A 
ATOM      9  N   UNL     1       0.710   3.298  20.509  0.00  0.00    +0.000 N 
ATOM     10  C   UNL     1       1.651   2.694  21.294  0.00  0.00    +0.000 A 
ATOM     11  N   UNL     1       2.860   2.853  20.806  0.00  0.00    +0.000 NA
ATOM     12  H   UNL     1      -0.286   3.298  20.672  0.00  0.00    +0.000 HD
ENDBRANCH   4   7
BRANCH   1  15
ATOM     13  N   UNL     1       7.801   5.352  14.124  0.00  0.00    +0.000 N 
ATOM     14  C   UNL     1       6.838   5.056  15.035  0.00  0.00    +0.000 C 
ATOM     15  N   UNL     1       7.039   5.083  16.308  0.00  0.00    +0.000 NA
ATOM     16  H   UNL     1       7.723   4.917  13.214  0.00  0.00    +0.000 HD
ATOM     17  H   UNL     1       8.738   5.353  14.512  0.00  0.00    +0.000 HD
ENDBRANCH   1  15
TORSDOF 2
ENDMDL
MODEL 7
REMARK VINA RESULT:      -6.2      1.275      1.524
REMARK  Name = 
REMARK  2 active torsions:
REMARK  status: ('A' for Active; 'I' for Inactive)
REMARK    1  A    between atoms: N_3  and  C_4
REMARK    2  A    between atoms: C_7  and  C_8
REMARK                            x       y       z     vdW  Elec       q    Type
REMARK                         _______ _______ _______ _____ _____    ______ ____
ROOT
ATOM      1  C   UNL     1       6.120   4.575  16.881  0.00  0.00    +0.000 A 
ATOM      2  C   UNL     1       4.912   4.155  16.315  0.00  0.00    +0.000 A 
ATOM      3  C   UNL     1       3.824   3.800  17.118  0.00  0.00    +0.000 A 
ATOM      4  C   UNL     1       3.922   3.860  18.513  0.00  0.00    +0.000 A 
ATOM      5  C   UNL     1       5.125   4.286  19.085  0.00  0.00    +0.000 A 
ATOM      6  C   UNL     1       6.218   4.619  18.278  0.00  0.00    +0.000 A 
ENDROOT
BRANCH   4   7
ATOM      7  C   UNL     1       2.819   3.475  19.372  0.00  0.00    +0.000 A 
ATOM      8  C   UNL     1       2.919   2.774  20.555  0.00  0.00    +0.000 A 
ATOM      9  N   UNL     1       1.638   2.665  21.017  0.00  0.00    +0.000 N 
ATOM     10  C   UNL     1       0.821   3.295  20.120  0.00  0.00    +0.000 A 
ATOM     11  N   UNL     1       1.506   3.807  19.123  0.00  0.00    +0.000 NA
ATOM     12  H   UNL     1       1.342   2.211  21.869  0.00  0.00    +0.000 HD
ENDBRANCH   4   7
BRANCH   1  15
ATOM     13  N   UNL     1       7.893   5.388  13.853  0.00  0.00    +0.000 N 
ATOM     14  C   UNL     1       6.932   5.084  14.764  0.00  0.00    +0.000 C 
ATOM     15  N   UNL     1       7.183   4.874  16.010  0.00  0.00    +0.000 NA
ATOM     16  H   UNL     1       7.718   5.123  12.892  0.00  0.00    +0.000 HD
ATOM     17  H   UNL     1       8.834   5.195  14.179  0.00  0.00    +0.000 HD
ENDBRANCH   1  15
TORSDOF 2
ENDMDL
MODEL 8
REMARK VINA RESULT:      -6.2      1.470      6.216
REMARK  Name = 
REMARK  2 active torsions:
REMARK  status: ('A' for Active; 'I' for Inactive)
REMARK    1  A    between atoms: N_3  and  C_4
REMARK    2  A    between atoms: C_7  and  C_8
REMARK                            x       y       z     vdW  Elec       q    Type
REMARK                         _______ _______ _______ _____ _____    ______ ____
ROOT
ATOM      1  C   UNL     1       3.055   3.086  19.145  0.00  0.00    +0.000 A 
ATOM      2  C   UNL     1       2.681   3.144  17.799  0.00  0.00    +0.000 A 
ATOM      3  C   UNL     1       3.575   3.589  16.820  0.00  0.00    +0.000 A 
ATOM      4  C   UNL     1       4.871   3.987  17.171  0.00  0.00    +0.000 A 
ATOM      5  C   UNL     1       5.252   3.924  18.514  0.00  0.00    +0.000 A 
ATOM      6  C   UNL     1       4.348   3.499  19.493  0.00  0.00    +0.000 A 
ENDROOT
BRANCH   4   7
ATOM      7  C   UNL     1       5.811   4.476  16.181  0.00  0.00    +0.000 A 
ATOM      8  C   UNL     1       6.894   5.293  16.427  0.00  0.00    +0.000 A 
ATOM      9  N   UNL     1       7.494   5.469  15.212  0.00  0.00    +0.000 N 
ATOM     10  C   UNL     1       6.772   4.765  14.290  0.00  0.00    +0.000 A 
ATOM     11  N   UNL     1       5.758   4.143  14.846  0.00  0.00    +0.000 NA
ATOM     12  H   UNL     1       8.323   6.013  15.024  0.00  0.00    +0.000 HD
ENDBRANCH   4   7
BRANCH   1  15
ATOM     13  N   UNL     1       1.416   2.508  22.299  0.00  0.00    +0.000 N 
ATOM     14  C   UNL     1       2.298   2.868  21.331  0.00  0.00    +0.000 C 
ATOM     15  N   UNL     1       2.088   2.669  20.076  0.00  0.00    +0.000 NA
ATOM     16  H   UNL     1       1.795   2.298  23.214  0.00  0.00    +0.000 HD
ATOM     17  H   UNL     1       0.705   1.859  21.978  0.00  0.00    +0.000 HD
ENDBRANCH   1  15
TORSDOF 2
ENDMDL
MODEL 9
REMARK VINA RESULT:      -6.2      1.320      1.734
REMARK  Name = 
REMARK  2 active torsions:
REMARK  status: ('A' for Active; 'I' for Inactive)
REMARK    1  A    between atoms: N_3  and  C_4
REMARK    2  A    between atoms: C_7  and  C_8
REMARK                            x       y       z     vdW  Elec       q    Type
REMARK                         _______ _______ _______ _____ _____    ______ ____
ROOT
ATOM      1  C   UNL     1       6.154   4.597  16.827  0.00  0.00    +0.000 A 
ATOM      2  C   UNL     1       6.319   4.782  18.203  0.00  0.00    +0.000 A 
ATOM      3  C   UNL     1       5.292   4.475  19.101  0.00  0.00    +0.000 A 
ATOM      4  C   UNL     1       4.070   3.974  18.636  0.00  0.00    +0.000 A 
ATOM      5  C   UNL     1       3.902   3.781  17.262  0.00  0.00    +0.000 A 
ATOM      6  C   UNL     1       4.925   4.109  16.366  0.00  0.00    +0.000 A 
ENDROOT
BRANCH   4   7
ATOM      7  C   UNL     1       2.978   3.671  19.541  0.00  0.00    +0.000 A 
ATOM      8  C   UNL     1       3.015   2.764  20.580  0.00  0.00    +0.000 A 
ATOM      9  N   UNL     1       1.779   2.834  21.159  0.00  0.00    +0.000 N 
ATOM     10  C   UNL     1       1.052   3.763  20.471  0.00  0.00    +0.000 A 
ATOM     11  N   UNL     1       1.753   4.297  19.497  0.00  0.00    +0.000 NA
ATOM     12  H   UNL     1       1.458   2.304  21.956  0.00  0.00    +0.000 HD
ENDBRANCH   4   7
BRANCH   1  15
ATOM     13  N   UNL     1       7.980   5.394  13.826  0.00  0.00    +0.000 N 
ATOM     14  C   UNL     1       7.016   5.035  14.714  0.00  0.00    +0.000 C 
ATOM     15  N   UNL     1       7.217   4.968  15.984  0.00  0.00    +0.000 NA
ATOM     16  H   UNL     1       7.902   5.027  12.887  0.00  0.00    +0.000 HD
ATOM     17  H   UNL     1       8.917   5.365  14.214  0.00  0.00    +0.000 HD
ENDBRANCH   1  15
TORSDOF 2
ENDMDL
