MODEL 1
REMARK VINA RESULT:      -6.3      0.000      0.000
REMARK  Name = 
REMARK  8 active torsions:
REMARK  status: ('A' for Active; 'I' for Inactive)
REMARK    1  A    between atoms: C_1  and  C_2
REMARK    2  A    between atoms: C_2  and  O_3
REMARK    3  A    between atoms: O_3  and  C_4
REMARK    4  A    between atoms: C_4  and  C_5
REMARK    5  A    between atoms: C_15  and  C_16
REMARK    6  A    between atoms: C_16  and  N_17
REMARK    7  A    between atoms: N_17  and  C_18
REMARK    8  A    between atoms: N_17  and  C_19
REMARK                            x       y       z     vdW  Elec       q    Type
REMARK                         _______ _______ _______ _____ _____    ______ ____
ROOT
ATOM      1  C   UNL     1       2.701   7.801  18.207  0.00  0.00    +0.000 C 
ATOM      2  O   UNL     1       2.609   8.843  17.554  0.00  0.00    +0.000 OA
ATOM      3  N   UNL     1       3.569   6.772  17.838  0.00  0.00    +0.000 N 
ATOM      4  C   UNL     1       4.430   7.064  16.697  0.00  0.00    +0.000 C 
ATOM      5  C   UNL     1       5.440   6.022  16.335  0.00  0.00    +0.000 A 
ATOM      6  N   UNL     1       5.901   5.861  15.106  0.00  0.00    +0.000 NA
ATOM      7  C   UNL     1       6.831   4.866  15.168  0.00  0.00    +0.000 A 
ATOM      8  C   UNL     1       6.940   4.390  16.453  0.00  0.00    +0.000 A 
ATOM      9  N   UNL     1       6.054   5.132  17.192  0.00  0.00    +0.000 N 
ATOM     10  C   UNL     1       5.928   5.056  18.635  0.00  0.00    +0.000 C 
ATOM     11  C   UNL     1       4.509   4.922  19.218  0.00  0.00    +0.000 C 
ATOM     12  C   UNL     1       3.401   5.390  18.269  0.00  0.00    +0.000 C 
ENDROOT
BRANCH   1  13
ATOM     13  C   UNL     1       1.921   7.661  19.522  0.00  0.00    +0.000 C 
BRANCH  13  14
ATOM     14  O   UNL     1       1.328   8.885  19.948  0.00  0.00    +0.000 OA
BRANCH  14  16
ATOM     15  C   UNL     1      -0.299   8.639  21.689  0.00  0.00    +0.000 C 
ATOM     16  C   UNL     1       1.156   8.909  21.369  0.00  0.00    +0.000 C 
ENDBRANCH  14  16
ENDBRANCH  13  14
ENDBRANCH   1  13
BRANCH  11  17
ATOM     17  C   UNL     1       4.165   3.485  19.678  0.00  0.00    +0.000 C 
BRANCH  17  18
ATOM     18  N   UNL     1       3.062   2.803  18.974  0.00  0.00    +0.000 NA
ATOM     19  C   UNL     1       3.515   1.629  18.220  0.00  0.00    +0.000 C 
ATOM     20  C   UNL     1       2.057   2.374  19.961  0.00  0.00    +0.000 C 
ENDBRANCH  17  18
ENDBRANCH  11  17
TORSDOF 5
ENDMDL
MODEL 2
REMARK VINA RESULT:      -6.3      2.777      4.840
REMARK  Name = 
REMARK  8 active torsions:
REMARK  status: ('A' for Active; 'I' for Inactive)
REMARK    1  A    between atoms: C_1  and  C_2
REMARK    2  A    between atoms: C_2  and  O_3
REMARK    3  A    between atoms: O_3  and  C_4
REMARK    4  A    between atoms: C_4  and  C_5
REMARK    5  A    between atoms: C_15  and  C_16
REMARK    6  A    between atoms: C_16  and  N_17
REMARK    7  A    between atoms: N_17  and  C_18
REMARK    8  A    between atoms: N_17  and  C_19
REMARK                            x       y       z     vdW  Elec       q    Type
REMARK                         _______ _______ _______ _____ _____    ______ ____
ROOT
ATOM      1  C   UNL     1       4.314   2.683  20.027  0.00  0.00    +0.000 C 
ATOM      2  O   UNL     1       5.203   1.905  20.381  0.00  0.00    +0.000 OA
ATOM      3  N   UNL     1       4.602   3.916  19.439  0.00  0.00    +0.000 N 
ATOM      4  C   UNL     1       6.016   4.166  19.180  0.00  0.00    +0.000 C 
ATOM      5  C   UNL     1       6.352   5.436  18.464  0.00  0.00    +0.000 A 
ATOM      6  N   UNL     1       7.507   6.062  18.610  0.00  0.00    +0.000 NA
ATOM      7  C   UNL     1       7.474   7.139  17.774  0.00  0.00    +0.000 A 
ATOM      8  C   UNL     1       6.273   7.191  17.107  0.00  0.00    +0.000 A 
ATOM      9  N   UNL     1       5.564   6.102  17.548  0.00  0.00    +0.000 N 
ATOM     10  C   UNL     1       4.282   5.690  17.011  0.00  0.00    +0.000 C 
ATOM     11  C   UNL     1       3.160   5.368  18.017  0.00  0.00    +0.000 C 
ATOM     12  C   UNL     1       3.666   5.033  19.424  0.00  0.00    +0.000 C 
ENDROOT
BRANCH   1  13
ATOM     13  C   UNL     1       2.845   2.250  20.131  0.00  0.00    +0.000 C 
BRANCH  13  14
ATOM     14  O   UNL     1       2.281   1.890  18.873  0.00  0.00    +0.000 OA
BRANCH  14  16
ATOM     15  C   UNL     1       0.609   3.207  19.972  0.00  0.00    +0.000 C 
ATOM     16  C   UNL     1       0.956   2.411  18.732  0.00  0.00    +0.000 C 
ENDBRANCH  14  16
ENDBRANCH  13  14
ENDBRANCH   1  13
BRANCH  11  17
ATOM     17  C   UNL     1       2.107   6.495  18.147  0.00  0.00    +0.000 C 
BRANCH  17  18
ATOM     18  N   UNL     1       2.561   7.773  18.727  0.00  0.00    +0.000 NA
ATOM     19  C   UNL     1       2.327   8.913  17.833  0.00  0.00    +0.000 C 
ATOM     20  C   UNL     1       1.845   8.006  19.991  0.00  0.00    +0.000 C 
ENDBRANCH  17  18
ENDBRANCH  11  17
TORSDOF 5
ENDMDL
MODEL 3
REMARK VINA RESULT:      -6.1      2.892      5.547
REMARK  Name = 
REMARK  8 active torsions:
REMARK  status: ('A' for Active; 'I' for Inactive)
REMARK    1  A    between atoms: C_1  and  C_2
REMARK    2  A    between atoms: C_2  and  O_3
REMARK    3  A    between atoms: O_3  and  C_4
REMARK    4  A    between atoms: C_4  and  C_5
REMARK    5  A    between atoms: C_15  and  C_16
REMARK    6  A    between atoms: C_16  and  N_17
REMARK    7  A    between atoms: N_17  and  C_18
REMARK    8  A    between atoms: N_17  and  C_19
REMARK                            x       y       z     vdW  Elec       q    Type
REMARK                         _______ _______ _______ _____ _____    ______ ____
ROOT
ATOM      1  C   UNL     1       6.733   6.068  17.439  0.00  0.00    +0.000 C 
ATOM      2  O   UNL     1       7.723   5.339  17.334  0.00  0.00    +0.000 OA
ATOM      3  N   UNL     1       5.451   5.549  17.623  0.00  0.00    +0.000 N 
ATOM      4  C   UNL     1       5.382   4.101  17.787  0.00  0.00    +0.000 C 
ATOM      5  C   UNL     1       4.034   3.522  18.081  0.00  0.00    +0.000 A 
ATOM      6  N   UNL     1       3.690   2.291  17.745  0.00  0.00    +0.000 NA
ATOM      7  C   UNL     1       2.424   2.100  18.216  0.00  0.00    +0.000 A 
ATOM      8  C   UNL     1       1.969   3.237  18.842  0.00  0.00    +0.000 A 
ATOM      9  N   UNL     1       3.000   4.137  18.755  0.00  0.00    +0.000 N 
ATOM     10  C   UNL     1       3.006   5.437  19.399  0.00  0.00    +0.000 C 
ATOM     11  C   UNL     1       3.414   6.651  18.545  0.00  0.00    +0.000 C 
ATOM     12  C   UNL     1       4.236   6.289  17.303  0.00  0.00    +0.000 C 
ENDROOT
BRANCH   1  13
ATOM     13  C   UNL     1       6.918   7.591  17.479  0.00  0.00    +0.000 C 
BRANCH  13  14
ATOM     14  O   UNL     1       8.145   7.986  18.085  0.00  0.00    +0.000 OA
BRANCH  14  16
ATOM     15  C   UNL     1       9.121   9.879  19.182  0.00  0.00    +0.000 C 
ATOM     16  C   UNL     1       8.346   9.399  17.974  0.00  0.00    +0.000 C 
ENDBRANCH  14  16
ENDBRANCH  13  14
ENDBRANCH   1  13
BRANCH  11  17
ATOM     17  C   UNL     1       2.214   7.513  18.085  0.00  0.00    +0.000 C 
BRANCH  17  18
ATOM     18  N   UNL     1       1.994   8.788  18.793  0.00  0.00    +0.000 NA
ATOM     19  C   UNL     1       1.039   9.661  18.101  0.00  0.00    +0.000 C 
ATOM     20  C   UNL     1       1.484   8.504  20.144  0.00  0.00    +0.000 C 
ENDBRANCH  17  18
ENDBRANCH  11  17
TORSDOF 5
ENDMDL
MODEL 4
REMARK VINA RESULT:      -6.1      2.603      4.620
REMARK  Name = 
REMARK  8 active torsions:
REMARK  status: ('A' for Active; 'I' for Inactive)
REMARK    1  A    between atoms: C_1  and  C_2
REMARK    2  A    between atoms: C_2  and  O_3
REMARK    3  A    between atoms: O_3  and  C_4
REMARK    4  A    between atoms: C_4  and  C_5
REMARK    5  A    between atoms: C_15  and  C_16
REMARK    6  A    between atoms: C_16  and  N_17
REMARK    7  A    between atoms: N_17  and  C_18
REMARK    8  A    between atoms: N_17  and  C_19
REMARK                            x       y       z     vdW  Elec       q    Type
REMARK                         _______ _______ _______ _____ _____    ______ ____
ROOT
ATOM      1  C   UNL     1       3.085   3.344  18.425  0.00  0.00    +0.000 C 
ATOM      2  O   UNL     1       3.471   2.179  18.542  0.00  0.00    +0.000 OA
ATOM      3  N   UNL     1       3.972   4.422  18.449  0.00  0.00    +0.000 N 
ATOM      4  C   UNL     1       5.384   4.064  18.513  0.00  0.00    +0.000 C 
ATOM      5  C   UNL     1       6.366   5.191  18.443  0.00  0.00    +0.000 A 
ATOM      6  N   UNL     1       7.567   5.136  18.993  0.00  0.00    +0.000 NA
ATOM      7  C   UNL     1       8.190   6.309  18.683  0.00  0.00    +0.000 A 
ATOM      8  C   UNL     1       7.357   7.112  17.940  0.00  0.00    +0.000 A 
ATOM      9  N   UNL     1       6.199   6.394  17.788  0.00  0.00    +0.000 N 
ATOM     10  C   UNL     1       5.083   6.807  16.958  0.00  0.00    +0.000 C 
ATOM     11  C   UNL     1       3.674   6.737  17.576  0.00  0.00    +0.000 C 
ATOM     12  C   UNL     1       3.566   5.784  18.771  0.00  0.00    +0.000 C 
ENDROOT
BRANCH   1  13
ATOM     13  C   UNL     1       1.603   3.625  18.138  0.00  0.00    +0.000 C 
BRANCH  13  14
ATOM     14  O   UNL     1       0.736   3.111  19.145  0.00  0.00    +0.000 OA
BRANCH  14  16
ATOM     15  C   UNL     1       1.302   2.862  21.460  0.00  0.00    +0.000 C 
ATOM     16  C   UNL     1       0.886   3.830  20.373  0.00  0.00    +0.000 C 
ENDBRANCH  14  16
ENDBRANCH  13  14
ENDBRANCH   1  13
BRANCH  11  17
ATOM     17  C   UNL     1       3.125   8.116  18.016  0.00  0.00    +0.000 C 
BRANCH  17  18
ATOM     18  N   UNL     1       1.734   8.157  18.507  0.00  0.00    +0.000 NA
ATOM     19  C   UNL     1       1.654   8.257  19.968  0.00  0.00    +0.000 C 
ATOM     20  C   UNL     1       1.052   9.318  17.913  0.00  0.00    +0.000 C 
ENDBRANCH  17  18
ENDBRANCH  11  17
TORSDOF 5
ENDMDL
MODEL 5
REMARK VINA RESULT:      -5.9      3.839      5.989
REMARK  Name = 
REMARK  8 active torsions:
REMARK  status: ('A' for Active; 'I' for Inactive)
REMARK    1  A    between atoms: C_1  and  C_2
REMARK    2  A    between atoms: C_2  and  O_3
REMARK    3  A    between atoms: O_3  and  C_4
REMARK    4  A    between atoms: C_4  and  C_5
REMARK    5  A    between atoms: C_15  and  C_16
REMARK    6  A    between atoms: C_16  and  N_17
REMARK    7  A    between atoms: N_17  and  C_18
REMARK    8  A    between atoms: N_17  and  C_19
REMARK                            x       y       z     vdW  Elec       q    Type
REMARK                         _______ _______ _______ _____ _____    ______ ____
ROOT
ATOM      1  C   UNL     1       6.116   4.045  13.789  0.00  0.00    +0.000 C 
ATOM      2  O   UNL     1       7.047   4.533  13.144  0.00  0.00    +0.000 OA
ATOM      3  N   UNL     1       6.034   4.169  15.177  0.00  0.00    +0.000 N 
ATOM      4  C   UNL     1       7.064   5.001  15.789  0.00  0.00    +0.000 C 
ATOM      5  C   UNL     1       6.951   5.233  17.262  0.00  0.00    +0.000 A 
ATOM      6  N   UNL     1       7.995   5.477  18.037  0.00  0.00    +0.000 NA
ATOM      7  C   UNL     1       7.506   5.685  19.292  0.00  0.00    +0.000 A 
ATOM      8  C   UNL     1       6.138   5.556  19.303  0.00  0.00    +0.000 A 
ATOM      9  N   UNL     1       5.790   5.271  18.007  0.00  0.00    +0.000 N 
ATOM     10  C   UNL     1       4.424   5.178  17.529  0.00  0.00    +0.000 C 
ATOM     11  C   UNL     1       4.052   3.954  16.672  0.00  0.00    +0.000 C 
ATOM     12  C   UNL     1       5.254   3.267  16.015  0.00  0.00    +0.000 C 
ENDROOT
BRANCH   1  13
ATOM     13  C   UNL     1       4.952   3.373  13.046  0.00  0.00    +0.000 C 
BRANCH  13  14
ATOM     14  O   UNL     1       4.886   3.740  11.671  0.00  0.00    +0.000 OA
BRANCH  14  16
ATOM     15  C   UNL     1       3.215   4.008   9.975  0.00  0.00    +0.000 C 
ATOM     16  C   UNL     1       3.806   3.074  11.010  0.00  0.00    +0.000 C 
ENDBRANCH  14  16
ENDBRANCH  13  14
ENDBRANCH   1  13
BRANCH  11  17
ATOM     17  C   UNL     1       3.256   2.877  17.448  0.00  0.00    +0.000 C 
BRANCH  17  18
ATOM     18  N   UNL     1       2.717   3.263  18.766  0.00  0.00    +0.000 NA
ATOM     19  C   UNL     1       1.277   3.006  18.884  0.00  0.00    +0.000 C 
ATOM     20  C   UNL     1       3.422   2.505  19.812  0.00  0.00    +0.000 C 
ENDBRANCH  17  18
ENDBRANCH  11  17
TORSDOF 5
ENDMDL
MODEL 6
REMARK VINA RESULT:      -5.9      0.801      1.013
REMARK  Name = 
REMARK  8 active torsions:
REMARK  status: ('A' for Active; 'I' for Inactive)
REMARK    1  A    between atoms: C_1  and  C_2
REMARK    2  A    between atoms: C_2  and  O_3
REMARK    3  A    between atoms: O_3  and  C_4
REMARK    4  A    between atoms: C_4  and  C_5
REMARK    5  A    between atoms: C_15  and  C_16
REMARK    6  A    between atoms: C_16  and  N_17
REMARK    7  A    between atoms: N_17  and  C_18
REMARK    8  A    between atoms: N_17  and  C_19
REMARK                            x       y       z     vdW  Elec       q    Type
REMARK                         _______ _______ _______ _____ _____    ______ ____
ROOT
ATOM      1  C   UNL     1       2.483   8.302  18.170  0.00  0.00    +0.000 C 
ATOM      2  O   UNL     1       2.546   9.332  17.494  0.00  0.00    +0.000 OA
ATOM      3  N   UNL     1       3.289   7.194  17.904  0.00  0.00    +0.000 N 
ATOM      4  C   UNL     1       4.277   7.382  16.848  0.00  0.00    +0.000 C 
ATOM      5  C   UNL     1       5.221   6.248  16.603  0.00  0.00    +0.000 A 
ATOM      6  N   UNL     1       5.782   6.018  15.427  0.00  0.00    +0.000 NA
ATOM      7  C   UNL     1       6.611   4.948  15.596  0.00  0.00    +0.000 A 
ATOM      8  C   UNL     1       6.554   4.497  16.893  0.00  0.00    +0.000 A 
ATOM      9  N   UNL     1       5.670   5.331  17.530  0.00  0.00    +0.000 N 
ATOM     10  C   UNL     1       5.401   5.302  18.955  0.00  0.00    +0.000 C 
ATOM     11  C   UNL     1       3.927   5.305  19.400  0.00  0.00    +0.000 C 
ATOM     12  C   UNL     1       2.960   5.843  18.340  0.00  0.00    +0.000 C 
ENDROOT
BRANCH   1  13
ATOM     13  C   UNL     1       1.572   8.263  19.405  0.00  0.00    +0.000 C 
BRANCH  13  14
ATOM     14  O   UNL     1       0.836   9.469  19.591  0.00  0.00    +0.000 OA
BRANCH  14  16
ATOM     15  C   UNL     1       1.220   8.818  21.864  0.00  0.00    +0.000 C 
ATOM     16  C   UNL     1       0.294   9.546  20.913  0.00  0.00    +0.000 C 
ENDBRANCH  14  16
ENDBRANCH  13  14
ENDBRANCH   1  13
BRANCH  11  17
ATOM     17  C   UNL     1       3.415   3.915  19.848  0.00  0.00    +0.000 C 
BRANCH  17  18
ATOM     18  N   UNL     1       4.146   2.737  19.342  0.00  0.00    +0.000 NA
ATOM     19  C   UNL     1       4.666   1.890  20.421  0.00  0.00    +0.000 C 
ATOM     20  C   UNL     1       3.241   1.936  18.503  0.00  0.00    +0.000 C 
ENDBRANCH  17  18
ENDBRANCH  11  17
TORSDOF 5
ENDMDL
MODEL 7
REMARK VINA RESULT:      -5.9      1.213      1.369
REMARK  Name = 
REMARK  8 active torsions:
REMARK  status: ('A' for Active; 'I' for Inactive)
REMARK    1  A    between atoms: C_1  and  C_2
REMARK    2  A    between atoms: C_2  and  O_3
REMARK    3  A    between atoms: O_3  and  C_4
REMARK    4  A    between atoms: C_4  and  C_5
REMARK    5  A    between atoms: C_15  and  C_16
REMARK    6  A    between atoms: C_16  and  N_17
REMARK    7  A    between atoms: N_17  and  C_18
REMARK    8  A    between atoms: N_17  and  C_19
REMARK                            x       y       z     vdW  Elec       q    Type
REMARK                         _______ _______ _______ _____ _____    ______ ____
ROOT
ATOM      1  C   UNL     1       2.414   8.265  18.211  0.00  0.00    +0.000 C 
ATOM      2  O   UNL     1       2.462   9.306  17.551  0.00  0.00    +0.000 OA
ATOM      3  N   UNL     1       3.222   7.166  17.917  0.00  0.00    +0.000 N 
ATOM      4  C   UNL     1       4.194   7.376  16.850  0.00  0.00    +0.000 C 
ATOM      5  C   UNL     1       5.141   6.251  16.574  0.00  0.00    +0.000 A 
ATOM      6  N   UNL     1       5.686   6.043  15.387  0.00  0.00    +0.000 NA
ATOM      7  C   UNL     1       6.522   4.975  15.527  0.00  0.00    +0.000 A 
ATOM      8  C   UNL     1       6.486   4.503  16.818  0.00  0.00    +0.000 A 
ATOM      9  N   UNL     1       5.607   5.322  17.480  0.00  0.00    +0.000 N 
ATOM     10  C   UNL     1       5.358   5.269  18.908  0.00  0.00    +0.000 C 
ATOM     11  C   UNL     1       3.890   5.257  19.373  0.00  0.00    +0.000 C 
ATOM     12  C   UNL     1       2.906   5.806  18.335  0.00  0.00    +0.000 C 
ENDROOT
BRANCH   1  13
ATOM     13  C   UNL     1       1.521   8.202  19.459  0.00  0.00    +0.000 C 
BRANCH  13  14
ATOM     14  O   UNL     1       1.207   9.489  19.982  0.00  0.00    +0.000 OA
BRANCH  14  16
ATOM     15  C   UNL     1      -0.679  10.474  18.881  0.00  0.00    +0.000 C 
ATOM     16  C   UNL     1      -0.209   9.677  20.079  0.00  0.00    +0.000 C 
ENDBRANCH  14  16
ENDBRANCH  13  14
ENDBRANCH   1  13
BRANCH  11  17
ATOM     17  C   UNL     1       3.392   3.857  19.806  0.00  0.00    +0.000 C 
BRANCH  17  18
ATOM     18  N   UNL     1       2.017   3.768  20.333  0.00  0.00    +0.000 NA
ATOM     19  C   UNL     1       1.193   2.801  19.598  0.00  0.00    +0.000 C 
ATOM     20  C   UNL     1       2.071   3.368  21.748  0.00  0.00    +0.000 C 
ENDBRANCH  17  18
ENDBRANCH  11  17
TORSDOF 5
ENDMDL
MODEL 8
REMARK VINA RESULT:      -5.9      2.552      5.850
REMARK  Name = 
REMARK  8 active torsions:
REMARK  status: ('A' for Active; 'I' for Inactive)
REMARK    1  A    between atoms: C_1  and  C_2
REMARK    2  A    between atoms: C_2  and  O_3
REMARK    3  A    between atoms: O_3  and  C_4
REMARK    4  A    between atoms: C_4  and  C_5
REMARK    5  A    between atoms: C_15  and  C_16
REMARK    6  A    between atoms: C_16  and  N_17
REMARK    7  A    between atoms: N_17  and  C_18
REMARK    8  A    between atoms: N_17  and  C_19
REMARK                            x       y       z     vdW  Elec       q    Type
REMARK                         _______ _______ _______ _____ _____    ______ ____
ROOT
ATOM      1  C   UNL     1       5.214   4.519  16.431  0.00  0.00    +0.000 C 
ATOM      2  O   UNL     1       5.912   3.526  16.218  0.00  0.00    +0.000 OA
ATOM      3  N   UNL     1       4.204   4.520  17.394  0.00  0.00    +0.000 N 
ATOM      4  C   UNL     1       4.109   3.305  18.196  0.00  0.00    +0.000 C 
ATOM      5  C   UNL     1       3.101   3.308  19.301  0.00  0.00    +0.000 A 
ATOM      6  N   UNL     1       2.521   2.208  19.752  0.00  0.00    +0.000 NA
ATOM      7  C   UNL     1       1.713   2.589  20.781  0.00  0.00    +0.000 A 
ATOM      8  C   UNL     1       1.780   3.950  20.966  0.00  0.00    +0.000 A 
ATOM      9  N   UNL     1       2.668   4.401  20.022  0.00  0.00    +0.000 N 
ATOM     10  C   UNL     1       3.142   5.769  19.935  0.00  0.00    +0.000 C 
ATOM     11  C   UNL     1       3.119   6.442  18.550  0.00  0.00    +0.000 C 
ATOM     12  C   UNL     1       3.085   5.453  17.380  0.00  0.00    +0.000 C 
ENDROOT
BRANCH   1  13
ATOM     13  C   UNL     1       5.523   5.832  15.697  0.00  0.00    +0.000 C 
BRANCH  13  14
ATOM     14  O   UNL     1       6.763   6.412  16.096  0.00  0.00    +0.000 OA
BRANCH  14  16
ATOM     15  C   UNL     1       7.797   7.988  17.573  0.00  0.00    +0.000 C 
ATOM     16  C   UNL     1       6.664   7.000  17.397  0.00  0.00    +0.000 C 
ENDBRANCH  14  16
ENDBRANCH  13  14
ENDBRANCH   1  13
BRANCH  11  17
ATOM     17  C   UNL     1       1.945   7.434  18.367  0.00  0.00    +0.000 C 
BRANCH  17  18
ATOM     18  N   UNL     1       2.115   8.786  18.934  0.00  0.00    +0.000 NA
ATOM     19  C   UNL     1       1.849   9.846  17.955  0.00  0.00    +0.000 C 
ATOM     20  C   UNL     1       1.196   8.947  20.071  0.00  0.00    +0.000 C 
ENDBRANCH  17  18
ENDBRANCH  11  17
TORSDOF 5
ENDMDL
MODEL 9
REMARK VINA RESULT:      -5.9      0.713      1.057
REMARK  Name = 
REMARK  8 active torsions:
REMARK  status: ('A' for Active; 'I' for Inactive)
REMARK    1  A    between atoms: C_1  and  C_2
REMARK    2  A    between atoms: C_2  and  O_3
REMARK    3  A    between atoms: O_3  and  C_4
REMARK    4  A    between atoms: C_4  and  C_5
REMARK    5  A    between atoms: C_15  and  C_16
REMARK    6  A    between atoms: C_16  and  N_17
REMARK    7  A    between atoms: N_17  and  C_18
REMARK    8  A    between atoms: N_17  and  C_19
REMARK                            x       y       z     vdW  Elec       q    Type
REMARK                         _______ _______ _______ _____ _____    ______ ____
ROOT
ATOM      1  C   UNL     1       2.665   7.911  18.206  0.00  0.00    +0.000 C 
ATOM      2  O   UNL     1       2.708   9.005  17.638  0.00  0.00    +0.000 OA
ATOM      3  N   UNL     1       3.473   6.842  17.813  0.00  0.00    +0.000 N 
ATOM      4  C   UNL     1       4.437   7.146  16.761  0.00  0.00    +0.000 C 
ATOM      5  C   UNL     1       5.383   6.051  16.382  0.00  0.00    +0.000 A 
ATOM      6  N   UNL     1       5.919   5.946  15.177  0.00  0.00    +0.000 NA
ATOM      7  C   UNL     1       6.758   4.872  15.219  0.00  0.00    +0.000 A 
ATOM      8  C   UNL     1       6.733   4.290  16.464  0.00  0.00    +0.000 A 
ATOM      9  N   UNL     1       5.857   5.048  17.201  0.00  0.00    +0.000 N 
ATOM     10  C   UNL     1       5.619   4.871  18.621  0.00  0.00    +0.000 C 
ATOM     11  C   UNL     1       4.154   4.817  19.094  0.00  0.00    +0.000 C 
ATOM     12  C   UNL     1       3.162   5.451  18.115  0.00  0.00    +0.000 C 
ENDROOT
BRANCH   1  13
ATOM     13  C   UNL     1       1.782   7.738  19.450  0.00  0.00    +0.000 C 
BRANCH  13  14
ATOM     14  O   UNL     1       1.276   8.974  19.947  0.00  0.00    +0.000 OA
BRANCH  14  16
ATOM     15  C   UNL     1      -0.319   8.591  21.692  0.00  0.00    +0.000 C 
ATOM     16  C   UNL     1       1.119   8.934  21.369  0.00  0.00    +0.000 C 
ENDBRANCH  14  16
ENDBRANCH  13  14
ENDBRANCH   1  13
BRANCH  11  17
ATOM     17  C   UNL     1       3.662   3.383  19.409  0.00  0.00    +0.000 C 
BRANCH  17  18
ATOM     18  N   UNL     1       2.830   3.211  20.615  0.00  0.00    +0.000 NA
ATOM     19  C   UNL     1       2.373   4.488  21.172  0.00  0.00    +0.000 C 
ATOM     20  C   UNL     1       1.655   2.393  20.274  0.00  0.00    +0.000 C 
ENDBRANCH  17  18
ENDBRANCH  11  17
TORSDOF 5
ENDMDL
