MODEL 1
REMARK VINA RESULT:      -6.7      0.000      0.000
REMARK  Name = 
REMARK  14 active torsions:
REMARK  status: ('A' for Active; 'I' for Inactive)
REMARK    1  A    between atoms: C_1  and  N_2
REMARK    2  A    between atoms: N_2  and  C_3
REMARK    3  A    between atoms: C_3  and  C_4
REMARK    4  A    between atoms: C_4  and  O_5
REMARK    5  A    between atoms: C_4  and  C_6
REMARK    6  A    between atoms: C_6  and  N_7
REMARK    7  A    between atoms: C_8  and  O_10
REMARK    8  A    between atoms: O_10  and  C_11
REMARK    9  A    between atoms: C_11  and  C_12
REMARK   10  A    between atoms: C_11  and  C_13
REMARK   11  A    between atoms: C_11  and  C_14
REMARK   12  A    between atoms: C_15  and  C_17
REMARK   13  A    between atoms: C_17  and  C_18
REMARK   14  A    between atoms: C_18  and  C_19
REMARK                            x       y       z     vdW  Elec       q    Type
REMARK                         _______ _______ _______ _____ _____    ______ ____
ROOT
ATOM      1  C   UNL     1       6.228   5.437  18.552  0.00  0.00    +0.000 C 
ENDROOT
BRANCH   1   3
ATOM      2  C   UNL     1       4.319   6.896  17.701  0.00  0.00    +0.000 C 
ATOM      3  N   UNL     1       4.957   5.589  17.805  0.00  0.00    +0.000 N 
ATOM      4  C   UNL     1       4.095   4.523  17.516  0.00  0.00    +0.000 C 
ATOM      5  O   UNL     1       2.950   4.714  17.099  0.00  0.00    +0.000 OA
BRANCH   4   6
ATOM      6  C   UNL     1       4.610   3.116  17.733  0.00  0.00    +0.000 C 
BRANCH   6   7
ATOM      7  C   UNL     1       3.454   2.144  17.998  0.00  0.00    +0.000 C 
BRANCH   7   8
ATOM      8  C   UNL     1       2.703   2.435  19.273  0.00  0.00    +0.000 A 
ATOM      9  C   UNL     1       1.332   2.684  19.224  0.00  0.00    +0.000 A 
ATOM     10  C   UNL     1       0.653   2.950  20.410  0.00  0.00    +0.000 A 
ATOM     11  C   UNL     1       1.356   2.963  21.608  0.00  0.00    +0.000 A 
ATOM     12  C   UNL     1       2.712   2.709  21.571  0.00  0.00    +0.000 A 
ATOM     13  N   UNL     1       3.399   2.448  20.436  0.00  0.00    +0.000 NA
ENDBRANCH   7   8
ENDBRANCH   6   7
ENDBRANCH   4   6
ENDBRANCH   1   3
BRANCH   1  14
ATOM     14  C   UNL     1       7.516   5.360  17.694  0.00  0.00    +0.000 C 
BRANCH  14  15
ATOM     15  O   UNL     1       8.008   4.013  17.576  0.00  0.00    +0.000 OA
ATOM     16  H   UNL     1       7.821   3.547  18.409  0.00  0.00    +0.000 HD
ENDBRANCH  14  15
BRANCH  14  17
ATOM     17  C   UNL     1       7.262   5.841  16.259  0.00  0.00    +0.000 C 
BRANCH  17  18
ATOM     18  N   UNL     1       7.318   4.750  15.299  0.00  0.00    +0.000 N 
ATOM     19  C   UNL     1       6.235   4.487  14.519  0.00  0.00    +0.000 C 
ATOM     20  O   UNL     1       5.233   5.196  14.514  0.00  0.00    +0.000 OA
ATOM     21  H   UNL     1       7.998   4.008  15.417  0.00  0.00    +0.000 HD
BRANCH  19  22
ATOM     22  O   UNL     1       6.412   3.349  13.797  0.00  0.00    +0.000 OA
BRANCH  22  23
ATOM     23  C   UNL     1       6.360   3.438  12.345  0.00  0.00    +0.000 C 
ATOM     24  C   UNL     1       6.793   2.118  11.688  0.00  0.00    +0.000 C 
ATOM     25  C   UNL     1       4.893   3.699  11.962  0.00  0.00    +0.000 C 
ATOM     26  C   UNL     1       7.190   4.632  11.849  0.00  0.00    +0.000 C 
ENDBRANCH  22  23
ENDBRANCH  19  22
ENDBRANCH  17  18
ENDBRANCH  14  17
ENDBRANCH   1  14
TORSDOF 10
ENDMDL
MODEL 2
REMARK VINA RESULT:      -6.6      3.788      7.468
REMARK  Name = 
REMARK  14 active torsions:
REMARK  status: ('A' for Active; 'I' for Inactive)
REMARK    1  A    between atoms: C_1  and  N_2
REMARK    2  A    between atoms: N_2  and  C_3
REMARK    3  A    between atoms: C_3  and  C_4
REMARK    4  A    between atoms: C_4  and  O_5
REMARK    5  A    between atoms: C_4  and  C_6
REMARK    6  A    between atoms: C_6  and  N_7
REMARK    7  A    between atoms: C_8  and  O_10
REMARK    8  A    between atoms: O_10  and  C_11
REMARK    9  A    between atoms: C_11  and  C_12
REMARK   10  A    between atoms: C_11  and  C_13
REMARK   11  A    between atoms: C_11  and  C_14
REMARK   12  A    between atoms: C_15  and  C_17
REMARK   13  A    between atoms: C_17  and  C_18
REMARK   14  A    between atoms: C_18  and  C_19
REMARK                            x       y       z     vdW  Elec       q    Type
REMARK                         _______ _______ _______ _____ _____    ______ ____
ROOT
ATOM      1  C   UNL     1       3.155   4.989  19.898  0.00  0.00    +0.000 C 
ENDROOT
BRANCH   1   3
ATOM      2  C   UNL     1       2.284   2.620  20.247  0.00  0.00    +0.000 C 
ATOM      3  N   UNL     1       2.724   3.681  19.350  0.00  0.00    +0.000 N 
ATOM      4  C   UNL     1       3.069   3.224  18.071  0.00  0.00    +0.000 C 
ATOM      5  O   UNL     1       2.889   2.051  17.735  0.00  0.00    +0.000 OA
BRANCH   4   6
ATOM      6  C   UNL     1       3.677   4.217  17.103  0.00  0.00    +0.000 C 
BRANCH   6   7
ATOM      7  C   UNL     1       5.153   3.892  16.840  0.00  0.00    +0.000 C 
BRANCH   7   8
ATOM      8  C   UNL     1       6.105   4.904  17.426  0.00  0.00    +0.000 A 
ATOM      9  C   UNL     1       6.401   6.065  16.711  0.00  0.00    +0.000 A 
ATOM     10  C   UNL     1       7.282   6.990  17.266  0.00  0.00    +0.000 A 
ATOM     11  C   UNL     1       7.843   6.734  18.511  0.00  0.00    +0.000 A 
ATOM     12  C   UNL     1       7.501   5.560  19.150  0.00  0.00    +0.000 A 
ATOM     13  N   UNL     1       6.651   4.643  18.638  0.00  0.00    +0.000 NA
ENDBRANCH   7   8
ENDBRANCH   6   7
ENDBRANCH   4   6
ENDBRANCH   1   3
BRANCH   1  14
ATOM     14  C   UNL     1       2.088   6.112  19.898  0.00  0.00    +0.000 C 
BRANCH  14  15
ATOM     15  O   UNL     1       1.967   6.743  21.186  0.00  0.00    +0.000 OA
ATOM     16  H   UNL     1       1.905   6.047  21.861  0.00  0.00    +0.000 HD
ENDBRANCH  14  15
BRANCH  14  17
ATOM     17  C   UNL     1       2.455   7.232  18.915  0.00  0.00    +0.000 C 
BRANCH  17  18
ATOM     18  N   UNL     1       1.876   8.509  19.301  0.00  0.00    +0.000 N 
ATOM     19  C   UNL     1       1.740   9.491  18.370  0.00  0.00    +0.000 C 
ATOM     20  O   UNL     1       1.995   9.319  17.181  0.00  0.00    +0.000 OA
ATOM     21  H   UNL     1       1.867   8.786  20.275  0.00  0.00    +0.000 HD
BRANCH  19  22
ATOM     22  O   UNL     1       1.325  10.654  18.937  0.00  0.00    +0.000 OA
BRANCH  22  23
ATOM     23  C   UNL     1      -0.105  10.916  19.007  0.00  0.00    +0.000 C 
ATOM     24  C   UNL     1      -0.647  10.684  20.427  0.00  0.00    +0.000 C 
ATOM     25  C   UNL     1      -0.308  12.402  18.660  0.00  0.00    +0.000 C 
ATOM     26  C   UNL     1      -0.857  10.086  17.956  0.00  0.00    +0.000 C 
ENDBRANCH  22  23
ENDBRANCH  19  22
ENDBRANCH  17  18
ENDBRANCH  14  17
ENDBRANCH   1  14
TORSDOF 10
ENDMDL
MODEL 3
REMARK VINA RESULT:      -6.5      3.852      5.800
REMARK  Name = 
REMARK  14 active torsions:
REMARK  status: ('A' for Active; 'I' for Inactive)
REMARK    1  A    between atoms: C_1  and  N_2
REMARK    2  A    between atoms: N_2  and  C_3
REMARK    3  A    between atoms: C_3  and  C_4
REMARK    4  A    between atoms: C_4  and  O_5
REMARK    5  A    between atoms: C_4  and  C_6
REMARK    6  A    between atoms: C_6  and  N_7
REMARK    7  A    between atoms: C_8  and  O_10
REMARK    8  A    between atoms: O_10  and  C_11
REMARK    9  A    between atoms: C_11  and  C_12
REMARK   10  A    between atoms: C_11  and  C_13
REMARK   11  A    between atoms: C_11  and  C_14
REMARK   12  A    between atoms: C_15  and  C_17
REMARK   13  A    between atoms: C_17  and  C_18
REMARK   14  A    between atoms: C_18  and  C_19
REMARK                            x       y       z     vdW  Elec       q    Type
REMARK                         _______ _______ _______ _____ _____    ______ ____
ROOT
ATOM      1  C   UNL     1       7.696   4.872  17.671  0.00  0.00    +0.000 C 
ENDROOT
BRANCH   1   3
ATOM      2  C   UNL     1       7.068   5.184  15.221  0.00  0.00    +0.000 C 
ATOM      3  N   UNL     1       6.762   4.649  16.542  0.00  0.00    +0.000 N 
ATOM      4  C   UNL     1       5.414   4.306  16.707  0.00  0.00    +0.000 C 
ATOM      5  O   UNL     1       4.618   4.351  15.766  0.00  0.00    +0.000 OA
BRANCH   4   6
ATOM      6  C   UNL     1       4.954   3.877  18.084  0.00  0.00    +0.000 C 
BRANCH   6   7
ATOM      7  C   UNL     1       3.770   2.906  17.988  0.00  0.00    +0.000 C 
BRANCH   7   8
ATOM      8  C   UNL     1       2.886   2.913  19.210  0.00  0.00    +0.000 A 
ATOM      9  C   UNL     1       1.530   3.214  19.078  0.00  0.00    +0.000 A 
ATOM     10  C   UNL     1       0.727   3.214  20.215  0.00  0.00    +0.000 A 
ATOM     11  C   UNL     1       1.295   2.919  21.449  0.00  0.00    +0.000 A 
ATOM     12  C   UNL     1       2.644   2.636  21.495  0.00  0.00    +0.000 A 
ATOM     13  N   UNL     1       3.450   2.628  20.409  0.00  0.00    +0.000 NA
ENDBRANCH   7   8
ENDBRANCH   6   7
ENDBRANCH   4   6
ENDBRANCH   1   3
BRANCH   1  14
ATOM     14  C   UNL     1       7.386   6.090  18.579  0.00  0.00    +0.000 C 
BRANCH  14  15
ATOM     15  O   UNL     1       8.056   6.002  19.850  0.00  0.00    +0.000 OA
ATOM     16  H   UNL     1       7.677   6.674  20.441  0.00  0.00    +0.000 HD
ENDBRANCH  14  15
BRANCH  14  17
ATOM     17  C   UNL     1       7.867   7.400  17.940  0.00  0.00    +0.000 C 
BRANCH  17  18
ATOM     18  N   UNL     1       8.571   8.245  18.892  0.00  0.00    +0.000 N 
ATOM     19  C   UNL     1       8.695   9.575  18.641  0.00  0.00    +0.000 C 
ATOM     20  O   UNL     1       8.152  10.126  17.688  0.00  0.00    +0.000 OA
ATOM     21  H   UNL     1       9.221   7.831  19.550  0.00  0.00    +0.000 HD
BRANCH  19  22
ATOM     22  O   UNL     1       9.506  10.175  19.553  0.00  0.00    +0.000 OA
BRANCH  22  23
ATOM     23  C   UNL     1      10.183  11.405  19.170  0.00  0.00    +0.000 C 
ATOM     24  C   UNL     1      10.446  11.451  17.656  0.00  0.00    +0.000 C 
ATOM     25  C   UNL     1       9.237  12.568  19.521  0.00  0.00    +0.000 C 
ATOM     26  C   UNL     1      11.470  11.589  19.988  0.00  0.00    +0.000 C 
ENDBRANCH  22  23
ENDBRANCH  19  22
ENDBRANCH  17  18
ENDBRANCH  14  17
ENDBRANCH   1  14
TORSDOF 10
ENDMDL
MODEL 4
REMARK VINA RESULT:      -6.4      4.520      6.369
REMARK  Name = 
REMARK  14 active torsions:
REMARK  status: ('A' for Active; 'I' for Inactive)
REMARK    1  A    between atoms: C_1  and  N_2
REMARK    2  A    between atoms: N_2  and  C_3
REMARK    3  A    between atoms: C_3  and  C_4
REMARK    4  A    between atoms: C_4  and  O_5
REMARK    5  A    between atoms: C_4  and  C_6
REMARK    6  A    between atoms: C_6  and  N_7
REMARK    7  A    between atoms: C_8  and  O_10
REMARK    8  A    between atoms: O_10  and  C_11
REMARK    9  A    between atoms: C_11  and  C_12
REMARK   10  A    between atoms: C_11  and  C_13
REMARK   11  A    between atoms: C_11  and  C_14
REMARK   12  A    between atoms: C_15  and  C_17
REMARK   13  A    between atoms: C_17  and  C_18
REMARK   14  A    between atoms: C_18  and  C_19
REMARK                            x       y       z     vdW  Elec       q    Type
REMARK                         _______ _______ _______ _____ _____    ______ ____
ROOT
ATOM      1  C   UNL     1       6.978   6.066  18.477  0.00  0.00    +0.000 C 
ENDROOT
BRANCH   1   3
ATOM      2  C   UNL     1       6.962   4.317  16.624  0.00  0.00    +0.000 C 
ATOM      3  N   UNL     1       6.243   5.120  17.606  0.00  0.00    +0.000 N 
ATOM      4  C   UNL     1       4.866   5.203  17.358  0.00  0.00    +0.000 C 
ATOM      5  O   UNL     1       4.332   4.547  16.459  0.00  0.00    +0.000 OA
BRANCH   4   6
ATOM      6  C   UNL     1       4.043   6.128  18.229  0.00  0.00    +0.000 C 
BRANCH   6   7
ATOM      7  C   UNL     1       2.549   5.802  18.115  0.00  0.00    +0.000 C 
BRANCH   7   8
ATOM      8  C   UNL     1       2.088   4.743  19.085  0.00  0.00    +0.000 A 
ATOM      9  C   UNL     1       2.410   4.861  20.437  0.00  0.00    +0.000 A 
ATOM     10  C   UNL     1       1.977   3.876  21.320  0.00  0.00    +0.000 A 
ATOM     11  C   UNL     1       1.238   2.804  20.835  0.00  0.00    +0.000 A 
ATOM     12  C   UNL     1       0.964   2.760  19.483  0.00  0.00    +0.000 A 
ATOM     13  N   UNL     1       1.372   3.700  18.601  0.00  0.00    +0.000 NA
ENDBRANCH   7   8
ENDBRANCH   6   7
ENDBRANCH   4   6
ENDBRANCH   1   3
BRANCH   1  14
ATOM     14  C   UNL     1       7.817   7.149  17.750  0.00  0.00    +0.000 C 
BRANCH  14  15
ATOM     15  O   UNL     1       7.028   7.910  16.818  0.00  0.00    +0.000 OA
ATOM     16  H   UNL     1       7.053   7.458  15.958  0.00  0.00    +0.000 HD
ENDBRANCH  14  15
BRANCH  14  17
ATOM     17  C   UNL     1       8.393   8.168  18.743  0.00  0.00    +0.000 C 
BRANCH  17  18
ATOM     18  N   UNL     1       8.687   9.443  18.108  0.00  0.00    +0.000 N 
ATOM     19  C   UNL     1       9.150  10.475  18.861  0.00  0.00    +0.000 C 
ATOM     20  O   UNL     1       9.431  10.356  20.051  0.00  0.00    +0.000 OA
ATOM     21  H   UNL     1       8.269   9.669  17.213  0.00  0.00    +0.000 HD
BRANCH  19  22
ATOM     22  O   UNL     1       9.224  11.622  18.135  0.00  0.00    +0.000 OA
BRANCH  22  23
ATOM     23  C   UNL     1      10.392  12.473  18.307  0.00  0.00    +0.000 C 
ATOM     24  C   UNL     1      10.561  13.436  17.121  0.00  0.00    +0.000 C 
ATOM     25  C   UNL     1      10.151  13.318  19.571  0.00  0.00    +0.000 C 
ATOM     26  C   UNL     1      11.648  11.623  18.548  0.00  0.00    +0.000 C 
ENDBRANCH  22  23
ENDBRANCH  19  22
ENDBRANCH  17  18
ENDBRANCH  14  17
ENDBRANCH   1  14
TORSDOF 10
ENDMDL
MODEL 5
REMARK VINA RESULT:      -6.3      4.258      8.222
REMARK  Name = 
REMARK  14 active torsions:
REMARK  status: ('A' for Active; 'I' for Inactive)
REMARK    1  A    between atoms: C_1  and  N_2
REMARK    2  A    between atoms: N_2  and  C_3
REMARK    3  A    between atoms: C_3  and  C_4
REMARK    4  A    between atoms: C_4  and  O_5
REMARK    5  A    between atoms: C_4  and  C_6
REMARK    6  A    between atoms: C_6  and  N_7
REMARK    7  A    between atoms: C_8  and  O_10
REMARK    8  A    between atoms: O_10  and  C_11
REMARK    9  A    between atoms: C_11  and  C_12
REMARK   10  A    between atoms: C_11  and  C_13
REMARK   11  A    between atoms: C_11  and  C_14
REMARK   12  A    between atoms: C_15  and  C_17
REMARK   13  A    between atoms: C_17  and  C_18
REMARK   14  A    between atoms: C_18  and  C_19
REMARK                            x       y       z     vdW  Elec       q    Type
REMARK                         _______ _______ _______ _____ _____    ______ ____
ROOT
ATOM      1  C   UNL     1       2.922   4.794  20.038  0.00  0.00    +0.000 C 
ENDROOT
BRANCH   1   3
ATOM      2  C   UNL     1       0.873   3.510  19.235  0.00  0.00    +0.000 C 
ATOM      3  N   UNL     1       2.274   3.877  19.071  0.00  0.00    +0.000 N 
ATOM      4  C   UNL     1       2.984   3.009  18.230  0.00  0.00    +0.000 C 
ATOM      5  O   UNL     1       2.417   2.107  17.609  0.00  0.00    +0.000 OA
BRANCH   4   6
ATOM      6  C   UNL     1       4.479   3.210  18.103  0.00  0.00    +0.000 C 
BRANCH   6   7
ATOM      7  C   UNL     1       4.799   4.313  17.086  0.00  0.00    +0.000 C 
BRANCH   7   8
ATOM      8  C   UNL     1       5.892   5.249  17.538  0.00  0.00    +0.000 A 
ATOM      9  C   UNL     1       6.039   6.487  16.913  0.00  0.00    +0.000 A 
ATOM     10  C   UNL     1       7.052   7.341  17.342  0.00  0.00    +0.000 A 
ATOM     11  C   UNL     1       7.889   6.938  18.376  0.00  0.00    +0.000 A 
ATOM     12  C   UNL     1       7.678   5.696  18.939  0.00  0.00    +0.000 A 
ATOM     13  N   UNL     1       6.705   4.845  18.544  0.00  0.00    +0.000 NA
ENDBRANCH   7   8
ENDBRANCH   6   7
ENDBRANCH   4   6
ENDBRANCH   1   3
BRANCH   1  14
ATOM     14  C   UNL     1       2.730   6.309  19.772  0.00  0.00    +0.000 C 
BRANCH  14  15
ATOM     15  O   UNL     1       2.451   6.585  18.388  0.00  0.00    +0.000 OA
ATOM     16  H   UNL     1       3.192   7.100  18.025  0.00  0.00    +0.000 HD
ENDBRANCH  14  15
BRANCH  14  17
ATOM     17  C   UNL     1       1.536   6.867  20.560  0.00  0.00    +0.000 C 
BRANCH  17  18
ATOM     18  N   UNL     1       1.775   8.226  21.022  0.00  0.00    +0.000 N 
ATOM     19  C   UNL     1       0.750   8.939  21.561  0.00  0.00    +0.000 C 
ATOM     20  O   UNL     1      -0.358   8.454  21.771  0.00  0.00    +0.000 OA
ATOM     21  H   UNL     1       2.572   8.745  20.674  0.00  0.00    +0.000 HD
BRANCH  19  22
ATOM     22  O   UNL     1       1.115  10.227  21.794  0.00  0.00    +0.000 OA
BRANCH  22  23
ATOM     23  C   UNL     1       0.334  11.289  21.177  0.00  0.00    +0.000 C 
ATOM     24  C   UNL     1      -0.678  11.887  22.168  0.00  0.00    +0.000 C 
ATOM     25  C   UNL     1       1.320  12.401  20.780  0.00  0.00    +0.000 C 
ATOM     26  C   UNL     1      -0.341  10.784  19.893  0.00  0.00    +0.000 C 
ENDBRANCH  22  23
ENDBRANCH  19  22
ENDBRANCH  17  18
ENDBRANCH  14  17
ENDBRANCH   1  14
TORSDOF 10
ENDMDL
MODEL 6
REMARK VINA RESULT:      -6.3      3.758      7.312
REMARK  Name = 
REMARK  14 active torsions:
REMARK  status: ('A' for Active; 'I' for Inactive)
REMARK    1  A    between atoms: C_1  and  N_2
REMARK    2  A    between atoms: N_2  and  C_3
REMARK    3  A    between atoms: C_3  and  C_4
REMARK    4  A    between atoms: C_4  and  O_5
REMARK    5  A    between atoms: C_4  and  C_6
REMARK    6  A    between atoms: C_6  and  N_7
REMARK    7  A    between atoms: C_8  and  O_10
REMARK    8  A    between atoms: O_10  and  C_11
REMARK    9  A    between atoms: C_11  and  C_12
REMARK   10  A    between atoms: C_11  and  C_13
REMARK   11  A    between atoms: C_11  and  C_14
REMARK   12  A    between atoms: C_15  and  C_17
REMARK   13  A    between atoms: C_17  and  C_18
REMARK   14  A    between atoms: C_18  and  C_19
REMARK                            x       y       z     vdW  Elec       q    Type
REMARK                         _______ _______ _______ _____ _____    ______ ____
ROOT
ATOM      1  C   UNL     1       1.547   4.960  19.845  0.00  0.00    +0.000 C 
ENDROOT
BRANCH   1   3
ATOM      2  C   UNL     1       2.323   3.120  21.427  0.00  0.00    +0.000 C 
ATOM      3  N   UNL     1       2.143   3.623  20.071  0.00  0.00    +0.000 N 
ATOM      4  C   UNL     1       2.919   2.949  19.119  0.00  0.00    +0.000 C 
ATOM      5  O   UNL     1       3.583   1.952  19.416  0.00  0.00    +0.000 OA
BRANCH   4   6
ATOM      6  C   UNL     1       2.922   3.480  17.701  0.00  0.00    +0.000 C 
BRANCH   6   7
ATOM      7  C   UNL     1       4.306   3.323  17.060  0.00  0.00    +0.000 C 
BRANCH   7   8
ATOM      8  C   UNL     1       5.225   4.490  17.319  0.00  0.00    +0.000 A 
ATOM      9  C   UNL     1       5.030   5.687  16.628  0.00  0.00    +0.000 A 
ATOM     10  C   UNL     1       5.885   6.756  16.879  0.00  0.00    +0.000 A 
ATOM     11  C   UNL     1       6.910   6.604  17.806  0.00  0.00    +0.000 A 
ATOM     12  C   UNL     1       7.037   5.387  18.444  0.00  0.00    +0.000 A 
ATOM     13  N   UNL     1       6.223   4.331  18.221  0.00  0.00    +0.000 NA
ENDBRANCH   7   8
ENDBRANCH   6   7
ENDBRANCH   4   6
ENDBRANCH   1   3
BRANCH   1  14
ATOM     14  C   UNL     1       2.496   6.170  20.037  0.00  0.00    +0.000 C 
BRANCH  14  15
ATOM     15  O   UNL     1       3.880   5.777  20.043  0.00  0.00    +0.000 OA
ATOM     16  H   UNL     1       3.930   4.844  20.311  0.00  0.00    +0.000 HD
ENDBRANCH  14  15
BRANCH  14  17
ATOM     17  C   UNL     1       2.351   7.181  18.890  0.00  0.00    +0.000 C 
BRANCH  17  18
ATOM     18  N   UNL     1       1.775   8.438  19.340  0.00  0.00    +0.000 N 
ATOM     19  C   UNL     1       1.713   9.491  18.482  0.00  0.00    +0.000 C 
ATOM     20  O   UNL     1       2.033   9.404  17.300  0.00  0.00    +0.000 OA
ATOM     21  H   UNL     1       1.715   8.640  20.331  0.00  0.00    +0.000 HD
BRANCH  19  22
ATOM     22  O   UNL     1       1.289  10.617  19.113  0.00  0.00    +0.000 OA
BRANCH  22  23
ATOM     23  C   UNL     1      -0.113  10.991  18.989  0.00  0.00    +0.000 C 
ATOM     24  C   UNL     1      -0.853  10.069  18.007  0.00  0.00    +0.000 C 
ATOM     25  C   UNL     1      -0.751  10.812  20.378  0.00  0.00    +0.000 C 
ATOM     26  C   UNL     1      -0.243  12.472  18.605  0.00  0.00    +0.000 C 
ENDBRANCH  22  23
ENDBRANCH  19  22
ENDBRANCH  17  18
ENDBRANCH  14  17
ENDBRANCH   1  14
TORSDOF 10
ENDMDL
MODEL 7
REMARK VINA RESULT:      -6.3      0.784      1.215
REMARK  Name = 
REMARK  14 active torsions:
REMARK  status: ('A' for Active; 'I' for Inactive)
REMARK    1  A    between atoms: C_1  and  N_2
REMARK    2  A    between atoms: N_2  and  C_3
REMARK    3  A    between atoms: C_3  and  C_4
REMARK    4  A    between atoms: C_4  and  O_5
REMARK    5  A    between atoms: C_4  and  C_6
REMARK    6  A    between atoms: C_6  and  N_7
REMARK    7  A    between atoms: C_8  and  O_10
REMARK    8  A    between atoms: O_10  and  C_11
REMARK    9  A    between atoms: C_11  and  C_12
REMARK   10  A    between atoms: C_11  and  C_13
REMARK   11  A    between atoms: C_11  and  C_14
REMARK   12  A    between atoms: C_15  and  C_17
REMARK   13  A    between atoms: C_17  and  C_18
REMARK   14  A    between atoms: C_18  and  C_19
REMARK                            x       y       z     vdW  Elec       q    Type
REMARK                         _______ _______ _______ _____ _____    ______ ____
ROOT
ATOM      1  C   UNL     1       5.594   4.439  17.879  0.00  0.00    +0.000 C 
ENDROOT
BRANCH   1   3
ATOM      2  C   UNL     1       4.208   6.467  18.556  0.00  0.00    +0.000 C 
ATOM      3  N   UNL     1       4.326   5.204  17.837  0.00  0.00    +0.000 N 
ATOM      4  C   UNL     1       3.091   4.640  17.493  0.00  0.00    +0.000 C 
ATOM      5  O   UNL     1       2.031   5.242  17.686  0.00  0.00    +0.000 OA
BRANCH   4   6
ATOM      6  C   UNL     1       3.090   3.259  16.872  0.00  0.00    +0.000 C 
BRANCH   6   7
ATOM      7  C   UNL     1       2.142   2.320  17.628  0.00  0.00    +0.000 C 
BRANCH   7   8
ATOM      8  C   UNL     1       2.225   2.461  19.127  0.00  0.00    +0.000 A 
ATOM      9  C   UNL     1       1.082   2.799  19.851  0.00  0.00    +0.000 A 
ATOM     10  C   UNL     1       1.174   2.924  21.235  0.00  0.00    +0.000 A 
ATOM     11  C   UNL     1       2.398   2.712  21.857  0.00  0.00    +0.000 A 
ATOM     12  C   UNL     1       3.482   2.384  21.068  0.00  0.00    +0.000 A 
ATOM     13  N   UNL     1       3.424   2.256  19.724  0.00  0.00    +0.000 NA
ENDBRANCH   7   8
ENDBRANCH   6   7
ENDBRANCH   4   6
ENDBRANCH   1   3
BRANCH   1  14
ATOM     14  C   UNL     1       6.896   5.279  17.904  0.00  0.00    +0.000 C 
BRANCH  14  15
ATOM     15  O   UNL     1       8.017   4.527  18.404  0.00  0.00    +0.000 OA
ATOM     16  H   UNL     1       8.425   5.033  19.127  0.00  0.00    +0.000 HD
ENDBRANCH  14  15
BRANCH  14  17
ATOM     17  C   UNL     1       7.293   5.736  16.493  0.00  0.00    +0.000 C 
BRANCH  17  18
ATOM     18  N   UNL     1       7.278   4.639  15.539  0.00  0.00    +0.000 N 
ATOM     19  C   UNL     1       6.325   4.607  14.571  0.00  0.00    +0.000 C 
ATOM     20  O   UNL     1       5.523   5.521  14.397  0.00  0.00    +0.000 OA
ATOM     21  H   UNL     1       7.743   3.767  15.765  0.00  0.00    +0.000 HD
BRANCH  19  22
ATOM     22  O   UNL     1       6.371   3.442  13.871  0.00  0.00    +0.000 OA
BRANCH  22  23
ATOM     23  C   UNL     1       6.305   3.507  12.419  0.00  0.00    +0.000 C 
ATOM     24  C   UNL     1       4.869   3.766  11.935  0.00  0.00    +0.000 C 
ATOM     25  C   UNL     1       7.174   4.699  11.981  0.00  0.00    +0.000 C 
ATOM     26  C   UNL     1       6.906   2.239  11.795  0.00  0.00    +0.000 C 
ENDBRANCH  22  23
ENDBRANCH  19  22
ENDBRANCH  17  18
ENDBRANCH  14  17
ENDBRANCH   1  14
TORSDOF 10
ENDMDL
MODEL 8
REMARK VINA RESULT:      -6.2      4.091      7.899
REMARK  Name = 
REMARK  14 active torsions:
REMARK  status: ('A' for Active; 'I' for Inactive)
REMARK    1  A    between atoms: C_1  and  N_2
REMARK    2  A    between atoms: N_2  and  C_3
REMARK    3  A    between atoms: C_3  and  C_4
REMARK    4  A    between atoms: C_4  and  O_5
REMARK    5  A    between atoms: C_4  and  C_6
REMARK    6  A    between atoms: C_6  and  N_7
REMARK    7  A    between atoms: C_8  and  O_10
REMARK    8  A    between atoms: O_10  and  C_11
REMARK    9  A    between atoms: C_11  and  C_12
REMARK   10  A    between atoms: C_11  and  C_13
REMARK   11  A    between atoms: C_11  and  C_14
REMARK   12  A    between atoms: C_15  and  C_17
REMARK   13  A    between atoms: C_17  and  C_18
REMARK   14  A    between atoms: C_18  and  C_19
REMARK                            x       y       z     vdW  Elec       q    Type
REMARK                         _______ _______ _______ _____ _____    ______ ____
ROOT
ATOM      1  C   UNL     1       3.551   5.964  18.721  0.00  0.00    +0.000 C 
ENDROOT
BRANCH   1   3
ATOM      2  C   UNL     1       3.056   3.724  19.830  0.00  0.00    +0.000 C 
ATOM      3  N   UNL     1       3.396   4.492  18.639  0.00  0.00    +0.000 N 
ATOM      4  C   UNL     1       3.932   3.713  17.605  0.00  0.00    +0.000 C 
ATOM      5  O   UNL     1       3.981   2.483  17.685  0.00  0.00    +0.000 OA
BRANCH   4   6
ATOM      6  C   UNL     1       4.455   4.426  16.377  0.00  0.00    +0.000 C 
BRANCH   6   7
ATOM      7  C   UNL     1       5.980   4.294  16.275  0.00  0.00    +0.000 C 
BRANCH   7   8
ATOM      8  C   UNL     1       6.728   5.328  17.080  0.00  0.00    +0.000 A 
ATOM      9  C   UNL     1       7.260   4.980  18.322  0.00  0.00    +0.000 A 
ATOM     10  C   UNL     1       7.949   5.945  19.052  0.00  0.00    +0.000 A 
ATOM     11  C   UNL     1       8.086   7.225  18.529  0.00  0.00    +0.000 A 
ATOM     12  C   UNL     1       7.528   7.488  17.295  0.00  0.00    +0.000 A 
ATOM     13  N   UNL     1       6.853   6.574  16.563  0.00  0.00    +0.000 NA
ENDBRANCH   7   8
ENDBRANCH   6   7
ENDBRANCH   4   6
ENDBRANCH   1   3
BRANCH   1  14
ATOM     14  C   UNL     1       2.297   6.756  19.171  0.00  0.00    +0.000 C 
BRANCH  14  15
ATOM     15  O   UNL     1       2.345   7.097  20.568  0.00  0.00    +0.000 OA
ATOM     16  H   UNL     1       2.104   6.307  21.082  0.00  0.00    +0.000 HD
ENDBRANCH  14  15
BRANCH  14  17
ATOM     17  C   UNL     1       2.179   8.089  18.418  0.00  0.00    +0.000 C 
BRANCH  17  18
ATOM     18  N   UNL     1       1.627   9.142  19.256  0.00  0.00    +0.000 N 
ATOM     19  C   UNL     1       0.605   9.905  18.785  0.00  0.00    +0.000 C 
ATOM     20  O   UNL     1       0.051   9.684  17.712  0.00  0.00    +0.000 OA
ATOM     21  H   UNL     1       2.174   9.516  20.023  0.00  0.00    +0.000 HD
BRANCH  19  22
ATOM     22  O   UNL     1       0.322  10.928  19.634  0.00  0.00    +0.000 OA
BRANCH  22  23
ATOM     23  C   UNL     1       0.681  12.279  19.231  0.00  0.00    +0.000 C 
ATOM     24  C   UNL     1      -0.422  12.918  18.370  0.00  0.00    +0.000 C 
ATOM     25  C   UNL     1       0.817  13.112  20.518  0.00  0.00    +0.000 C 
ATOM     26  C   UNL     1       2.045  12.287  18.525  0.00  0.00    +0.000 C 
ENDBRANCH  22  23
ENDBRANCH  19  22
ENDBRANCH  17  18
ENDBRANCH  14  17
ENDBRANCH   1  14
TORSDOF 10
ENDMDL
MODEL 9
REMARK VINA RESULT:      -6.2      3.842      6.640
REMARK  Name = 
REMARK  14 active torsions:
REMARK  status: ('A' for Active; 'I' for Inactive)
REMARK    1  A    between atoms: C_1  and  N_2
REMARK    2  A    between atoms: N_2  and  C_3
REMARK    3  A    between atoms: C_3  and  C_4
REMARK    4  A    between atoms: C_4  and  O_5
REMARK    5  A    between atoms: C_4  and  C_6
REMARK    6  A    between atoms: C_6  and  N_7
REMARK    7  A    between atoms: C_8  and  O_10
REMARK    8  A    between atoms: O_10  and  C_11
REMARK    9  A    between atoms: C_11  and  C_12
REMARK   10  A    between atoms: C_11  and  C_13
REMARK   11  A    between atoms: C_11  and  C_14
REMARK   12  A    between atoms: C_15  and  C_17
REMARK   13  A    between atoms: C_17  and  C_18
REMARK   14  A    between atoms: C_18  and  C_19
REMARK                            x       y       z     vdW  Elec       q    Type
REMARK                         _______ _______ _______ _____ _____    ______ ____
ROOT
ATOM      1  C   UNL     1       3.454   6.637  17.832  0.00  0.00    +0.000 C 
ENDROOT
BRANCH   1   3
ATOM      2  C   UNL     1       5.981   6.584  17.509  0.00  0.00    +0.000 C 
ATOM      3  N   UNL     1       4.705   5.883  17.582  0.00  0.00    +0.000 N 
ATOM      4  C   UNL     1       4.739   4.602  17.016  0.00  0.00    +0.000 C 
ATOM      5  O   UNL     1       5.793   4.102  16.615  0.00  0.00    +0.000 OA
BRANCH   4   6
ATOM      6  C   UNL     1       3.435   3.840  16.906  0.00  0.00    +0.000 C 
BRANCH   6   7
ATOM      7  C   UNL     1       3.479   2.556  17.744  0.00  0.00    +0.000 C 
BRANCH   7   8
ATOM      8  C   UNL     1       2.766   2.677  19.068  0.00  0.00    +0.000 A 
ATOM      9  C   UNL     1       1.391   2.913  19.090  0.00  0.00    +0.000 A 
ATOM     10  C   UNL     1       0.748   3.021  20.319  0.00  0.00    +0.000 A 
ATOM     11  C   UNL     1       1.488   2.894  21.489  0.00  0.00    +0.000 A 
ATOM     12  C   UNL     1       2.844   2.665  21.380  0.00  0.00    +0.000 A 
ATOM     13  N   UNL     1       3.498   2.556  20.202  0.00  0.00    +0.000 NA
ENDBRANCH   7   8
ENDBRANCH   6   7
ENDBRANCH   4   6
ENDBRANCH   1   3
BRANCH   1  14
ATOM     14  C   UNL     1       2.731   6.333  19.169  0.00  0.00    +0.000 C 
BRANCH  14  15
ATOM     15  O   UNL     1       3.621   5.769  20.149  0.00  0.00    +0.000 OA
ATOM     16  H   UNL     1       3.179   5.006  20.558  0.00  0.00    +0.000 HD
ENDBRANCH  14  15
BRANCH  14  17
ATOM     17  C   UNL     1       2.166   7.612  19.801  0.00  0.00    +0.000 C 
BRANCH  17  18
ATOM     18  N   UNL     1       1.602   8.510  18.805  0.00  0.00    +0.000 N 
ATOM     19  C   UNL     1       1.131   9.726  19.190  0.00  0.00    +0.000 C 
ATOM     20  O   UNL     1       1.248  10.151  20.336  0.00  0.00    +0.000 OA
ATOM     21  H   UNL     1       1.272   8.141  17.921  0.00  0.00    +0.000 HD
BRANCH  19  22
ATOM     22  O   UNL     1       0.509  10.362  18.163  0.00  0.00    +0.000 OA
BRANCH  22  23
ATOM     23  C   UNL     1      -0.894  10.715  18.318  0.00  0.00    +0.000 C 
ATOM     24  C   UNL     1      -1.108  12.232  18.188  0.00  0.00    +0.000 C 
ATOM     25  C   UNL     1      -1.660  10.029  17.173  0.00  0.00    +0.000 C 
ATOM     26  C   UNL     1      -1.445  10.164  19.642  0.00  0.00    +0.000 C 
ENDBRANCH  22  23
ENDBRANCH  19  22
ENDBRANCH  17  18
ENDBRANCH  14  17
ENDBRANCH   1  14
TORSDOF 10
ENDMDL
