MODEL 1
REMARK VINA RESULT:      -8.7      0.000      0.000
REMARK  Name = 
REMARK  14 active torsions:
REMARK  status: ('A' for Active; 'I' for Inactive)
REMARK    1  A    between atoms: C_1  and  C_2
REMARK    2  A    between atoms: C_2  and  C_3
REMARK    3  A    between atoms: C_2  and  C_4
REMARK    4  A    between atoms: C_2  and  C_5
REMARK    5  A    between atoms: C_7  and  C_8
REMARK    6  A    between atoms: N_10  and  C_11
REMARK    7  A    between atoms: C_15  and  C_16
REMARK    8  A    between atoms: N_18  and  C_19
REMARK    9  A    between atoms: C_19  and  C_20
REMARK   10  A    between atoms: C_20  and  N_21
REMARK   11  A    between atoms: C_24  and  C_25
REMARK   12  A    between atoms: C_25  and  C_26
REMARK   13  A    between atoms: C_25  and  C_27
REMARK   14  A    between atoms: C_25  and  C_28
REMARK                            x       y       z     vdW  Elec       q    Type
REMARK                         _______ _______ _______ _____ _____    ______ ____
ROOT
ATOM      1  C   UNL     1       2.298   8.256  18.189  0.00  0.00    +0.000 C 
ATOM      2  O   UNL     1       2.438   8.958  17.201  0.00  0.00    +0.000 OA
ATOM      3  N   UNL     1       1.506   8.676  19.227  0.00  0.00    +0.000 N 
ATOM      4  H   UNL     1       1.468   8.107  20.079  0.00  0.00    +0.000 HD
ENDROOT
BRANCH   1   7
ATOM      5  C   UNL     1       5.267   5.868  18.061  0.00  0.00    +0.000 A 
ATOM      6  C   UNL     1       4.460   7.019  17.984  0.00  0.00    +0.000 A 
ATOM      7  C   UNL     1       3.082   6.978  18.249  0.00  0.00    +0.000 A 
ATOM      8  C   UNL     1       2.503   5.744  18.589  0.00  0.00    +0.000 A 
ATOM      9  C   UNL     1       3.266   4.567  18.673  0.00  0.00    +0.000 A 
ATOM     10  C   UNL     1       4.647   4.649  18.395  0.00  0.00    +0.000 A 
BRANCH   5  12
ATOM     11  C   UNL     1       7.295   7.300  17.370  0.00  0.00    +0.000 C 
ATOM     12  C   UNL     1       6.794   5.906  17.822  0.00  0.00    +0.000 C 
ATOM     13  C   UNL     1       7.175   4.887  16.730  0.00  0.00    +0.000 C 
ATOM     14  C   UNL     1       7.526   5.551  19.134  0.00  0.00    +0.000 C 
ENDBRANCH   5  12
BRANCH   9  15
ATOM     15  C   UNL     1       2.573   3.253  19.095  0.00  0.00    +0.000 C 
ATOM     16  C   UNL     1       1.216   3.563  19.765  0.00  0.00    +0.000 C 
ATOM     17  C   UNL     1       2.311   2.307  17.901  0.00  0.00    +0.000 C 
ATOM     18  C   UNL     1       3.484   2.504  20.095  0.00  0.00    +0.000 C 
ENDBRANCH   9  15
ENDBRANCH   1   7
BRANCH   3  19
ATOM     19  C   UNL     1       0.772   9.908  19.296  0.00  0.00    +0.000 A 
ATOM     20  C   UNL     1       1.097  10.970  20.170  0.00  0.00    +0.000 A 
ATOM     21  C   UNL     1       0.319  12.122  20.200  0.00  0.00    +0.000 A 
ATOM     22  C   UNL     1      -0.791  12.245  19.371  0.00  0.00    +0.000 A 
ATOM     23  C   UNL     1      -1.146  11.216  18.476  0.00  0.00    +0.000 A 
ATOM     24  C   UNL     1      -0.342  10.057  18.450  0.00  0.00    +0.000 A 
BRANCH  23  25
ATOM     25  C   UNL     1      -2.360  11.390  17.609  0.00  0.00    +0.000 C 
ATOM     26  O   UNL     1      -3.404  11.742  18.145  0.00  0.00    +0.000 OA
ATOM     27  N   UNL     1      -2.342  11.156  16.262  0.00  0.00    +0.000 N 
ATOM     28  H   UNL     1      -1.480  10.863  15.786  0.00  0.00    +0.000 HD
BRANCH  27  29
ATOM     29  C   UNL     1      -3.516  11.301  15.418  0.00  0.00    +0.000 C 
BRANCH  29  30
ATOM     30  C   UNL     1      -3.714  10.035  14.581  0.00  0.00    +0.000 C 
BRANCH  30  31
ATOM     31  N   UNL     1      -2.949  10.125  13.339  0.00  0.00    +0.000 NA
ATOM     32  H   UNL     1      -3.602  10.356  12.555  0.00  0.00    +0.000 HD
ATOM     33  H   UNL     1      -2.533   9.188  13.141  0.00  0.00    +0.000 HD
ENDBRANCH  30  31
ENDBRANCH  29  30
ENDBRANCH  27  29
ENDBRANCH  23  25
ENDBRANCH   3  19
TORSDOF 8
ENDMDL
MODEL 2
REMARK VINA RESULT:      -8.6      0.712      3.353
REMARK  Name = 
REMARK  14 active torsions:
REMARK  status: ('A' for Active; 'I' for Inactive)
REMARK    1  A    between atoms: C_1  and  C_2
REMARK    2  A    between atoms: C_2  and  C_3
REMARK    3  A    between atoms: C_2  and  C_4
REMARK    4  A    between atoms: C_2  and  C_5
REMARK    5  A    between atoms: C_7  and  C_8
REMARK    6  A    between atoms: N_10  and  C_11
REMARK    7  A    between atoms: C_15  and  C_16
REMARK    8  A    between atoms: N_18  and  C_19
REMARK    9  A    between atoms: C_19  and  C_20
REMARK   10  A    between atoms: C_20  and  N_21
REMARK   11  A    between atoms: C_24  and  C_25
REMARK   12  A    between atoms: C_25  and  C_26
REMARK   13  A    between atoms: C_25  and  C_27
REMARK   14  A    between atoms: C_25  and  C_28
REMARK                            x       y       z     vdW  Elec       q    Type
REMARK                         _______ _______ _______ _____ _____    ______ ____
ROOT
ATOM      1  C   UNL     1       2.379   8.040  18.160  0.00  0.00    +0.000 C 
ATOM      2  O   UNL     1       2.462   8.782  17.194  0.00  0.00    +0.000 OA
ATOM      3  N   UNL     1       1.604   8.392  19.235  0.00  0.00    +0.000 N 
ATOM      4  H   UNL     1       1.614   7.792  20.066  0.00  0.00    +0.000 HD
ENDROOT
BRANCH   1   7
ATOM      5  C   UNL     1       3.352   4.380  18.599  0.00  0.00    +0.000 A 
ATOM      6  C   UNL     1       2.644   5.597  18.617  0.00  0.00    +0.000 A 
ATOM      7  C   UNL     1       3.212   6.793  18.149  0.00  0.00    +0.000 A 
ATOM      8  C   UNL     1       4.529   6.760  17.661  0.00  0.00    +0.000 A 
ATOM      9  C   UNL     1       5.277   5.572  17.628  0.00  0.00    +0.000 A 
ATOM     10  C   UNL     1       4.673   4.392  18.112  0.00  0.00    +0.000 A 
BRANCH   5  12
ATOM     11  C   UNL     1       3.549   1.810  18.631  0.00  0.00    +0.000 C 
ATOM     12  C   UNL     1       2.723   3.047  19.064  0.00  0.00    +0.000 C 
ATOM     13  C   UNL     1       1.308   2.904  18.471  0.00  0.00    +0.000 C 
ATOM     14  C   UNL     1       2.638   3.032  20.606  0.00  0.00    +0.000 C 
ENDBRANCH   5  12
BRANCH   9  15
ATOM     15  C   UNL     1       6.704   5.600  17.038  0.00  0.00    +0.000 C 
ATOM     16  C   UNL     1       6.661   5.259  15.532  0.00  0.00    +0.000 C 
ATOM     17  C   UNL     1       7.388   6.977  17.197  0.00  0.00    +0.000 C 
ATOM     18  C   UNL     1       7.574   4.558  17.779  0.00  0.00    +0.000 C 
ENDBRANCH   9  15
ENDBRANCH   1   7
BRANCH   3  19
ATOM     19  C   UNL     1       0.827   9.592  19.371  0.00  0.00    +0.000 A 
ATOM     20  C   UNL     1       1.046  10.562  20.374  0.00  0.00    +0.000 A 
ATOM     21  C   UNL     1       0.230  11.685  20.460  0.00  0.00    +0.000 A 
ATOM     22  C   UNL     1      -0.814  11.868  19.559  0.00  0.00    +0.000 A 
ATOM     23  C   UNL     1      -1.061  10.933  18.535  0.00  0.00    +0.000 A 
ATOM     24  C   UNL     1      -0.221   9.802  18.455  0.00  0.00    +0.000 A 
BRANCH  23  25
ATOM     25  C   UNL     1      -2.207  11.168  17.593  0.00  0.00    +0.000 C 
ATOM     26  O   UNL     1      -3.221  11.690  18.041  0.00  0.00    +0.000 OA
ATOM     27  N   UNL     1      -2.162  10.809  16.275  0.00  0.00    +0.000 N 
ATOM     28  H   UNL     1      -1.324  10.372  15.873  0.00  0.00    +0.000 HD
BRANCH  27  29
ATOM     29  C   UNL     1      -3.273  11.013  15.361  0.00  0.00    +0.000 C 
BRANCH  29  30
ATOM     30  C   UNL     1      -3.279   9.914  14.296  0.00  0.00    +0.000 C 
BRANCH  30  31
ATOM     31  N   UNL     1      -4.514   9.969  13.518  0.00  0.00    +0.000 NA
ATOM     32  H   UNL     1      -4.672  10.954  13.202  0.00  0.00    +0.000 HD
ATOM     33  H   UNL     1      -5.308   9.705  14.144  0.00  0.00    +0.000 HD
ENDBRANCH  30  31
ENDBRANCH  29  30
ENDBRANCH  27  29
ENDBRANCH  23  25
ENDBRANCH   3  19
TORSDOF 8
ENDMDL
MODEL 3
REMARK VINA RESULT:      -8.6      0.566      1.175
REMARK  Name = 
REMARK  14 active torsions:
REMARK  status: ('A' for Active; 'I' for Inactive)
REMARK    1  A    between atoms: C_1  and  C_2
REMARK    2  A    between atoms: C_2  and  C_3
REMARK    3  A    between atoms: C_2  and  C_4
REMARK    4  A    between atoms: C_2  and  C_5
REMARK    5  A    between atoms: C_7  and  C_8
REMARK    6  A    between atoms: N_10  and  C_11
REMARK    7  A    between atoms: C_15  and  C_16
REMARK    8  A    between atoms: N_18  and  C_19
REMARK    9  A    between atoms: C_19  and  C_20
REMARK   10  A    between atoms: C_20  and  N_21
REMARK   11  A    between atoms: C_24  and  C_25
REMARK   12  A    between atoms: C_25  and  C_26
REMARK   13  A    between atoms: C_25  and  C_27
REMARK   14  A    between atoms: C_25  and  C_28
REMARK                            x       y       z     vdW  Elec       q    Type
REMARK                         _______ _______ _______ _____ _____    ______ ____
ROOT
ATOM      1  C   UNL     1       2.193   8.228  18.150  0.00  0.00    +0.000 C 
ATOM      2  O   UNL     1       2.196   8.838  17.092  0.00  0.00    +0.000 OA
ATOM      3  N   UNL     1       1.529   8.736  19.237  0.00  0.00    +0.000 N 
ATOM      4  H   UNL     1       1.609   8.246  20.134  0.00  0.00    +0.000 HD
ENDROOT
BRANCH   1   7
ATOM      5  C   UNL     1       5.117   5.819  17.723  0.00  0.00    +0.000 A 
ATOM      6  C   UNL     1       4.285   6.954  17.655  0.00  0.00    +0.000 A 
ATOM      7  C   UNL     1       3.002   6.967  18.224  0.00  0.00    +0.000 A 
ATOM      8  C   UNL     1       2.544   5.804  18.866  0.00  0.00    +0.000 A 
ATOM      9  C   UNL     1       3.335   4.646  18.954  0.00  0.00    +0.000 A 
ATOM     10  C   UNL     1       4.617   4.671  18.366  0.00  0.00    +0.000 A 
BRANCH   5  12
ATOM     11  C   UNL     1       7.465   4.760  17.832  0.00  0.00    +0.000 C 
ATOM     12  C   UNL     1       6.551   5.806  17.146  0.00  0.00    +0.000 C 
ATOM     13  C   UNL     1       7.198   7.193  17.327  0.00  0.00    +0.000 C 
ATOM     14  C   UNL     1       6.494   5.458  15.642  0.00  0.00    +0.000 C 
ENDBRANCH   5  12
BRANCH   9  15
ATOM     15  C   UNL     1       2.785   3.419  19.712  0.00  0.00    +0.000 C 
ATOM     16  C   UNL     1       1.643   2.766  18.903  0.00  0.00    +0.000 C 
ATOM     17  C   UNL     1       3.864   2.343  19.969  0.00  0.00    +0.000 C 
ATOM     18  C   UNL     1       2.246   3.878  21.087  0.00  0.00    +0.000 C 
ENDBRANCH   9  15
ENDBRANCH   1   7
BRANCH   3  19
ATOM     19  C   UNL     1       0.787   9.964  19.287  0.00  0.00    +0.000 A 
ATOM     20  C   UNL     1       1.114  11.046  20.134  0.00  0.00    +0.000 A 
ATOM     21  C   UNL     1       0.328  12.193  20.148  0.00  0.00    +0.000 A 
ATOM     22  C   UNL     1      -0.792  12.291  19.329  0.00  0.00    +0.000 A 
ATOM     23  C   UNL     1      -1.149  11.240  18.460  0.00  0.00    +0.000 A 
ATOM     24  C   UNL     1      -0.337  10.086  18.450  0.00  0.00    +0.000 A 
BRANCH  23  25
ATOM     25  C   UNL     1      -2.373  11.387  17.602  0.00  0.00    +0.000 C 
ATOM     26  O   UNL     1      -3.419  11.722  18.145  0.00  0.00    +0.000 OA
ATOM     27  N   UNL     1      -2.363  11.145  16.257  0.00  0.00    +0.000 N 
ATOM     28  H   UNL     1      -1.500  10.865  15.775  0.00  0.00    +0.000 HD
BRANCH  27  29
ATOM     29  C   UNL     1      -3.546  11.263  15.422  0.00  0.00    +0.000 C 
BRANCH  29  30
ATOM     30  C   UNL     1      -3.691  10.017  14.546  0.00  0.00    +0.000 C 
BRANCH  30  31
ATOM     31  N   UNL     1      -2.617   9.965  13.558  0.00  0.00    +0.000 NA
ATOM     32  H   UNL     1      -2.798   9.172  12.901  0.00  0.00    +0.000 HD
ATOM     33  H   UNL     1      -1.720   9.766  14.057  0.00  0.00    +0.000 HD
ENDBRANCH  30  31
ENDBRANCH  29  30
ENDBRANCH  27  29
ENDBRANCH  23  25
ENDBRANCH   3  19
TORSDOF 8
ENDMDL
MODEL 4
REMARK VINA RESULT:      -8.6      1.615      2.007
REMARK  Name = 
REMARK  14 active torsions:
REMARK  status: ('A' for Active; 'I' for Inactive)
REMARK    1  A    between atoms: C_1  and  C_2
REMARK    2  A    between atoms: C_2  and  C_3
REMARK    3  A    between atoms: C_2  and  C_4
REMARK    4  A    between atoms: C_2  and  C_5
REMARK    5  A    between atoms: C_7  and  C_8
REMARK    6  A    between atoms: N_10  and  C_11
REMARK    7  A    between atoms: C_15  and  C_16
REMARK    8  A    between atoms: N_18  and  C_19
REMARK    9  A    between atoms: C_19  and  C_20
REMARK   10  A    between atoms: C_20  and  N_21
REMARK   11  A    between atoms: C_24  and  C_25
REMARK   12  A    between atoms: C_25  and  C_26
REMARK   13  A    between atoms: C_25  and  C_27
REMARK   14  A    between atoms: C_25  and  C_28
REMARK                            x       y       z     vdW  Elec       q    Type
REMARK                         _______ _______ _______ _____ _____    ______ ____
ROOT
ATOM      1  C   UNL     1       2.175   7.739  18.892  0.00  0.00    +0.000 C 
ATOM      2  O   UNL     1       1.832   7.899  20.052  0.00  0.00    +0.000 OA
ATOM      3  N   UNL     1       1.782   8.631  17.927  0.00  0.00    +0.000 N 
ATOM      4  H   UNL     1       2.014   8.431  16.949  0.00  0.00    +0.000 HD
ENDROOT
BRANCH   1   7
ATOM      5  C   UNL     1       5.016   5.529  17.634  0.00  0.00    +0.000 A 
ATOM      6  C   UNL     1       4.206   6.641  17.933  0.00  0.00    +0.000 A 
ATOM      7  C   UNL     1       2.960   6.502  18.565  0.00  0.00    +0.000 A 
ATOM      8  C   UNL     1       2.517   5.210  18.893  0.00  0.00    +0.000 A 
ATOM      9  C   UNL     1       3.287   4.069  18.609  0.00  0.00    +0.000 A 
ATOM     10  C   UNL     1       4.531   4.250  17.969  0.00  0.00    +0.000 A 
BRANCH   5  12
ATOM     11  C   UNL     1       7.022   7.080  17.171  0.00  0.00    +0.000 C 
ATOM     12  C   UNL     1       6.411   5.669  16.984  0.00  0.00    +0.000 C 
ATOM     13  C   UNL     1       6.311   5.392  15.471  0.00  0.00    +0.000 C 
ATOM     14  C   UNL     1       7.380   4.653  17.629  0.00  0.00    +0.000 C 
ENDBRANCH   5  12
BRANCH   9  15
ATOM     15  C   UNL     1       2.758   2.683  19.036  0.00  0.00    +0.000 C 
ATOM     16  C   UNL     1       1.263   2.552  18.672  0.00  0.00    +0.000 C 
ATOM     17  C   UNL     1       3.518   1.520  18.359  0.00  0.00    +0.000 C 
ATOM     18  C   UNL     1       2.932   2.529  20.565  0.00  0.00    +0.000 C 
ENDBRANCH   9  15
ENDBRANCH   1   7
BRANCH   3  19
ATOM     19  C   UNL     1       0.976   9.802  18.125  0.00  0.00    +0.000 A 
ATOM     20  C   UNL     1       1.474  11.024  18.628  0.00  0.00    +0.000 A 
ATOM     21  C   UNL     1       0.623  12.107  18.820  0.00  0.00    +0.000 A 
ATOM     22  C   UNL     1      -0.731  12.002  18.522  0.00  0.00    +0.000 A 
ATOM     23  C   UNL     1      -1.270  10.805  18.007  0.00  0.00    +0.000 A 
ATOM     24  C   UNL     1      -0.393   9.718  17.809  0.00  0.00    +0.000 A 
BRANCH  23  25
ATOM     25  C   UNL     1      -2.740  10.736  17.710  0.00  0.00    +0.000 C 
ATOM     26  O   UNL     1      -3.277   9.634  17.719  0.00  0.00    +0.000 OA
ATOM     27  N   UNL     1      -3.486  11.843  17.417  0.00  0.00    +0.000 N 
ATOM     28  H   UNL     1      -3.062  12.779  17.405  0.00  0.00    +0.000 HD
BRANCH  27  29
ATOM     29  C   UNL     1      -4.904  11.784  17.107  0.00  0.00    +0.000 C 
BRANCH  29  30
ATOM     30  C   UNL     1      -5.720  12.266  18.309  0.00  0.00    +0.000 C 
BRANCH  30  31
ATOM     31  N   UNL     1      -4.891  13.089  19.186  0.00  0.00    +0.000 NA
ATOM     32  H   UNL     1      -4.431  13.836  18.616  0.00  0.00    +0.000 HD
ATOM     33  H   UNL     1      -4.137  12.487  19.587  0.00  0.00    +0.000 HD
ENDBRANCH  30  31
ENDBRANCH  29  30
ENDBRANCH  27  29
ENDBRANCH  23  25
ENDBRANCH   3  19
TORSDOF 8
ENDMDL
MODEL 5
REMARK VINA RESULT:      -8.6      1.825      2.109
REMARK  Name = 
REMARK  14 active torsions:
REMARK  status: ('A' for Active; 'I' for Inactive)
REMARK    1  A    between atoms: C_1  and  C_2
REMARK    2  A    between atoms: C_2  and  C_3
REMARK    3  A    between atoms: C_2  and  C_4
REMARK    4  A    between atoms: C_2  and  C_5
REMARK    5  A    between atoms: C_7  and  C_8
REMARK    6  A    between atoms: N_10  and  C_11
REMARK    7  A    between atoms: C_15  and  C_16
REMARK    8  A    between atoms: N_18  and  C_19
REMARK    9  A    between atoms: C_19  and  C_20
REMARK   10  A    between atoms: C_20  and  N_21
REMARK   11  A    between atoms: C_24  and  C_25
REMARK   12  A    between atoms: C_25  and  C_26
REMARK   13  A    between atoms: C_25  and  C_27
REMARK   14  A    between atoms: C_25  and  C_28
REMARK                            x       y       z     vdW  Elec       q    Type
REMARK                         _______ _______ _______ _____ _____    ______ ____
ROOT
ATOM      1  C   UNL     1       2.183   7.796  18.866  0.00  0.00    +0.000 C 
ATOM      2  O   UNL     1       1.849   7.950  20.030  0.00  0.00    +0.000 OA
ATOM      3  N   UNL     1       1.818   8.716  17.916  0.00  0.00    +0.000 N 
ATOM      4  H   UNL     1       2.041   8.524  16.934  0.00  0.00    +0.000 HD
ENDROOT
BRANCH   1   7
ATOM      5  C   UNL     1       4.917   5.511  17.508  0.00  0.00    +0.000 A 
ATOM      6  C   UNL     1       4.146   6.644  17.832  0.00  0.00    +0.000 A 
ATOM      7  C   UNL     1       2.925   6.540  18.518  0.00  0.00    +0.000 A 
ATOM      8  C   UNL     1       2.468   5.260  18.877  0.00  0.00    +0.000 A 
ATOM      9  C   UNL     1       3.199   4.100  18.572  0.00  0.00    +0.000 A 
ATOM     10  C   UNL     1       4.418   4.247  17.877  0.00  0.00    +0.000 A 
BRANCH   5  12
ATOM     11  C   UNL     1       7.280   4.515  17.249  0.00  0.00    +0.000 C 
ATOM     12  C   UNL     1       6.285   5.613  16.797  0.00  0.00    +0.000 C 
ATOM     13  C   UNL     1       6.925   6.984  17.094  0.00  0.00    +0.000 C 
ATOM     14  C   UNL     1       6.083   5.460  15.274  0.00  0.00    +0.000 C 
ENDBRANCH   5  12
BRANCH   9  15
ATOM     15  C   UNL     1       2.658   2.730  19.035  0.00  0.00    +0.000 C 
ATOM     16  C   UNL     1       1.187   2.566  18.594  0.00  0.00    +0.000 C 
ATOM     17  C   UNL     1       3.465   1.545  18.458  0.00  0.00    +0.000 C 
ATOM     18  C   UNL     1       2.747   2.651  20.577  0.00  0.00    +0.000 C 
ENDBRANCH   9  15
ENDBRANCH   1   7
BRANCH   3  19
ATOM     19  C   UNL     1       1.052   9.910  18.135  0.00  0.00    +0.000 A 
ATOM     20  C   UNL     1       1.622  11.164  18.448  0.00  0.00    +0.000 A 
ATOM     21  C   UNL     1       0.811  12.271  18.676  0.00  0.00    +0.000 A 
ATOM     22  C   UNL     1      -0.573  12.158  18.599  0.00  0.00    +0.000 A 
ATOM     23  C   UNL     1      -1.184  10.930  18.277  0.00  0.00    +0.000 A 
ATOM     24  C   UNL     1      -0.349   9.818  18.040  0.00  0.00    +0.000 A 
BRANCH  23  25
ATOM     25  C   UNL     1      -2.683  10.855  18.216  0.00  0.00    +0.000 C 
ATOM     26  O   UNL     1      -3.192   9.796  17.869  0.00  0.00    +0.000 OA
ATOM     27  N   UNL     1      -3.487  11.920  18.513  0.00  0.00    +0.000 N 
ATOM     28  H   UNL     1      -3.087  12.819  18.809  0.00  0.00    +0.000 HD
BRANCH  27  29
ATOM     29  C   UNL     1      -4.936  11.864  18.437  0.00  0.00    +0.000 C 
BRANCH  29  30
ATOM     30  C   UNL     1      -5.397  12.225  17.023  0.00  0.00    +0.000 C 
BRANCH  30  31
ATOM     31  N   UNL     1      -6.849  12.385  16.989  0.00  0.00    +0.000 NA
ATOM     32  H   UNL     1      -7.091  13.349  17.313  0.00  0.00    +0.000 HD
ATOM     33  H   UNL     1      -7.270  11.707  17.664  0.00  0.00    +0.000 HD
ENDBRANCH  30  31
ENDBRANCH  29  30
ENDBRANCH  27  29
ENDBRANCH  23  25
ENDBRANCH   3  19
TORSDOF 8
ENDMDL
MODEL 6
REMARK VINA RESULT:      -8.5      1.506      3.750
REMARK  Name = 
REMARK  14 active torsions:
REMARK  status: ('A' for Active; 'I' for Inactive)
REMARK    1  A    between atoms: C_1  and  C_2
REMARK    2  A    between atoms: C_2  and  C_3
REMARK    3  A    between atoms: C_2  and  C_4
REMARK    4  A    between atoms: C_2  and  C_5
REMARK    5  A    between atoms: C_7  and  C_8
REMARK    6  A    between atoms: N_10  and  C_11
REMARK    7  A    between atoms: C_15  and  C_16
REMARK    8  A    between atoms: N_18  and  C_19
REMARK    9  A    between atoms: C_19  and  C_20
REMARK   10  A    between atoms: C_20  and  N_21
REMARK   11  A    between atoms: C_24  and  C_25
REMARK   12  A    between atoms: C_25  and  C_26
REMARK   13  A    between atoms: C_25  and  C_27
REMARK   14  A    between atoms: C_25  and  C_28
REMARK                            x       y       z     vdW  Elec       q    Type
REMARK                         _______ _______ _______ _____ _____    ______ ____
ROOT
ATOM      1  C   UNL     1       2.102   8.457  18.034  0.00  0.00    +0.000 C 
ATOM      2  O   UNL     1       2.320   9.180  17.075  0.00  0.00    +0.000 OA
ATOM      3  N   UNL     1       1.216   8.848  19.005  0.00  0.00    +0.000 N 
ATOM      4  H   UNL     1       1.112   8.263  19.840  0.00  0.00    +0.000 HD
ENDROOT
BRANCH   1   7
ATOM      5  C   UNL     1       2.958   4.824  18.810  0.00  0.00    +0.000 A 
ATOM      6  C   UNL     1       2.290   6.059  18.715  0.00  0.00    +0.000 A 
ATOM      7  C   UNL     1       2.895   7.188  18.139  0.00  0.00    +0.000 A 
ATOM      8  C   UNL     1       4.209   7.068  17.657  0.00  0.00    +0.000 A 
ATOM      9  C   UNL     1       4.919   5.858  17.735  0.00  0.00    +0.000 A 
ATOM     10  C   UNL     1       4.278   4.748  18.325  0.00  0.00    +0.000 A 
BRANCH   5  12
ATOM     11  C   UNL     1       1.766   2.596  18.302  0.00  0.00    +0.000 C 
ATOM     12  C   UNL     1       2.288   3.560  19.396  0.00  0.00    +0.000 C 
ATOM     13  C   UNL     1       1.093   3.967  20.279  0.00  0.00    +0.000 C 
ATOM     14  C   UNL     1       3.316   2.784  20.248  0.00  0.00    +0.000 C 
ENDBRANCH   5  12
BRANCH   9  15
ATOM     15  C   UNL     1       6.345   5.786  17.147  0.00  0.00    +0.000 C 
ATOM     16  C   UNL     1       7.059   7.144  17.325  0.00  0.00    +0.000 C 
ATOM     17  C   UNL     1       7.213   4.697  17.817  0.00  0.00    +0.000 C 
ATOM     18  C   UNL     1       6.249   5.447  15.641  0.00  0.00    +0.000 C 
ENDBRANCH   9  15
ENDBRANCH   1   7
BRANCH   3  19
ATOM     19  C   UNL     1       0.463  10.070  19.032  0.00  0.00    +0.000 A 
ATOM     20  C   UNL     1       0.804  11.188  19.825  0.00  0.00    +0.000 A 
ATOM     21  C   UNL     1       0.006  12.327  19.820  0.00  0.00    +0.000 A 
ATOM     22  C   UNL     1      -1.139  12.381  19.033  0.00  0.00    +0.000 A 
ATOM     23  C   UNL     1      -1.511  11.295  18.216  0.00  0.00    +0.000 A 
ATOM     24  C   UNL     1      -0.688  10.149  18.226  0.00  0.00    +0.000 A 
BRANCH  23  25
ATOM     25  C   UNL     1      -2.763  11.396  17.392  0.00  0.00    +0.000 C 
ATOM     26  O   UNL     1      -2.720  11.006  16.232  0.00  0.00    +0.000 OA
ATOM     27  N   UNL     1      -3.927  11.918  17.883  0.00  0.00    +0.000 N 
ATOM     28  H   UNL     1      -3.992  12.250  18.853  0.00  0.00    +0.000 HD
BRANCH  27  29
ATOM     29  C   UNL     1      -5.137  12.040  17.088  0.00  0.00    +0.000 C 
BRANCH  29  30
ATOM     30  C   UNL     1      -6.356  12.138  18.007  0.00  0.00    +0.000 C 
BRANCH  30  31
ATOM     31  N   UNL     1      -7.000  10.833  18.136  0.00  0.00    +0.000 NA
ATOM     32  H   UNL     1      -6.716  10.403  19.046  0.00  0.00    +0.000 HD
ATOM     33  H   UNL     1      -6.647  10.216  17.370  0.00  0.00    +0.000 HD
ENDBRANCH  30  31
ENDBRANCH  29  30
ENDBRANCH  27  29
ENDBRANCH  23  25
ENDBRANCH   3  19
TORSDOF 8
ENDMDL
MODEL 7
REMARK VINA RESULT:      -8.5      1.828      3.744
REMARK  Name = 
REMARK  14 active torsions:
REMARK  status: ('A' for Active; 'I' for Inactive)
REMARK    1  A    between atoms: C_1  and  C_2
REMARK    2  A    between atoms: C_2  and  C_3
REMARK    3  A    between atoms: C_2  and  C_4
REMARK    4  A    between atoms: C_2  and  C_5
REMARK    5  A    between atoms: C_7  and  C_8
REMARK    6  A    between atoms: N_10  and  C_11
REMARK    7  A    between atoms: C_15  and  C_16
REMARK    8  A    between atoms: N_18  and  C_19
REMARK    9  A    between atoms: C_19  and  C_20
REMARK   10  A    between atoms: C_20  and  N_21
REMARK   11  A    between atoms: C_24  and  C_25
REMARK   12  A    between atoms: C_25  and  C_26
REMARK   13  A    between atoms: C_25  and  C_27
REMARK   14  A    between atoms: C_25  and  C_28
REMARK                            x       y       z     vdW  Elec       q    Type
REMARK                         _______ _______ _______ _____ _____    ______ ____
ROOT
ATOM      1  C   UNL     1       1.969   7.899  19.119  0.00  0.00    +0.000 C 
ATOM      2  O   UNL     1       1.505   8.033  20.240  0.00  0.00    +0.000 OA
ATOM      3  N   UNL     1       1.659   8.801  18.133  0.00  0.00    +0.000 N 
ATOM      4  H   UNL     1       1.995   8.623  17.181  0.00  0.00    +0.000 HD
ENDROOT
BRANCH   1   7
ATOM      5  C   UNL     1       3.261   4.320  19.360  0.00  0.00    +0.000 A 
ATOM      6  C   UNL     1       2.542   5.511  19.582  0.00  0.00    +0.000 A 
ATOM      7  C   UNL     1       2.807   6.683  18.856  0.00  0.00    +0.000 A 
ATOM      8  C   UNL     1       3.828   6.655  17.891  0.00  0.00    +0.000 A 
ATOM      9  C   UNL     1       4.576   5.493  17.638  0.00  0.00    +0.000 A 
ATOM     10  C   UNL     1       4.283   4.337  18.392  0.00  0.00    +0.000 A 
BRANCH   5  12
ATOM     11  C   UNL     1       2.315   3.254  21.508  0.00  0.00    +0.000 C 
ATOM     12  C   UNL     1       2.948   3.009  20.115  0.00  0.00    +0.000 C 
ATOM     13  C   UNL     1       4.245   2.202  20.318  0.00  0.00    +0.000 C 
ATOM     14  C   UNL     1       1.945   2.171  19.291  0.00  0.00    +0.000 C 
ENDBRANCH   5  12
BRANCH   9  15
ATOM     15  C   UNL     1       5.654   5.522  16.533  0.00  0.00    +0.000 C 
ATOM     16  C   UNL     1       5.203   6.442  15.378  0.00  0.00    +0.000 C 
ATOM     17  C   UNL     1       7.020   6.032  17.045  0.00  0.00    +0.000 C 
ATOM     18  C   UNL     1       5.862   4.086  15.998  0.00  0.00    +0.000 C 
ENDBRANCH   9  15
ENDBRANCH   1   7
BRANCH   3  19
ATOM     19  C   UNL     1       0.814   9.953  18.264  0.00  0.00    +0.000 A 
ATOM     20  C   UNL     1       1.250  11.195  18.778  0.00  0.00    +0.000 A 
ATOM     21  C   UNL     1       0.363  12.258  18.903  0.00  0.00    +0.000 A 
ATOM     22  C   UNL     1      -0.968  12.114  18.525  0.00  0.00    +0.000 A 
ATOM     23  C   UNL     1      -1.444  10.898  17.997  0.00  0.00    +0.000 A 
ATOM     24  C   UNL     1      -0.531   9.830  17.867  0.00  0.00    +0.000 A 
BRANCH  23  25
ATOM     25  C   UNL     1      -2.892  10.786  17.613  0.00  0.00    +0.000 C 
ATOM     26  O   UNL     1      -3.354   9.666  17.431  0.00  0.00    +0.000 OA
ATOM     27  N   UNL     1      -3.696  11.879  17.444  0.00  0.00    +0.000 N 
ATOM     28  H   UNL     1      -3.335  12.829  17.593  0.00  0.00    +0.000 HD
BRANCH  27  29
ATOM     29  C   UNL     1      -5.091  11.783  17.053  0.00  0.00    +0.000 C 
BRANCH  29  30
ATOM     30  C   UNL     1      -5.942  12.708  17.925  0.00  0.00    +0.000 C 
BRANCH  30  31
ATOM     31  N   UNL     1      -6.378  13.870  17.155  0.00  0.00    +0.000 NA
ATOM     32  H   UNL     1      -7.423  13.886  17.128  0.00  0.00    +0.000 HD
ATOM     33  H   UNL     1      -6.037  13.761  16.173  0.00  0.00    +0.000 HD
ENDBRANCH  30  31
ENDBRANCH  29  30
ENDBRANCH  27  29
ENDBRANCH  23  25
ENDBRANCH   3  19
TORSDOF 8
ENDMDL
MODEL 8
REMARK VINA RESULT:      -8.5      1.759      3.769
REMARK  Name = 
REMARK  14 active torsions:
REMARK  status: ('A' for Active; 'I' for Inactive)
REMARK    1  A    between atoms: C_1  and  C_2
REMARK    2  A    between atoms: C_2  and  C_3
REMARK    3  A    between atoms: C_2  and  C_4
REMARK    4  A    between atoms: C_2  and  C_5
REMARK    5  A    between atoms: C_7  and  C_8
REMARK    6  A    between atoms: N_10  and  C_11
REMARK    7  A    between atoms: C_15  and  C_16
REMARK    8  A    between atoms: N_18  and  C_19
REMARK    9  A    between atoms: C_19  and  C_20
REMARK   10  A    between atoms: C_20  and  N_21
REMARK   11  A    between atoms: C_24  and  C_25
REMARK   12  A    between atoms: C_25  and  C_26
REMARK   13  A    between atoms: C_25  and  C_27
REMARK   14  A    between atoms: C_25  and  C_28
REMARK                            x       y       z     vdW  Elec       q    Type
REMARK                         _______ _______ _______ _____ _____    ______ ____
ROOT
ATOM      1  C   UNL     1       1.990   7.985  19.135  0.00  0.00    +0.000 C 
ATOM      2  O   UNL     1       1.558   8.140  20.266  0.00  0.00    +0.000 OA
ATOM      3  N   UNL     1       1.648   8.866  18.140  0.00  0.00    +0.000 N 
ATOM      4  H   UNL     1       1.957   8.669  17.182  0.00  0.00    +0.000 HD
ENDROOT
BRANCH   1   7
ATOM      5  C   UNL     1       3.244   4.391  19.344  0.00  0.00    +0.000 A 
ATOM      6  C   UNL     1       2.530   5.584  19.569  0.00  0.00    +0.000 A 
ATOM      7  C   UNL     1       2.825   6.767  18.872  0.00  0.00    +0.000 A 
ATOM      8  C   UNL     1       3.871   6.747  17.935  0.00  0.00    +0.000 A 
ATOM      9  C   UNL     1       4.616   5.583  17.681  0.00  0.00    +0.000 A 
ATOM     10  C   UNL     1       4.292   4.416  18.405  0.00  0.00    +0.000 A 
BRANCH   5  12
ATOM     11  C   UNL     1       1.850   2.223  19.302  0.00  0.00    +0.000 C 
ATOM     12  C   UNL     1       2.899   3.068  20.066  0.00  0.00    +0.000 C 
ATOM     13  C   UNL     1       2.334   3.373  21.467  0.00  0.00    +0.000 C 
ATOM     14  C   UNL     1       4.177   2.211  20.202  0.00  0.00    +0.000 C 
ENDBRANCH   5  12
BRANCH   9  15
ATOM     15  C   UNL     1       5.723   5.622  16.606  0.00  0.00    +0.000 C 
ATOM     16  C   UNL     1       6.105   4.185  16.188  0.00  0.00    +0.000 C 
ATOM     17  C   UNL     1       5.296   6.392  15.336  0.00  0.00    +0.000 C 
ATOM     18  C   UNL     1       6.965   6.336  17.191  0.00  0.00    +0.000 C 
ENDBRANCH   9  15
ENDBRANCH   1   7
BRANCH   3  19
ATOM     19  C   UNL     1       0.803  10.018  18.273  0.00  0.00    +0.000 A 
ATOM     20  C   UNL     1       1.248  11.268  18.758  0.00  0.00    +0.000 A 
ATOM     21  C   UNL     1       0.360  12.331  18.887  0.00  0.00    +0.000 A 
ATOM     22  C   UNL     1      -0.978  12.178  18.540  0.00  0.00    +0.000 A 
ATOM     23  C   UNL     1      -1.463  10.953  18.041  0.00  0.00    +0.000 A 
ATOM     24  C   UNL     1      -0.549   9.886  17.908  0.00  0.00    +0.000 A 
BRANCH  23  25
ATOM     25  C   UNL     1      -2.918  10.833  17.690  0.00  0.00    +0.000 C 
ATOM     26  O   UNL     1      -3.422   9.716  17.703  0.00  0.00    +0.000 OA
ATOM     27  N   UNL     1      -3.685  11.911  17.347  0.00  0.00    +0.000 N 
ATOM     28  H   UNL     1      -3.289  12.859  17.331  0.00  0.00    +0.000 HD
BRANCH  27  29
ATOM     29  C   UNL     1      -5.088  11.802  16.985  0.00  0.00    +0.000 C 
BRANCH  29  30
ATOM     30  C   UNL     1      -5.963  12.264  18.153  0.00  0.00    +0.000 C 
BRANCH  30  31
ATOM     31  N   UNL     1      -5.227  13.203  18.996  0.00  0.00    +0.000 NA
ATOM     32  H   UNL     1      -4.923  12.711  19.867  0.00  0.00    +0.000 HD
ATOM     33  H   UNL     1      -5.877  13.972  19.276  0.00  0.00    +0.000 HD
ENDBRANCH  30  31
ENDBRANCH  29  30
ENDBRANCH  27  29
ENDBRANCH  23  25
ENDBRANCH   3  19
TORSDOF 8
ENDMDL
MODEL 9
REMARK VINA RESULT:      -8.5      1.897      3.745
REMARK  Name = 
REMARK  14 active torsions:
REMARK  status: ('A' for Active; 'I' for Inactive)
REMARK    1  A    between atoms: C_1  and  C_2
REMARK    2  A    between atoms: C_2  and  C_3
REMARK    3  A    between atoms: C_2  and  C_4
REMARK    4  A    between atoms: C_2  and  C_5
REMARK    5  A    between atoms: C_7  and  C_8
REMARK    6  A    between atoms: N_10  and  C_11
REMARK    7  A    between atoms: C_15  and  C_16
REMARK    8  A    between atoms: N_18  and  C_19
REMARK    9  A    between atoms: C_19  and  C_20
REMARK   10  A    between atoms: C_20  and  N_21
REMARK   11  A    between atoms: C_24  and  C_25
REMARK   12  A    between atoms: C_25  and  C_26
REMARK   13  A    between atoms: C_25  and  C_27
REMARK   14  A    between atoms: C_25  and  C_28
REMARK                            x       y       z     vdW  Elec       q    Type
REMARK                         _______ _______ _______ _____ _____    ______ ____
ROOT
ATOM      1  C   UNL     1       2.029   7.926  19.096  0.00  0.00    +0.000 C 
ATOM      2  O   UNL     1       1.650   8.101  20.243  0.00  0.00    +0.000 OA
ATOM      3  N   UNL     1       1.653   8.795  18.105  0.00  0.00    +0.000 N 
ATOM      4  H   UNL     1       1.917   8.582  17.137  0.00  0.00    +0.000 HD
ENDROOT
BRANCH   1   7
ATOM      5  C   UNL     1       3.251   4.320  19.299  0.00  0.00    +0.000 A 
ATOM      6  C   UNL     1       2.560   5.523  19.537  0.00  0.00    +0.000 A 
ATOM      7  C   UNL     1       2.839   6.695  18.815  0.00  0.00    +0.000 A 
ATOM      8  C   UNL     1       3.847   6.652  17.837  0.00  0.00    +0.000 A 
ATOM      9  C   UNL     1       4.568   5.477  17.568  0.00  0.00    +0.000 A 
ATOM     10  C   UNL     1       4.261   4.322  18.318  0.00  0.00    +0.000 A 
BRANCH   5  12
ATOM     11  C   UNL     1       4.177   2.150  20.337  0.00  0.00    +0.000 C 
ATOM     12  C   UNL     1       2.921   3.010  20.051  0.00  0.00    +0.000 C 
ATOM     13  C   UNL     1       1.945   2.162  19.213  0.00  0.00    +0.000 C 
ATOM     14  C   UNL     1       2.271   3.351  21.410  0.00  0.00    +0.000 C 
ENDBRANCH   5  12
BRANCH   9  15
ATOM     15  C   UNL     1       5.632   5.490  16.449  0.00  0.00    +0.000 C 
ATOM     16  C   UNL     1       5.802   4.071  15.863  0.00  0.00    +0.000 C 
ATOM     17  C   UNL     1       5.267   6.445  15.290  0.00  0.00    +0.000 C 
ATOM     18  C   UNL     1       6.978   5.968  17.043  0.00  0.00    +0.000 C 
ENDBRANCH   9  15
ENDBRANCH   1   7
BRANCH   3  19
ATOM     19  C   UNL     1       0.826   9.958  18.258  0.00  0.00    +0.000 A 
ATOM     20  C   UNL     1       1.298  11.203  18.731  0.00  0.00    +0.000 A 
ATOM     21  C   UNL     1       0.427  12.277  18.881  0.00  0.00    +0.000 A 
ATOM     22  C   UNL     1      -0.921  12.141  18.567  0.00  0.00    +0.000 A 
ATOM     23  C   UNL     1      -1.433  10.922  18.081  0.00  0.00    +0.000 A 
ATOM     24  C   UNL     1      -0.537   9.843  17.926  0.00  0.00    +0.000 A 
BRANCH  23  25
ATOM     25  C   UNL     1      -2.898  10.820  17.766  0.00  0.00    +0.000 C 
ATOM     26  O   UNL     1      -3.328   9.741  17.376  0.00  0.00    +0.000 OA
ATOM     27  N   UNL     1      -3.752  11.881  17.883  0.00  0.00    +0.000 N 
ATOM     28  H   UNL     1      -3.419  12.796  18.210  0.00  0.00    +0.000 HD
BRANCH  27  29
ATOM     29  C   UNL     1      -5.166  11.798  17.561  0.00  0.00    +0.000 C 
BRANCH  29  30
ATOM     30  C   UNL     1      -5.974  11.526  18.832  0.00  0.00    +0.000 C 
BRANCH  30  31
ATOM     31  N   UNL     1      -7.017  10.538  18.567  0.00  0.00    +0.000 NA
ATOM     32  H   UNL     1      -6.919  10.198  17.583  0.00  0.00    +0.000 HD
ATOM     33  H   UNL     1      -7.946  11.009  18.649  0.00  0.00    +0.000 HD
ENDBRANCH  30  31
ENDBRANCH  29  30
ENDBRANCH  27  29
ENDBRANCH  23  25
ENDBRANCH   3  19
TORSDOF 8
ENDMDL
