MODEL 1
REMARK VINA RESULT:      -7.2      0.000      0.000
REMARK  Name = 
REMARK  15 active torsions:
REMARK  status: ('A' for Active; 'I' for Inactive)
REMARK    1  A    between atoms: C_1  and  C_2
REMARK    2  A    between atoms: C_4  and  S_5
REMARK    3  A    between atoms: S_5  and  C_6
REMARK    4  A    between atoms: C_6  and  C_7
REMARK    5  A    between atoms: C_9  and  C_10
REMARK    6  A    between atoms: C_13  and  C_14
REMARK    7  A    between atoms: C_14  and  C_15
REMARK    8  A    between atoms: C_14  and  C_16
REMARK    9  A    between atoms: C_14  and  C_17
REMARK   10  A    between atoms: C_24  and  O_25
REMARK   11  A    between atoms: O_25  and  C_26
REMARK   12  A    between atoms: C_26  and  C_27
REMARK   13  A    between atoms: C_26  and  C_28
REMARK   14  A    between atoms: C_26  and  C_29
REMARK   15  A    between atoms: C_29  and  O_31
REMARK                            x       y       z     vdW  Elec       q    Type
REMARK                         _______ _______ _______ _____ _____    ______ ____
ROOT
ATOM      1  S   UNL     1       3.410   5.585  18.381  0.00  0.00    +0.000 S 
ENDROOT
BRANCH   1   5
ATOM      2  C   UNL     1       0.945   8.635  21.551  0.00  0.00    +0.000 C 
ATOM      3  C   UNL     1       1.436   8.644  20.124  0.00  0.00    +0.000 A 
ATOM      4  C   UNL     1       2.078   7.434  19.770  0.00  0.00    +0.000 A 
ATOM      5  C   UNL     1       2.664   7.194  18.525  0.00  0.00    +0.000 A 
ATOM      6  C   UNL     1       2.609   8.207  17.580  0.00  0.00    +0.000 A 
ATOM      7  C   UNL     1       1.973   9.421  17.894  0.00  0.00    +0.000 A 
ATOM      8  C   UNL     1       1.392   9.671  19.157  0.00  0.00    +0.000 A 
BRANCH   8   9
ATOM      9  O   UNL     1       0.878  10.951  19.202  0.00  0.00    +0.000 OA
BRANCH   9  10
ATOM     10  C   UNL     1      -0.533  11.208  19.137  0.00  0.00    +0.000 C 
ATOM     11  C   UNL     1      -1.163  10.173  18.195  0.00  0.00    +0.000 C 
ATOM     12  C   UNL     1      -1.109  11.470  20.542  0.00  0.00    +0.000 C 
BRANCH  10  13
ATOM     13  C   UNL     1      -0.833  12.542  18.401  0.00  0.00    +0.000 C 
ATOM     14  O   UNL     1      -0.504  13.655  18.827  0.00  0.00    +0.000 OA
BRANCH  13  15
ATOM     15  O   UNL     1      -1.502  12.397  17.230  0.00  0.00    +0.000 OA
ATOM     16  H   UNL     1      -2.295  12.973  17.226  0.00  0.00    +0.000 HD
ENDBRANCH  13  15
ENDBRANCH  10  13
ENDBRANCH   9  10
ENDBRANCH   8   9
ENDBRANCH   1   5
BRANCH   1  17
ATOM     17  C   UNL     1       4.562   5.721  16.986  0.00  0.00    +0.000 C 
BRANCH  17  18
ATOM     18  C   UNL     1       5.860   6.264  17.476  0.00  0.00    +0.000 A 
ATOM     19  N   UNL     1       6.184   7.536  17.550  0.00  0.00    +0.000 NA
ATOM     20  C   UNL     1       7.497   7.645  18.018  0.00  0.00    +0.000 A 
ATOM     21  N   UNL     1       8.156   6.516  18.324  0.00  0.00    +0.000 NA
ATOM     22  S   UNL     1       7.136   5.246  18.001  0.00  0.00    +0.000 S 
BRANCH  20  23
ATOM     23  C   UNL     1       8.103   8.970  18.174  0.00  0.00    +0.000 A 
ATOM     24  C   UNL     1       7.723  10.006  17.326  0.00  0.00    +0.000 A 
ATOM     25  C   UNL     1       8.289  11.279  17.468  0.00  0.00    +0.000 A 
ATOM     26  C   UNL     1       9.256  11.545  18.454  0.00  0.00    +0.000 A 
ATOM     27  C   UNL     1       9.627  10.485  19.296  0.00  0.00    +0.000 A 
ATOM     28  C   UNL     1       9.057   9.216  19.163  0.00  0.00    +0.000 A 
BRANCH  26  29
ATOM     29  C   UNL     1       9.878  12.937  18.632  0.00  0.00    +0.000 C 
ATOM     30  C   UNL     1      10.983  13.220  17.590  0.00  0.00    +0.000 C 
ATOM     31  C   UNL     1       8.783  14.015  18.485  0.00  0.00    +0.000 C 
ATOM     32  C   UNL     1      10.518  13.083  20.030  0.00  0.00    +0.000 C 
ENDBRANCH  26  29
ENDBRANCH  20  23
ENDBRANCH  17  18
ENDBRANCH   1  17
TORSDOF 9
ENDMDL
MODEL 2
REMARK VINA RESULT:      -7.0      5.822     10.962
REMARK  Name = 
REMARK  15 active torsions:
REMARK  status: ('A' for Active; 'I' for Inactive)
REMARK    1  A    between atoms: C_1  and  C_2
REMARK    2  A    between atoms: C_4  and  S_5
REMARK    3  A    between atoms: S_5  and  C_6
REMARK    4  A    between atoms: C_6  and  C_7
REMARK    5  A    between atoms: C_9  and  C_10
REMARK    6  A    between atoms: C_13  and  C_14
REMARK    7  A    between atoms: C_14  and  C_15
REMARK    8  A    between atoms: C_14  and  C_16
REMARK    9  A    between atoms: C_14  and  C_17
REMARK   10  A    between atoms: C_24  and  O_25
REMARK   11  A    between atoms: O_25  and  C_26
REMARK   12  A    between atoms: C_26  and  C_27
REMARK   13  A    between atoms: C_26  and  C_28
REMARK   14  A    between atoms: C_26  and  C_29
REMARK   15  A    between atoms: C_29  and  O_31
REMARK                            x       y       z     vdW  Elec       q    Type
REMARK                         _______ _______ _______ _____ _____    ______ ____
ROOT
ATOM      1  S   UNL     1       1.775  10.249  18.183  0.00  0.00    +0.000 S 
ENDROOT
BRANCH   1   5
ATOM      2  C   UNL     1       4.823   6.611  16.480  0.00  0.00    +0.000 C 
ATOM      3  C   UNL     1       3.815   6.818  17.584  0.00  0.00    +0.000 A 
ATOM      4  C   UNL     1       3.237   8.109  17.548  0.00  0.00    +0.000 A 
ATOM      5  C   UNL     1       2.309   8.578  18.480  0.00  0.00    +0.000 A 
ATOM      6  C   UNL     1       1.933   7.720  19.503  0.00  0.00    +0.000 A 
ATOM      7  C   UNL     1       2.480   6.427  19.566  0.00  0.00    +0.000 A 
ATOM      8  C   UNL     1       3.429   5.956  18.632  0.00  0.00    +0.000 A 
BRANCH   8   9
ATOM      9  O   UNL     1       3.825   4.674  18.958  0.00  0.00    +0.000 OA
BRANCH   9  10
ATOM     10  C   UNL     1       3.478   3.541  18.147  0.00  0.00    +0.000 C 
ATOM     11  C   UNL     1       2.009   3.688  17.726  0.00  0.00    +0.000 C 
ATOM     12  C   UNL     1       4.584   3.247  17.115  0.00  0.00    +0.000 C 
BRANCH  10  13
ATOM     13  C   UNL     1       3.448   2.234  18.984  0.00  0.00    +0.000 C 
ATOM     14  O   UNL     1       4.313   1.922  19.811  0.00  0.00    +0.000 OA
BRANCH  13  15
ATOM     15  O   UNL     1       2.380   1.434  18.734  0.00  0.00    +0.000 OA
ATOM     16  H   UNL     1       2.686   0.568  18.393  0.00  0.00    +0.000 HD
ENDBRANCH  13  15
ENDBRANCH  10  13
ENDBRANCH   9  10
ENDBRANCH   8   9
ENDBRANCH   1   5
BRANCH   1  17
ATOM     17  C   UNL     1      -0.034  10.199  18.325  0.00  0.00    +0.000 C 
BRANCH  17  18
ATOM     18  C   UNL     1      -0.445  10.895  19.577  0.00  0.00    +0.000 A 
ATOM     19  N   UNL     1      -1.654  11.332  19.855  0.00  0.00    +0.000 NA
ATOM     20  C   UNL     1      -1.634  11.965  21.101  0.00  0.00    +0.000 A 
ATOM     21  N   UNL     1      -0.475  11.994  21.778  0.00  0.00    +0.000 NA
ATOM     22  S   UNL     1       0.665  11.234  20.840  0.00  0.00    +0.000 S 
BRANCH  20  23
ATOM     23  C   UNL     1      -2.864  12.557  21.632  0.00  0.00    +0.000 A 
ATOM     24  C   UNL     1      -3.801  13.102  20.759  0.00  0.00    +0.000 A 
ATOM     25  C   UNL     1      -4.985  13.664  21.252  0.00  0.00    +0.000 A 
ATOM     26  C   UNL     1      -5.257  13.705  22.632  0.00  0.00    +0.000 A 
ATOM     27  C   UNL     1      -4.297  13.154  23.495  0.00  0.00    +0.000 A 
ATOM     28  C   UNL     1      -3.119  12.583  23.005  0.00  0.00    +0.000 A 
BRANCH  26  29
ATOM     29  C   UNL     1      -6.554  14.308  23.189  0.00  0.00    +0.000 C 
ATOM     30  C   UNL     1      -7.302  13.325  24.117  0.00  0.00    +0.000 C 
ATOM     31  C   UNL     1      -6.226  15.583  23.994  0.00  0.00    +0.000 C 
ATOM     32  C   UNL     1      -7.522  14.689  22.049  0.00  0.00    +0.000 C 
ENDBRANCH  26  29
ENDBRANCH  20  23
ENDBRANCH  17  18
ENDBRANCH   1  17
TORSDOF 9
ENDMDL
MODEL 3
REMARK VINA RESULT:      -7.0      5.919     10.589
REMARK  Name = 
REMARK  15 active torsions:
REMARK  status: ('A' for Active; 'I' for Inactive)
REMARK    1  A    between atoms: C_1  and  C_2
REMARK    2  A    between atoms: C_4  and  S_5
REMARK    3  A    between atoms: S_5  and  C_6
REMARK    4  A    between atoms: C_6  and  C_7
REMARK    5  A    between atoms: C_9  and  C_10
REMARK    6  A    between atoms: C_13  and  C_14
REMARK    7  A    between atoms: C_14  and  C_15
REMARK    8  A    between atoms: C_14  and  C_16
REMARK    9  A    between atoms: C_14  and  C_17
REMARK   10  A    between atoms: C_24  and  O_25
REMARK   11  A    between atoms: O_25  and  C_26
REMARK   12  A    between atoms: C_26  and  C_27
REMARK   13  A    between atoms: C_26  and  C_28
REMARK   14  A    between atoms: C_26  and  C_29
REMARK   15  A    between atoms: C_29  and  O_31
REMARK                            x       y       z     vdW  Elec       q    Type
REMARK                         _______ _______ _______ _____ _____    ______ ____
ROOT
ATOM      1  S   UNL     1       1.712   9.878  18.055  0.00  0.00    +0.000 S 
ENDROOT
BRANCH   1   5
ATOM      2  C   UNL     1       4.769   6.113  16.673  0.00  0.00    +0.000 C 
ATOM      3  C   UNL     1       3.815   6.442  17.795  0.00  0.00    +0.000 A 
ATOM      4  C   UNL     1       3.199   7.704  17.623  0.00  0.00    +0.000 A 
ATOM      5  C   UNL     1       2.308   8.273  18.538  0.00  0.00    +0.000 A 
ATOM      6  C   UNL     1       2.011   7.549  19.683  0.00  0.00    +0.000 A 
ATOM      7  C   UNL     1       2.598   6.288  19.883  0.00  0.00    +0.000 A 
ATOM      8  C   UNL     1       3.509   5.718  18.967  0.00  0.00    +0.000 A 
BRANCH   8   9
ATOM      9  O   UNL     1       3.959   4.499  19.435  0.00  0.00    +0.000 OA
BRANCH   9  10
ATOM     10  C   UNL     1       3.233   3.282  19.205  0.00  0.00    +0.000 C 
ATOM     11  C   UNL     1       2.220   3.108  20.345  0.00  0.00    +0.000 C 
ATOM     12  C   UNL     1       2.808   3.167  17.729  0.00  0.00    +0.000 C 
BRANCH  10  13
ATOM     13  C   UNL     1       4.144   2.037  19.387  0.00  0.00    +0.000 C 
ATOM     14  O   UNL     1       4.918   1.880  20.339  0.00  0.00    +0.000 OA
BRANCH  13  15
ATOM     15  O   UNL     1       4.031   1.113  18.400  0.00  0.00    +0.000 OA
ATOM     16  H   UNL     1       3.983   1.560  17.530  0.00  0.00    +0.000 HD
ENDBRANCH  13  15
ENDBRANCH  10  13
ENDBRANCH   9  10
ENDBRANCH   8   9
ENDBRANCH   1   5
BRANCH   1  17
ATOM     17  C   UNL     1      -0.055   9.869  18.469  0.00  0.00    +0.000 C 
BRANCH  17  18
ATOM     18  C   UNL     1      -0.269  10.659  19.715  0.00  0.00    +0.000 A 
ATOM     19  N   UNL     1      -1.320  11.402  19.986  0.00  0.00    +0.000 NA
ATOM     20  C   UNL     1      -1.135  12.016  21.227  0.00  0.00    +0.000 A 
ATOM     21  N   UNL     1      -0.010  11.744  21.908  0.00  0.00    +0.000 NA
ATOM     22  S   UNL     1       0.890  10.703  20.978  0.00  0.00    +0.000 S 
BRANCH  20  23
ATOM     23  C   UNL     1      -2.165  12.916  21.751  0.00  0.00    +0.000 A 
ATOM     24  C   UNL     1      -3.057  13.528  20.874  0.00  0.00    +0.000 A 
ATOM     25  C   UNL     1      -4.052  14.384  21.361  0.00  0.00    +0.000 A 
ATOM     26  C   UNL     1      -4.174  14.660  22.736  0.00  0.00    +0.000 A 
ATOM     27  C   UNL     1      -3.262  14.035  23.601  0.00  0.00    +0.000 A 
ATOM     28  C   UNL     1      -2.274  13.172  23.119  0.00  0.00    +0.000 A 
BRANCH  26  29
ATOM     29  C   UNL     1      -5.265  15.587  23.288  0.00  0.00    +0.000 C 
ATOM     30  C   UNL     1      -6.510  14.805  23.763  0.00  0.00    +0.000 C 
ATOM     31  C   UNL     1      -4.706  16.385  24.486  0.00  0.00    +0.000 C 
ATOM     32  C   UNL     1      -5.735  16.591  22.213  0.00  0.00    +0.000 C 
ENDBRANCH  26  29
ENDBRANCH  20  23
ENDBRANCH  17  18
ENDBRANCH   1  17
TORSDOF 9
ENDMDL
MODEL 4
REMARK VINA RESULT:      -6.9      4.845      9.505
REMARK  Name = 
REMARK  15 active torsions:
REMARK  status: ('A' for Active; 'I' for Inactive)
REMARK    1  A    between atoms: C_1  and  C_2
REMARK    2  A    between atoms: C_4  and  S_5
REMARK    3  A    between atoms: S_5  and  C_6
REMARK    4  A    between atoms: C_6  and  C_7
REMARK    5  A    between atoms: C_9  and  C_10
REMARK    6  A    between atoms: C_13  and  C_14
REMARK    7  A    between atoms: C_14  and  C_15
REMARK    8  A    between atoms: C_14  and  C_16
REMARK    9  A    between atoms: C_14  and  C_17
REMARK   10  A    between atoms: C_24  and  O_25
REMARK   11  A    between atoms: O_25  and  C_26
REMARK   12  A    between atoms: C_26  and  C_27
REMARK   13  A    between atoms: C_26  and  C_28
REMARK   14  A    between atoms: C_26  and  C_29
REMARK   15  A    between atoms: C_29  and  O_31
REMARK                            x       y       z     vdW  Elec       q    Type
REMARK                         _______ _______ _______ _____ _____    ______ ____
ROOT
ATOM      1  S   UNL     1       3.058  15.042  19.824  0.00  0.00    +0.000 S 
ENDROOT
BRANCH   1   5
ATOM      2  C   UNL     1       7.752  16.589  20.827  0.00  0.00    +0.000 C 
ATOM      3  C   UNL     1       7.009  15.862  19.732  0.00  0.00    +0.000 A 
ATOM      4  C   UNL     1       5.630  15.729  20.016  0.00  0.00    +0.000 A 
ATOM      5  C   UNL     1       4.721  15.058  19.194  0.00  0.00    +0.000 A 
ATOM      6  C   UNL     1       5.207  14.492  18.025  0.00  0.00    +0.000 A 
ATOM      7  C   UNL     1       6.571  14.611  17.706  0.00  0.00    +0.000 A 
ATOM      8  C   UNL     1       7.493  15.276  18.543  0.00  0.00    +0.000 A 
BRANCH   8   9
ATOM      9  O   UNL     1       8.764  15.205  18.008  0.00  0.00    +0.000 OA
BRANCH   9  10
ATOM     10  C   UNL     1       9.795  14.400  18.601  0.00  0.00    +0.000 C 
ATOM     11  C   UNL     1      10.922  15.333  19.064  0.00  0.00    +0.000 C 
ATOM     12  C   UNL     1       9.190  13.343  19.545  0.00  0.00    +0.000 C 
BRANCH  10  13
ATOM     13  C   UNL     1      10.513  13.525  17.538  0.00  0.00    +0.000 C 
ATOM     14  O   UNL     1      11.429  13.931  16.814  0.00  0.00    +0.000 OA
BRANCH  13  15
ATOM     15  O   UNL     1      10.048  12.253  17.454  0.00  0.00    +0.000 OA
ATOM     16  H   UNL     1       9.489  12.156  16.655  0.00  0.00    +0.000 HD
ENDBRANCH  13  15
ENDBRANCH  10  13
ENDBRANCH   9  10
ENDBRANCH   8   9
ENDBRANCH   1   5
BRANCH   1  17
ATOM     17  C   UNL     1       2.008  14.717  18.380  0.00  0.00    +0.000 C 
BRANCH  17  18
ATOM     18  C   UNL     1       1.337  13.397  18.552  0.00  0.00    +0.000 A 
ATOM     19  N   UNL     1       1.941  12.238  18.695  0.00  0.00    +0.000 NA
ATOM     20  C   UNL     1       0.977  11.230  18.786  0.00  0.00    +0.000 A 
ATOM     21  N   UNL     1      -0.318  11.587  18.747  0.00  0.00    +0.000 NA
ATOM     22  S   UNL     1      -0.370  13.237  18.563  0.00  0.00    +0.000 S 
BRANCH  20  23
ATOM     23  C   UNL     1       1.398   9.836  18.934  0.00  0.00    +0.000 A 
ATOM     24  C   UNL     1       1.226   9.189  20.155  0.00  0.00    +0.000 A 
ATOM     25  C   UNL     1       1.617   7.853  20.308  0.00  0.00    +0.000 A 
ATOM     26  C   UNL     1       2.200   7.134  19.249  0.00  0.00    +0.000 A 
ATOM     27  C   UNL     1       2.368   7.806  18.029  0.00  0.00    +0.000 A 
ATOM     28  C   UNL     1       1.969   9.136  17.869  0.00  0.00    +0.000 A 
BRANCH  26  29
ATOM     29  C   UNL     1       2.625   5.666  19.396  0.00  0.00    +0.000 C 
ATOM     30  C   UNL     1       2.071   5.025  20.687  0.00  0.00    +0.000 C 
ATOM     31  C   UNL     1       2.106   4.855  18.189  0.00  0.00    +0.000 C 
ATOM     32  C   UNL     1       4.163   5.537  19.442  0.00  0.00    +0.000 C 
ENDBRANCH  26  29
ENDBRANCH  20  23
ENDBRANCH  17  18
ENDBRANCH   1  17
TORSDOF 9
ENDMDL
MODEL 5
REMARK VINA RESULT:      -6.9      5.988     11.147
REMARK  Name = 
REMARK  15 active torsions:
REMARK  status: ('A' for Active; 'I' for Inactive)
REMARK    1  A    between atoms: C_1  and  C_2
REMARK    2  A    between atoms: C_4  and  S_5
REMARK    3  A    between atoms: S_5  and  C_6
REMARK    4  A    between atoms: C_6  and  C_7
REMARK    5  A    between atoms: C_9  and  C_10
REMARK    6  A    between atoms: C_13  and  C_14
REMARK    7  A    between atoms: C_14  and  C_15
REMARK    8  A    between atoms: C_14  and  C_16
REMARK    9  A    between atoms: C_14  and  C_17
REMARK   10  A    between atoms: C_24  and  O_25
REMARK   11  A    between atoms: O_25  and  C_26
REMARK   12  A    between atoms: C_26  and  C_27
REMARK   13  A    between atoms: C_26  and  C_28
REMARK   14  A    between atoms: C_26  and  C_29
REMARK   15  A    between atoms: C_29  and  O_31
REMARK                            x       y       z     vdW  Elec       q    Type
REMARK                         _______ _______ _______ _____ _____    ______ ____
ROOT
ATOM      1  S   UNL     1       1.366   9.889  18.236  0.00  0.00    +0.000 S 
ENDROOT
BRANCH   1   5
ATOM      2  C   UNL     1       4.582   6.298  16.757  0.00  0.00    +0.000 C 
ATOM      3  C   UNL     1       3.654   6.579  17.913  0.00  0.00    +0.000 A 
ATOM      4  C   UNL     1       2.960   7.802  17.759  0.00  0.00    +0.000 A 
ATOM      5  C   UNL     1       2.073   8.325  18.703  0.00  0.00    +0.000 A 
ATOM      6  C   UNL     1       1.862   7.594  19.863  0.00  0.00    +0.000 A 
ATOM      7  C   UNL     1       2.529   6.370  20.047  0.00  0.00    +0.000 A 
ATOM      8  C   UNL     1       3.435   5.847  19.100  0.00  0.00    +0.000 A 
BRANCH   8   9
ATOM      9  O   UNL     1       3.973   4.659  19.555  0.00  0.00    +0.000 OA
BRANCH   9  10
ATOM     10  C   UNL     1       3.333   3.395  19.320  0.00  0.00    +0.000 C 
ATOM     11  C   UNL     1       4.208   2.296  19.939  0.00  0.00    +0.000 C 
ATOM     12  C   UNL     1       1.824   3.482  19.615  0.00  0.00    +0.000 C 
BRANCH  10  13
ATOM     13  C   UNL     1       3.357   3.021  17.813  0.00  0.00    +0.000 C 
ATOM     14  O   UNL     1       2.342   2.857  17.126  0.00  0.00    +0.000 OA
BRANCH  13  15
ATOM     15  O   UNL     1       4.601   2.877  17.292  0.00  0.00    +0.000 OA
ATOM     16  H   UNL     1       5.273   3.016  17.992  0.00  0.00    +0.000 HD
ENDBRANCH  13  15
ENDBRANCH  10  13
ENDBRANCH   9  10
ENDBRANCH   8   9
ENDBRANCH   1   5
BRANCH   1  17
ATOM     17  C   UNL     1       0.737  10.604  19.781  0.00  0.00    +0.000 C 
BRANCH  17  18
ATOM     18  C   UNL     1      -0.624  11.162  19.542  0.00  0.00    +0.000 A 
ATOM     19  N   UNL     1      -1.402  11.711  20.449  0.00  0.00    +0.000 NA
ATOM     20  C   UNL     1      -2.612  12.075  19.851  0.00  0.00    +0.000 A 
ATOM     21  N   UNL     1      -2.760  11.852  18.535  0.00  0.00    +0.000 NA
ATOM     22  S   UNL     1      -1.364  11.134  17.995  0.00  0.00    +0.000 S 
BRANCH  20  23
ATOM     23  C   UNL     1      -3.663  12.695  20.661  0.00  0.00    +0.000 A 
ATOM     24  C   UNL     1      -3.457  12.895  22.023  0.00  0.00    +0.000 A 
ATOM     25  C   UNL     1      -4.449  13.494  22.808  0.00  0.00    +0.000 A 
ATOM     26  C   UNL     1      -5.678  13.898  22.254  0.00  0.00    +0.000 A 
ATOM     27  C   UNL     1      -5.866  13.683  20.879  0.00  0.00    +0.000 A 
ATOM     28  C   UNL     1      -4.873  13.095  20.091  0.00  0.00    +0.000 A 
BRANCH  26  29
ATOM     29  C   UNL     1      -6.773  14.566  23.097  0.00  0.00    +0.000 C 
ATOM     30  C   UNL     1      -7.916  15.130  22.226  0.00  0.00    +0.000 C 
ATOM     31  C   UNL     1      -7.371  13.534  24.077  0.00  0.00    +0.000 C 
ATOM     32  C   UNL     1      -6.199  15.740  23.919  0.00  0.00    +0.000 C 
ENDBRANCH  26  29
ENDBRANCH  20  23
ENDBRANCH  17  18
ENDBRANCH   1  17
TORSDOF 9
ENDMDL
MODEL 6
REMARK VINA RESULT:      -6.9      5.786      9.242
REMARK  Name = 
REMARK  15 active torsions:
REMARK  status: ('A' for Active; 'I' for Inactive)
REMARK    1  A    between atoms: C_1  and  C_2
REMARK    2  A    between atoms: C_4  and  S_5
REMARK    3  A    between atoms: S_5  and  C_6
REMARK    4  A    between atoms: C_6  and  C_7
REMARK    5  A    between atoms: C_9  and  C_10
REMARK    6  A    between atoms: C_13  and  C_14
REMARK    7  A    between atoms: C_14  and  C_15
REMARK    8  A    between atoms: C_14  and  C_16
REMARK    9  A    between atoms: C_14  and  C_17
REMARK   10  A    between atoms: C_24  and  O_25
REMARK   11  A    between atoms: O_25  and  C_26
REMARK   12  A    between atoms: C_26  and  C_27
REMARK   13  A    between atoms: C_26  and  C_28
REMARK   14  A    between atoms: C_26  and  C_29
REMARK   15  A    between atoms: C_29  and  O_31
REMARK                            x       y       z     vdW  Elec       q    Type
REMARK                         _______ _______ _______ _____ _____    ______ ____
ROOT
ATOM      1  S   UNL     1       3.202   4.172  20.879  0.00  0.00    +0.000 S 
ENDROOT
BRANCH   1   5
ATOM      2  C   UNL     1       7.385   5.053  18.204  0.00  0.00    +0.000 C 
ATOM      3  C   UNL     1       6.015   4.455  17.998  0.00  0.00    +0.000 A 
ATOM      4  C   UNL     1       5.226   4.502  19.171  0.00  0.00    +0.000 A 
ATOM      5  C   UNL     1       3.936   3.976  19.270  0.00  0.00    +0.000 A 
ATOM      6  C   UNL     1       3.399   3.373  18.143  0.00  0.00    +0.000 A 
ATOM      7  C   UNL     1       4.150   3.314  16.957  0.00  0.00    +0.000 A 
ATOM      8  C   UNL     1       5.460   3.832  16.859  0.00  0.00    +0.000 A 
BRANCH   8   9
ATOM      9  O   UNL     1       5.974   3.601  15.599  0.00  0.00    +0.000 OA
BRANCH   9  10
ATOM     10  C   UNL     1       5.790   4.530  14.520  0.00  0.00    +0.000 C 
ATOM     11  C   UNL     1       5.125   3.784  13.355  0.00  0.00    +0.000 C 
ATOM     12  C   UNL     1       5.233   5.870  15.039  0.00  0.00    +0.000 C 
BRANCH  10  13
ATOM     13  C   UNL     1       7.150   4.954  13.900  0.00  0.00    +0.000 C 
ATOM     14  O   UNL     1       7.479   4.720  12.731  0.00  0.00    +0.000 OA
BRANCH  13  15
ATOM     15  O   UNL     1       7.974   5.610  14.755  0.00  0.00    +0.000 OA
ATOM     16  H   UNL     1       8.421   4.969  15.345  0.00  0.00    +0.000 HD
ENDBRANCH  13  15
ENDBRANCH  10  13
ENDBRANCH   9  10
ENDBRANCH   8   9
ENDBRANCH   1   5
BRANCH   1  17
ATOM     17  C   UNL     1       1.501   4.718  20.559  0.00  0.00    +0.000 C 
BRANCH  17  18
ATOM     18  C   UNL     1       1.483   6.201  20.417  0.00  0.00    +0.000 A 
ATOM     19  N   UNL     1       0.687   7.027  21.061  0.00  0.00    +0.000 NA
ATOM     20  C   UNL     1       0.940   8.332  20.629  0.00  0.00    +0.000 A 
ATOM     21  N   UNL     1       1.907   8.521  19.717  0.00  0.00    +0.000 NA
ATOM     22  S   UNL     1       2.528   7.028  19.339  0.00  0.00    +0.000 S 
BRANCH  20  23
ATOM     23  C   UNL     1       0.166   9.443  21.188  0.00  0.00    +0.000 A 
ATOM     24  C   UNL     1      -0.205  10.506  20.369  0.00  0.00    +0.000 A 
ATOM     25  C   UNL     1      -0.952  11.570  20.887  0.00  0.00    +0.000 A 
ATOM     26  C   UNL     1      -1.338  11.605  22.239  0.00  0.00    +0.000 A 
ATOM     27  C   UNL     1      -0.951  10.525  23.048  0.00  0.00    +0.000 A 
ATOM     28  C   UNL     1      -0.214   9.456  22.532  0.00  0.00    +0.000 A 
BRANCH  26  29
ATOM     29  C   UNL     1      -2.167  12.758  22.822  0.00  0.00    +0.000 C 
ATOM     30  C   UNL     1      -1.295  13.769  23.598  0.00  0.00    +0.000 C 
ATOM     31  C   UNL     1      -2.881  13.509  21.678  0.00  0.00    +0.000 C 
ATOM     32  C   UNL     1      -3.239  12.230  23.800  0.00  0.00    +0.000 C 
ENDBRANCH  26  29
ENDBRANCH  20  23
ENDBRANCH  17  18
ENDBRANCH   1  17
TORSDOF 9
ENDMDL
MODEL 7
REMARK VINA RESULT:      -6.8      5.975     11.228
REMARK  Name = 
REMARK  15 active torsions:
REMARK  status: ('A' for Active; 'I' for Inactive)
REMARK    1  A    between atoms: C_1  and  C_2
REMARK    2  A    between atoms: C_4  and  S_5
REMARK    3  A    between atoms: S_5  and  C_6
REMARK    4  A    between atoms: C_6  and  C_7
REMARK    5  A    between atoms: C_9  and  C_10
REMARK    6  A    between atoms: C_13  and  C_14
REMARK    7  A    between atoms: C_14  and  C_15
REMARK    8  A    between atoms: C_14  and  C_16
REMARK    9  A    between atoms: C_14  and  C_17
REMARK   10  A    between atoms: C_24  and  O_25
REMARK   11  A    between atoms: O_25  and  C_26
REMARK   12  A    between atoms: C_26  and  C_27
REMARK   13  A    between atoms: C_26  and  C_28
REMARK   14  A    between atoms: C_26  and  C_29
REMARK   15  A    between atoms: C_29  and  O_31
REMARK                            x       y       z     vdW  Elec       q    Type
REMARK                         _______ _______ _______ _____ _____    ______ ____
ROOT
ATOM      1  S   UNL     1       1.294   9.950  18.181  0.00  0.00    +0.000 S 
ENDROOT
BRANCH   1   5
ATOM      2  C   UNL     1       4.547   6.325  16.873  0.00  0.00    +0.000 C 
ATOM      3  C   UNL     1       3.617   6.652  18.015  0.00  0.00    +0.000 A 
ATOM      4  C   UNL     1       2.909   7.859  17.802  0.00  0.00    +0.000 A 
ATOM      5  C   UNL     1       2.018   8.418  18.722  0.00  0.00    +0.000 A 
ATOM      6  C   UNL     1       1.815   7.741  19.915  0.00  0.00    +0.000 A 
ATOM      7  C   UNL     1       2.495   6.534  20.158  0.00  0.00    +0.000 A 
ATOM      8  C   UNL     1       3.406   5.976  19.236  0.00  0.00    +0.000 A 
BRANCH   8   9
ATOM      9  O   UNL     1       3.956   4.817  19.748  0.00  0.00    +0.000 OA
BRANCH   9  10
ATOM     10  C   UNL     1       3.371   3.528  19.510  0.00  0.00    +0.000 C 
ATOM     11  C   UNL     1       1.886   3.601  19.890  0.00  0.00    +0.000 C 
ATOM     12  C   UNL     1       3.826   2.961  18.152  0.00  0.00    +0.000 C 
BRANCH  10  13
ATOM     13  C   UNL     1       3.911   2.469  20.510  0.00  0.00    +0.000 C 
ATOM     14  O   UNL     1       4.928   1.793  20.318  0.00  0.00    +0.000 OA
BRANCH  13  15
ATOM     15  O   UNL     1       3.165   2.330  21.634  0.00  0.00    +0.000 OA
ATOM     16  H   UNL     1       2.460   3.011  21.652  0.00  0.00    +0.000 HD
ENDBRANCH  13  15
ENDBRANCH  10  13
ENDBRANCH   9  10
ENDBRANCH   8   9
ENDBRANCH   1   5
BRANCH   1  17
ATOM     17  C   UNL     1       0.732  10.769  19.699  0.00  0.00    +0.000 C 
BRANCH  17  18
ATOM     18  C   UNL     1      -0.673  11.232  19.513  0.00  0.00    +0.000 A 
ATOM     19  N   UNL     1      -1.406  11.849  20.413  0.00  0.00    +0.000 NA
ATOM     20  C   UNL     1      -2.678  12.083  19.881  0.00  0.00    +0.000 A 
ATOM     21  N   UNL     1      -2.917  11.696  18.618  0.00  0.00    +0.000 NA
ATOM     22  S   UNL     1      -1.529  10.983  18.049  0.00  0.00    +0.000 S 
BRANCH  20  23
ATOM     23  C   UNL     1      -3.695  12.747  20.700  0.00  0.00    +0.000 A 
ATOM     24  C   UNL     1      -4.901  13.134  20.123  0.00  0.00    +0.000 A 
ATOM     25  C   UNL     1      -5.885  13.762  20.895  0.00  0.00    +0.000 A 
ATOM     26  C   UNL     1      -5.684  14.030  22.262  0.00  0.00    +0.000 A 
ATOM     27  C   UNL     1      -4.459  13.635  22.823  0.00  0.00    +0.000 A 
ATOM     28  C   UNL     1      -3.479  12.998  22.057  0.00  0.00    +0.000 A 
BRANCH  26  29
ATOM     29  C   UNL     1      -6.755  14.708  23.126  0.00  0.00    +0.000 C 
ATOM     30  C   UNL     1      -7.877  15.342  22.275  0.00  0.00    +0.000 C 
ATOM     31  C   UNL     1      -7.392  13.666  24.071  0.00  0.00    +0.000 C 
ATOM     32  C   UNL     1      -6.141  15.833  23.988  0.00  0.00    +0.000 C 
ENDBRANCH  26  29
ENDBRANCH  20  23
ENDBRANCH  17  18
ENDBRANCH   1  17
TORSDOF 9
ENDMDL
MODEL 8
REMARK VINA RESULT:      -6.8      5.714     10.590
REMARK  Name = 
REMARK  15 active torsions:
REMARK  status: ('A' for Active; 'I' for Inactive)
REMARK    1  A    between atoms: C_1  and  C_2
REMARK    2  A    between atoms: C_4  and  S_5
REMARK    3  A    between atoms: S_5  and  C_6
REMARK    4  A    between atoms: C_6  and  C_7
REMARK    5  A    between atoms: C_9  and  C_10
REMARK    6  A    between atoms: C_13  and  C_14
REMARK    7  A    between atoms: C_14  and  C_15
REMARK    8  A    between atoms: C_14  and  C_16
REMARK    9  A    between atoms: C_14  and  C_17
REMARK   10  A    between atoms: C_24  and  O_25
REMARK   11  A    between atoms: O_25  and  C_26
REMARK   12  A    between atoms: C_26  and  C_27
REMARK   13  A    between atoms: C_26  and  C_28
REMARK   14  A    between atoms: C_26  and  C_29
REMARK   15  A    between atoms: C_29  and  O_31
REMARK                            x       y       z     vdW  Elec       q    Type
REMARK                         _______ _______ _______ _____ _____    ______ ____
ROOT
ATOM      1  S   UNL     1       1.360  10.091  17.924  0.00  0.00    +0.000 S 
ENDROOT
BRANCH   1   5
ATOM      2  C   UNL     1       4.493   6.209  17.190  0.00  0.00    +0.000 C 
ATOM      3  C   UNL     1       3.468   6.660  18.202  0.00  0.00    +0.000 A 
ATOM      4  C   UNL     1       2.867   7.890  17.845  0.00  0.00    +0.000 A 
ATOM      5  C   UNL     1       1.921   8.556  18.627  0.00  0.00    +0.000 A 
ATOM      6  C   UNL     1       1.548   7.969  19.827  0.00  0.00    +0.000 A 
ATOM      7  C   UNL     1       2.118   6.742  20.211  0.00  0.00    +0.000 A 
ATOM      8  C   UNL     1       3.085   6.075  19.428  0.00  0.00    +0.000 A 
BRANCH   8   9
ATOM      9  O   UNL     1       3.501   4.921  20.062  0.00  0.00    +0.000 OA
BRANCH   9  10
ATOM     10  C   UNL     1       2.877   3.652  19.818  0.00  0.00    +0.000 C 
ATOM     11  C   UNL     1       1.975   3.793  18.584  0.00  0.00    +0.000 C 
ATOM     12  C   UNL     1       3.900   2.505  19.938  0.00  0.00    +0.000 C 
BRANCH  10  13
ATOM     13  C   UNL     1       1.852   3.301  20.931  0.00  0.00    +0.000 C 
ATOM     14  O   UNL     1       2.165   3.021  22.094  0.00  0.00    +0.000 OA
BRANCH  13  15
ATOM     15  O   UNL     1       0.558   3.318  20.526  0.00  0.00    +0.000 OA
ATOM     16  H   UNL     1       0.497   3.697  19.624  0.00  0.00    +0.000 HD
ENDBRANCH  13  15
ENDBRANCH  10  13
ENDBRANCH   9  10
ENDBRANCH   8   9
ENDBRANCH   1   5
BRANCH   1  17
ATOM     17  C   UNL     1       2.082  11.384  18.974  0.00  0.00    +0.000 C 
BRANCH  17  18
ATOM     18  C   UNL     1       0.992  12.071  19.722  0.00  0.00    +0.000 A 
ATOM     19  N   UNL     1      -0.296  11.834  19.598  0.00  0.00    +0.000 NA
ATOM     20  C   UNL     1      -1.001  12.705  20.434  0.00  0.00    +0.000 A 
ATOM     21  N   UNL     1      -0.299  13.559  21.196  0.00  0.00    +0.000 NA
ATOM     22  S   UNL     1       1.309  13.311  20.863  0.00  0.00    +0.000 S 
BRANCH  20  23
ATOM     23  C   UNL     1      -2.464  12.653  20.465  0.00  0.00    +0.000 A 
ATOM     24  C   UNL     1      -3.158  12.104  19.391  0.00  0.00    +0.000 A 
ATOM     25  C   UNL     1      -4.557  12.041  19.410  0.00  0.00    +0.000 A 
ATOM     26  C   UNL     1      -5.298  12.535  20.499  0.00  0.00    +0.000 A 
ATOM     27  C   UNL     1      -4.578  13.088  21.570  0.00  0.00    +0.000 A 
ATOM     28  C   UNL     1      -3.182  13.144  21.558  0.00  0.00    +0.000 A 
BRANCH  26  29
ATOM     29  C   UNL     1      -6.830  12.464  20.543  0.00  0.00    +0.000 C 
ATOM     30  C   UNL     1      -7.401  12.978  21.883  0.00  0.00    +0.000 C 
ATOM     31  C   UNL     1      -7.419  13.322  19.403  0.00  0.00    +0.000 C 
ATOM     32  C   UNL     1      -7.322  11.012  20.361  0.00  0.00    +0.000 C 
ENDBRANCH  26  29
ENDBRANCH  20  23
ENDBRANCH  17  18
ENDBRANCH   1  17
TORSDOF 9
ENDMDL
MODEL 9
REMARK VINA RESULT:      -6.8      6.050     10.864
REMARK  Name = 
REMARK  15 active torsions:
REMARK  status: ('A' for Active; 'I' for Inactive)
REMARK    1  A    between atoms: C_1  and  C_2
REMARK    2  A    between atoms: C_4  and  S_5
REMARK    3  A    between atoms: S_5  and  C_6
REMARK    4  A    between atoms: C_6  and  C_7
REMARK    5  A    between atoms: C_9  and  C_10
REMARK    6  A    between atoms: C_13  and  C_14
REMARK    7  A    between atoms: C_14  and  C_15
REMARK    8  A    between atoms: C_14  and  C_16
REMARK    9  A    between atoms: C_14  and  C_17
REMARK   10  A    between atoms: C_24  and  O_25
REMARK   11  A    between atoms: O_25  and  C_26
REMARK   12  A    between atoms: C_26  and  C_27
REMARK   13  A    between atoms: C_26  and  C_28
REMARK   14  A    between atoms: C_26  and  C_29
REMARK   15  A    between atoms: C_29  and  O_31
REMARK                            x       y       z     vdW  Elec       q    Type
REMARK                         _______ _______ _______ _____ _____    ______ ____
ROOT
ATOM      1  S   UNL     1       0.585  10.065  18.869  0.00  0.00    +0.000 S 
ENDROOT
BRANCH   1   5
ATOM      2  C   UNL     1       1.974   5.651  20.872  0.00  0.00    +0.000 C 
ATOM      3  C   UNL     1       2.362   6.542  19.718  0.00  0.00    +0.000 A 
ATOM      4  C   UNL     1       1.587   7.724  19.668  0.00  0.00    +0.000 A 
ATOM      5  C   UNL     1       1.708   8.700  18.675  0.00  0.00    +0.000 A 
ATOM      6  C   UNL     1       2.651   8.491  17.679  0.00  0.00    +0.000 A 
ATOM      7  C   UNL     1       3.445   7.332  17.700  0.00  0.00    +0.000 A 
ATOM      8  C   UNL     1       3.315   6.339  18.696  0.00  0.00    +0.000 A 
BRANCH   8   9
ATOM      9  O   UNL     1       4.185   5.296  18.448  0.00  0.00    +0.000 OA
BRANCH   9  10
ATOM     10  C   UNL     1       3.770   4.106  17.760  0.00  0.00    +0.000 C 
ATOM     11  C   UNL     1       2.257   4.195  17.523  0.00  0.00    +0.000 C 
ATOM     12  C   UNL     1       4.744   3.768  16.615  0.00  0.00    +0.000 C 
BRANCH  10  13
ATOM     13  C   UNL     1       3.884   2.855  18.674  0.00  0.00    +0.000 C 
ATOM     14  O   UNL     1       2.947   2.081  18.904  0.00  0.00    +0.000 OA
BRANCH  13  15
ATOM     15  O   UNL     1       5.112   2.670  19.219  0.00  0.00    +0.000 OA
ATOM     16  H   UNL     1       5.193   3.195  20.042  0.00  0.00    +0.000 HD
ENDBRANCH  13  15
ENDBRANCH  10  13
ENDBRANCH   9  10
ENDBRANCH   8   9
ENDBRANCH   1   5
BRANCH   1  17
ATOM     17  C   UNL     1       1.199  10.981  20.311  0.00  0.00    +0.000 C 
BRANCH  17  18
ATOM     18  C   UNL     1       0.098  11.123  21.305  0.00  0.00    +0.000 A 
ATOM     19  N   UNL     1      -0.801  12.083  21.327  0.00  0.00    +0.000 NA
ATOM     20  C   UNL     1      -1.639  11.897  22.430  0.00  0.00    +0.000 A 
ATOM     21  N   UNL     1      -1.425  10.827  23.214  0.00  0.00    +0.000 NA
ATOM     22  S   UNL     1      -0.117  10.014  22.594  0.00  0.00    +0.000 S 
BRANCH  20  23
ATOM     23  C   UNL     1      -2.719  12.851  22.689  0.00  0.00    +0.000 A 
ATOM     24  C   UNL     1      -2.484  13.956  23.502  0.00  0.00    +0.000 A 
ATOM     25  C   UNL     1      -3.506  14.880  23.752  0.00  0.00    +0.000 A 
ATOM     26  C   UNL     1      -4.791  14.717  23.203  0.00  0.00    +0.000 A 
ATOM     27  C   UNL     1      -5.007  13.595  22.389  0.00  0.00    +0.000 A 
ATOM     28  C   UNL     1      -3.987  12.675  22.130  0.00  0.00    +0.000 A 
BRANCH  26  29
ATOM     29  C   UNL     1      -5.920  15.726  23.457  0.00  0.00    +0.000 C 
ATOM     30  C   UNL     1      -7.222  15.040  23.923  0.00  0.00    +0.000 C 
ATOM     31  C   UNL     1      -5.481  16.729  24.546  0.00  0.00    +0.000 C 
ATOM     32  C   UNL     1      -6.252  16.519  22.174  0.00  0.00    +0.000 C 
ENDBRANCH  26  29
ENDBRANCH  20  23
ENDBRANCH  17  18
ENDBRANCH   1  17
TORSDOF 9
ENDMDL
