MODEL 1
REMARK VINA RESULT:      -5.5      0.000      0.000
REMARK  Name = 
REMARK  12 active torsions:
REMARK  status: ('A' for Active; 'I' for Inactive)
REMARK    1  A    between atoms: C_1  and  C_2
REMARK    2  A    between atoms: C_2  and  C_3
REMARK    3  A    between atoms: C_3  and  C_4
REMARK    4  A    between atoms: C_4  and  C_5
REMARK    5  A    between atoms: C_5  and  O_6
REMARK    6  A    between atoms: O_6  and  C_7
REMARK    7  A    between atoms: C_7  and  C_8
REMARK    8  A    between atoms: C_8  and  O_9
REMARK    9  A    between atoms: C_8  and  C_10
REMARK   10  A    between atoms: C_10  and  C_11
REMARK   11  A    between atoms: C_11  and  C_12
REMARK   12  A    between atoms: N_14  and  N_15
REMARK                            x       y       z     vdW  Elec       q    Type
REMARK                         _______ _______ _______ _____ _____    ______ ____
ROOT
ATOM      1  C   UNL     1       5.333   5.213  18.682  0.00  0.00    +0.000 C 
ENDROOT
BRANCH   1   2
ATOM      2  O   UNL     1       6.273   5.067  19.749  0.00  0.00    +0.000 OA
ATOM      3  H   UNL     1       6.223   4.136  20.048  0.00  0.00    +0.000 HD
ENDBRANCH   1   2
BRANCH   1   4
ATOM      4  C   UNL     1       4.628   3.883  18.387  0.00  0.00    +0.000 C 
BRANCH   4   5
ATOM      5  O   UNL     1       3.911   3.973  17.153  0.00  0.00    +0.000 OA
BRANCH   5   6
ATOM      6  C   UNL     1       2.691   3.233  17.218  0.00  0.00    +0.000 C 
BRANCH   6   7
ATOM      7  C   UNL     1       1.684   3.997  18.067  0.00  0.00    +0.000 C 
BRANCH   7   8
ATOM      8  C   UNL     1       1.017   3.067  19.079  0.00  0.00    +0.000 C 
BRANCH   8  10
ATOM      9  C   UNL     1       1.695   5.022  20.504  0.00  0.00    +0.000 C 
ATOM     10  C   UNL     1       1.084   3.628  20.497  0.00  0.00    +0.000 C 
ENDBRANCH   8  10
ENDBRANCH   7   8
ENDBRANCH   6   7
ENDBRANCH   5   6
ENDBRANCH   4   5
ENDBRANCH   1   4
BRANCH   1  11
ATOM     11  C   UNL     1       6.064   5.731  17.445  0.00  0.00    +0.000 C 
BRANCH  11  12
ATOM     12  C   UNL     1       7.136   4.770  16.932  0.00  0.00    +0.000 C 
BRANCH  12  13
ATOM     13  C   UNL     1       7.105   4.664  15.433  0.00  0.00    +0.000 C 
ATOM     14  O   UNL     1       7.710   5.429  14.670  0.00  0.00    +0.000 OA
ATOM     15  N   UNL     1       6.288   3.647  14.969  0.00  0.00    +0.000 N 
ATOM     16  H   UNL     1       5.999   2.899  15.601  0.00  0.00    +0.000 HD
BRANCH  15  17
ATOM     17  N   UNL     1       6.157   3.449  13.579  0.00  0.00    +0.000 NA
ATOM     18  H   UNL     1       5.205   3.079  13.426  0.00  0.00    +0.000 HD
ATOM     19  H   UNL     1       6.764   2.669  13.315  0.00  0.00    +0.000 HD
ENDBRANCH  15  17
ENDBRANCH  12  13
ENDBRANCH  11  12
ENDBRANCH   1  11
TORSDOF 11
ENDMDL
MODEL 2
REMARK VINA RESULT:      -5.4      1.329      2.030
REMARK  Name = 
REMARK  12 active torsions:
REMARK  status: ('A' for Active; 'I' for Inactive)
REMARK    1  A    between atoms: C_1  and  C_2
REMARK    2  A    between atoms: C_2  and  C_3
REMARK    3  A    between atoms: C_3  and  C_4
REMARK    4  A    between atoms: C_4  and  C_5
REMARK    5  A    between atoms: C_5  and  O_6
REMARK    6  A    between atoms: O_6  and  C_7
REMARK    7  A    between atoms: C_7  and  C_8
REMARK    8  A    between atoms: C_8  and  O_9
REMARK    9  A    between atoms: C_8  and  C_10
REMARK   10  A    between atoms: C_10  and  C_11
REMARK   11  A    between atoms: C_11  and  C_12
REMARK   12  A    between atoms: N_14  and  N_15
REMARK                            x       y       z     vdW  Elec       q    Type
REMARK                         _______ _______ _______ _____ _____    ______ ____
ROOT
ATOM      1  C   UNL     1       7.171   5.112  17.928  0.00  0.00    +0.000 C 
ENDROOT
BRANCH   1   2
ATOM      2  O   UNL     1       8.056   4.146  17.358  0.00  0.00    +0.000 OA
ATOM      3  H   UNL     1       7.998   4.244  16.386  0.00  0.00    +0.000 HD
ENDBRANCH   1   2
BRANCH   1   4
ATOM      4  C   UNL     1       5.862   4.455  18.386  0.00  0.00    +0.000 C 
BRANCH   4   5
ATOM      5  O   UNL     1       5.286   5.206  19.457  0.00  0.00    +0.000 OA
BRANCH   5   6
ATOM      6  C   UNL     1       3.868   5.292  19.313  0.00  0.00    +0.000 C 
BRANCH   6   7
ATOM      7  C   UNL     1       3.447   4.580  18.035  0.00  0.00    +0.000 C 
BRANCH   7   8
ATOM      8  C   UNL     1       1.925   4.528  17.922  0.00  0.00    +0.000 C 
BRANCH   8  10
ATOM      9  C   UNL     1       0.893   2.427  18.833  0.00  0.00    +0.000 C 
ATOM     10  C   UNL     1       1.287   3.864  19.140  0.00  0.00    +0.000 C 
ENDBRANCH   8  10
ENDBRANCH   7   8
ENDBRANCH   6   7
ENDBRANCH   5   6
ENDBRANCH   4   5
ENDBRANCH   1   4
BRANCH   1  11
ATOM     11  C   UNL     1       6.902   6.207  16.898  0.00  0.00    +0.000 C 
BRANCH  11  12
ATOM     12  C   UNL     1       5.905   5.788  15.819  0.00  0.00    +0.000 C 
BRANCH  12  13
ATOM     13  C   UNL     1       6.585   5.040  14.706  0.00  0.00    +0.000 C 
ATOM     14  O   UNL     1       7.742   5.261  14.326  0.00  0.00    +0.000 OA
ATOM     15  N   UNL     1       5.773   4.096  14.100  0.00  0.00    +0.000 N 
ATOM     16  H   UNL     1       4.929   3.772  14.574  0.00  0.00    +0.000 HD
BRANCH  15  17
ATOM     17  N   UNL     1       6.284   3.334  13.029  0.00  0.00    +0.000 NA
ATOM     18  H   UNL     1       5.469   3.035  12.468  0.00  0.00    +0.000 HD
ATOM     19  H   UNL     1       6.648   2.459  13.412  0.00  0.00    +0.000 HD
ENDBRANCH  15  17
ENDBRANCH  12  13
ENDBRANCH  11  12
ENDBRANCH   1  11
TORSDOF 11
ENDMDL
MODEL 3
REMARK VINA RESULT:      -5.3      1.674      1.787
REMARK  Name = 
REMARK  12 active torsions:
REMARK  status: ('A' for Active; 'I' for Inactive)
REMARK    1  A    between atoms: C_1  and  C_2
REMARK    2  A    between atoms: C_2  and  C_3
REMARK    3  A    between atoms: C_3  and  C_4
REMARK    4  A    between atoms: C_4  and  C_5
REMARK    5  A    between atoms: C_5  and  O_6
REMARK    6  A    between atoms: O_6  and  C_7
REMARK    7  A    between atoms: C_7  and  C_8
REMARK    8  A    between atoms: C_8  and  O_9
REMARK    9  A    between atoms: C_8  and  C_10
REMARK   10  A    between atoms: C_10  and  C_11
REMARK   11  A    between atoms: C_11  and  C_12
REMARK   12  A    between atoms: N_14  and  N_15
REMARK                            x       y       z     vdW  Elec       q    Type
REMARK                         _______ _______ _______ _____ _____    ______ ____
ROOT
ATOM      1  C   UNL     1       4.966   4.040  18.882  0.00  0.00    +0.000 C 
ENDROOT
BRANCH   1   2
ATOM      2  O   UNL     1       5.322   2.934  19.714  0.00  0.00    +0.000 OA
ATOM      3  H   UNL     1       5.529   2.185  19.119  0.00  0.00    +0.000 HD
ENDBRANCH   1   2
BRANCH   1   4
ATOM      4  C   UNL     1       3.957   3.617  17.807  0.00  0.00    +0.000 C 
BRANCH   4   5
ATOM      5  O   UNL     1       3.328   2.390  18.183  0.00  0.00    +0.000 OA
BRANCH   5   6
ATOM      6  C   UNL     1       1.925   2.436  17.917  0.00  0.00    +0.000 C 
BRANCH   6   7
ATOM      7  C   UNL     1       1.216   3.128  19.073  0.00  0.00    +0.000 C 
BRANCH   7   8
ATOM      8  C   UNL     1       1.639   2.518  20.408  0.00  0.00    +0.000 C 
BRANCH   8  10
ATOM      9  C   UNL     1       1.982   4.974  20.804  0.00  0.00    +0.000 C 
ATOM     10  C   UNL     1       2.005   3.589  21.432  0.00  0.00    +0.000 C 
ENDBRANCH   8  10
ENDBRANCH   7   8
ENDBRANCH   6   7
ENDBRANCH   5   6
ENDBRANCH   4   5
ENDBRANCH   1   4
BRANCH   1  11
ATOM     11  C   UNL     1       6.233   4.612  18.249  0.00  0.00    +0.000 C 
BRANCH  11  12
ATOM     12  C   UNL     1       6.054   6.034  17.721  0.00  0.00    +0.000 C 
BRANCH  12  13
ATOM     13  C   UNL     1       6.193   6.085  16.225  0.00  0.00    +0.000 C 
ATOM     14  O   UNL     1       5.350   6.582  15.466  0.00  0.00    +0.000 OA
ATOM     15  N   UNL     1       7.345   5.476  15.757  0.00  0.00    +0.000 N 
ATOM     16  H   UNL     1       8.119   5.294  16.397  0.00  0.00    +0.000 HD
BRANCH  15  17
ATOM     17  N   UNL     1       7.589   5.440  14.369  0.00  0.00    +0.000 NA
ATOM     18  H   UNL     1       7.382   6.387  14.011  0.00  0.00    +0.000 HD
ATOM     19  H   UNL     1       6.868   4.857  13.938  0.00  0.00    +0.000 HD
ENDBRANCH  15  17
ENDBRANCH  12  13
ENDBRANCH  11  12
ENDBRANCH   1  11
TORSDOF 11
ENDMDL
MODEL 4
REMARK VINA RESULT:      -5.3      1.676      2.223
REMARK  Name = 
REMARK  12 active torsions:
REMARK  status: ('A' for Active; 'I' for Inactive)
REMARK    1  A    between atoms: C_1  and  C_2
REMARK    2  A    between atoms: C_2  and  C_3
REMARK    3  A    between atoms: C_3  and  C_4
REMARK    4  A    between atoms: C_4  and  C_5
REMARK    5  A    between atoms: C_5  and  O_6
REMARK    6  A    between atoms: O_6  and  C_7
REMARK    7  A    between atoms: C_7  and  C_8
REMARK    8  A    between atoms: C_8  and  O_9
REMARK    9  A    between atoms: C_8  and  C_10
REMARK   10  A    between atoms: C_10  and  C_11
REMARK   11  A    between atoms: C_11  and  C_12
REMARK   12  A    between atoms: N_14  and  N_15
REMARK                            x       y       z     vdW  Elec       q    Type
REMARK                         _______ _______ _______ _____ _____    ______ ____
ROOT
ATOM      1  C   UNL     1       5.643   4.284  17.842  0.00  0.00    +0.000 C 
ENDROOT
BRANCH   1   2
ATOM      2  O   UNL     1       4.891   3.087  17.637  0.00  0.00    +0.000 OA
ATOM      3  H   UNL     1       4.044   3.196  18.118  0.00  0.00    +0.000 HD
ENDBRANCH   1   2
BRANCH   1   4
ATOM      4  C   UNL     1       4.718   5.468  18.150  0.00  0.00    +0.000 C 
BRANCH   4   5
ATOM      5  O   UNL     1       4.269   5.399  19.506  0.00  0.00    +0.000 OA
BRANCH   5   6
ATOM      6  C   UNL     1       2.878   5.706  19.598  0.00  0.00    +0.000 C 
BRANCH   6   7
ATOM      7  C   UNL     1       2.141   5.053  18.436  0.00  0.00    +0.000 C 
BRANCH   7   8
ATOM      8  C   UNL     1       1.346   3.840  18.916  0.00  0.00    +0.000 C 
BRANCH   8  10
ATOM      9  C   UNL     1       1.360   2.727  21.167  0.00  0.00    +0.000 C 
ATOM     10  C   UNL     1       0.949   3.965  20.385  0.00  0.00    +0.000 C 
ENDBRANCH   8  10
ENDBRANCH   7   8
ENDBRANCH   6   7
ENDBRANCH   5   6
ENDBRANCH   4   5
ENDBRANCH   1   4
BRANCH   1  11
ATOM     11  C   UNL     1       6.487   4.558  16.599  0.00  0.00    +0.000 C 
BRANCH  11  12
ATOM     12  C   UNL     1       5.808   4.121  15.302  0.00  0.00    +0.000 C 
BRANCH  12  13
ATOM     13  C   UNL     1       6.650   4.458  14.102  0.00  0.00    +0.000 C 
ATOM     14  O   UNL     1       6.529   3.916  12.995  0.00  0.00    +0.000 OA
ATOM     15  N   UNL     1       7.620   5.411  14.360  0.00  0.00    +0.000 N 
ATOM     16  H   UNL     1       7.545   6.002  15.189  0.00  0.00    +0.000 HD
BRANCH  15  17
ATOM     17  N   UNL     1       8.489   5.807  13.322  0.00  0.00    +0.000 NA
ATOM     18  H   UNL     1       8.639   4.972  12.732  0.00  0.00    +0.000 HD
ATOM     19  H   UNL     1       9.410   5.980  13.733  0.00  0.00    +0.000 HD
ENDBRANCH  15  17
ENDBRANCH  12  13
ENDBRANCH  11  12
ENDBRANCH   1  11
TORSDOF 11
ENDMDL
MODEL 5
REMARK VINA RESULT:      -5.3      1.794      2.109
REMARK  Name = 
REMARK  12 active torsions:
REMARK  status: ('A' for Active; 'I' for Inactive)
REMARK    1  A    between atoms: C_1  and  C_2
REMARK    2  A    between atoms: C_2  and  C_3
REMARK    3  A    between atoms: C_3  and  C_4
REMARK    4  A    between atoms: C_4  and  C_5
REMARK    5  A    between atoms: C_5  and  O_6
REMARK    6  A    between atoms: O_6  and  C_7
REMARK    7  A    between atoms: C_7  and  C_8
REMARK    8  A    between atoms: C_8  and  O_9
REMARK    9  A    between atoms: C_8  and  C_10
REMARK   10  A    between atoms: C_10  and  C_11
REMARK   11  A    between atoms: C_11  and  C_12
REMARK   12  A    between atoms: N_14  and  N_15
REMARK                            x       y       z     vdW  Elec       q    Type
REMARK                         _______ _______ _______ _____ _____    ______ ____
ROOT
ATOM      1  C   UNL     1       4.751   4.286  17.828  0.00  0.00    +0.000 C 
ENDROOT
BRANCH   1   2
ATOM      2  O   UNL     1       3.915   5.326  17.316  0.00  0.00    +0.000 OA
ATOM      3  H   UNL     1       2.991   5.081  17.528  0.00  0.00    +0.000 HD
ENDBRANCH   1   2
BRANCH   1   4
ATOM      4  C   UNL     1       3.920   3.057  18.219  0.00  0.00    +0.000 C 
BRANCH   4   5
ATOM      5  O   UNL     1       2.722   3.008  17.439  0.00  0.00    +0.000 OA
BRANCH   5   6
ATOM      6  C   UNL     1       1.603   2.650  18.250  0.00  0.00    +0.000 C 
BRANCH   6   7
ATOM      7  C   UNL     1       2.084   2.317  19.655  0.00  0.00    +0.000 C 
BRANCH   7   8
ATOM      8  C   UNL     1       1.302   3.116  20.696  0.00  0.00    +0.000 C 
BRANCH   8  10
ATOM      9  C   UNL     1       1.890   5.551  20.504  0.00  0.00    +0.000 C 
ATOM     10  C   UNL     1       2.130   4.261  21.274  0.00  0.00    +0.000 C 
ENDBRANCH   8  10
ENDBRANCH   7   8
ENDBRANCH   6   7
ENDBRANCH   5   6
ENDBRANCH   4   5
ENDBRANCH   1   4
BRANCH   1  11
ATOM     11  C   UNL     1       5.532   4.822  19.026  0.00  0.00    +0.000 C 
BRANCH  11  12
ATOM     12  C   UNL     1       6.737   5.672  18.627  0.00  0.00    +0.000 C 
BRANCH  12  13
ATOM     13  C   UNL     1       7.385   5.151  17.374  0.00  0.00    +0.000 C 
ATOM     14  O   UNL     1       8.143   4.173  17.340  0.00  0.00    +0.000 OA
ATOM     15  N   UNL     1       7.093   5.903  16.249  0.00  0.00    +0.000 N 
ATOM     16  H   UNL     1       6.297   6.542  16.258  0.00  0.00    +0.000 HD
BRANCH  15  17
ATOM     17  N   UNL     1       7.651   5.532  15.009  0.00  0.00    +0.000 NA
ATOM     18  H   UNL     1       8.435   6.182  14.835  0.00  0.00    +0.000 HD
ATOM     19  H   UNL     1       6.975   5.767  14.278  0.00  0.00    +0.000 HD
ENDBRANCH  15  17
ENDBRANCH  12  13
ENDBRANCH  11  12
ENDBRANCH   1  11
TORSDOF 11
ENDMDL
MODEL 6
REMARK VINA RESULT:      -5.3      1.914      2.411
REMARK  Name = 
REMARK  12 active torsions:
REMARK  status: ('A' for Active; 'I' for Inactive)
REMARK    1  A    between atoms: C_1  and  C_2
REMARK    2  A    between atoms: C_2  and  C_3
REMARK    3  A    between atoms: C_3  and  C_4
REMARK    4  A    between atoms: C_4  and  C_5
REMARK    5  A    between atoms: C_5  and  O_6
REMARK    6  A    between atoms: O_6  and  C_7
REMARK    7  A    between atoms: C_7  and  C_8
REMARK    8  A    between atoms: C_8  and  O_9
REMARK    9  A    between atoms: C_8  and  C_10
REMARK   10  A    between atoms: C_10  and  C_11
REMARK   11  A    between atoms: C_11  and  C_12
REMARK   12  A    between atoms: N_14  and  N_15
REMARK                            x       y       z     vdW  Elec       q    Type
REMARK                         _______ _______ _______ _____ _____    ______ ____
ROOT
ATOM      1  C   UNL     1       3.941   5.825  18.447  0.00  0.00    +0.000 C 
ENDROOT
BRANCH   1   2
ATOM      2  O   UNL     1       4.812   5.415  19.502  0.00  0.00    +0.000 OA
ATOM      3  H   UNL     1       4.654   6.021  20.255  0.00  0.00    +0.000 HD
ENDBRANCH   1   2
BRANCH   1   4
ATOM      4  C   UNL     1       2.471   5.655  18.852  0.00  0.00    +0.000 C 
BRANCH   4   5
ATOM      5  O   UNL     1       1.796   4.820  17.908  0.00  0.00    +0.000 OA
BRANCH   5   6
ATOM      6  C   UNL     1       1.290   3.644  18.539  0.00  0.00    +0.000 C 
BRANCH   6   7
ATOM      7  C   UNL     1       0.920   3.966  19.981  0.00  0.00    +0.000 C 
BRANCH   7   8
ATOM      8  C   UNL     1       1.253   2.791  20.898  0.00  0.00    +0.000 C 
BRANCH   8  10
ATOM      9  C   UNL     1       3.706   2.286  20.704  0.00  0.00    +0.000 C 
ATOM     10  C   UNL     1       2.627   2.948  21.546  0.00  0.00    +0.000 C 
ENDBRANCH   8  10
ENDBRANCH   7   8
ENDBRANCH   6   7
ENDBRANCH   5   6
ENDBRANCH   4   5
ENDBRANCH   1   4
BRANCH   1  11
ATOM     11  C   UNL     1       4.260   5.011  17.195  0.00  0.00    +0.000 C 
BRANCH  11  12
ATOM     12  C   UNL     1       5.164   5.752  16.210  0.00  0.00    +0.000 C 
BRANCH  12  13
ATOM     13  C   UNL     1       6.617   5.549  16.539  0.00  0.00    +0.000 C 
ATOM     14  O   UNL     1       7.525   6.301  16.162  0.00  0.00    +0.000 OA
ATOM     15  N   UNL     1       6.860   4.401  17.274  0.00  0.00    +0.000 N 
ATOM     16  H   UNL     1       6.093   3.939  17.765  0.00  0.00    +0.000 HD
BRANCH  15  17
ATOM     17  N   UNL     1       8.186   4.084  17.636  0.00  0.00    +0.000 NA
ATOM     18  H   UNL     1       8.358   3.122  17.299  0.00  0.00    +0.000 HD
ATOM     19  H   UNL     1       8.219   3.992  18.654  0.00  0.00    +0.000 HD
ENDBRANCH  15  17
ENDBRANCH  12  13
ENDBRANCH  11  12
ENDBRANCH   1  11
TORSDOF 11
ENDMDL
MODEL 7
REMARK VINA RESULT:      -5.3      1.730      2.277
REMARK  Name = 
REMARK  12 active torsions:
REMARK  status: ('A' for Active; 'I' for Inactive)
REMARK    1  A    between atoms: C_1  and  C_2
REMARK    2  A    between atoms: C_2  and  C_3
REMARK    3  A    between atoms: C_3  and  C_4
REMARK    4  A    between atoms: C_4  and  C_5
REMARK    5  A    between atoms: C_5  and  O_6
REMARK    6  A    between atoms: O_6  and  C_7
REMARK    7  A    between atoms: C_7  and  C_8
REMARK    8  A    between atoms: C_8  and  O_9
REMARK    9  A    between atoms: C_8  and  C_10
REMARK   10  A    between atoms: C_10  and  C_11
REMARK   11  A    between atoms: C_11  and  C_12
REMARK   12  A    between atoms: N_14  and  N_15
REMARK                            x       y       z     vdW  Elec       q    Type
REMARK                         _______ _______ _______ _____ _____    ______ ____
ROOT
ATOM      1  C   UNL     1       4.675   4.666  18.907  0.00  0.00    +0.000 C 
ENDROOT
BRANCH   1   2
ATOM      2  O   UNL     1       4.908   3.344  18.417  0.00  0.00    +0.000 OA
ATOM      3  H   UNL     1       4.217   3.162  17.748  0.00  0.00    +0.000 HD
ENDBRANCH   1   2
BRANCH   1   4
ATOM      4  C   UNL     1       3.725   5.435  17.981  0.00  0.00    +0.000 C 
BRANCH   4   5
ATOM      5  O   UNL     1       2.446   5.580  18.603  0.00  0.00    +0.000 OA
BRANCH   5   6
ATOM      6  C   UNL     1       2.546   5.412  20.018  0.00  0.00    +0.000 C 
BRANCH   6   7
ATOM      7  C   UNL     1       1.335   4.639  20.520  0.00  0.00    +0.000 C 
BRANCH   7   8
ATOM      8  C   UNL     1       1.747   3.256  21.021  0.00  0.00    +0.000 C 
BRANCH   8  10
ATOM      9  C   UNL     1       0.755   2.473  18.851  0.00  0.00    +0.000 C 
ATOM     10  C   UNL     1       1.850   2.246  19.881  0.00  0.00    +0.000 C 
ENDBRANCH   8  10
ENDBRANCH   7   8
ENDBRANCH   6   7
ENDBRANCH   5   6
ENDBRANCH   4   5
ENDBRANCH   1   4
BRANCH   1  11
ATOM     11  C   UNL     1       6.014   5.389  19.040  0.00  0.00    +0.000 C 
BRANCH  11  12
ATOM     12  C   UNL     1       7.094   4.830  18.115  0.00  0.00    +0.000 C 
BRANCH  12  13
ATOM     13  C   UNL     1       7.162   5.599  16.825  0.00  0.00    +0.000 C 
ATOM     14  O   UNL     1       6.907   6.806  16.721  0.00  0.00    +0.000 OA
ATOM     15  N   UNL     1       7.495   4.815  15.733  0.00  0.00    +0.000 N 
ATOM     16  H   UNL     1       7.925   3.900  15.877  0.00  0.00    +0.000 HD
BRANCH  15  17
ATOM     17  N   UNL     1       7.577   5.410  14.458  0.00  0.00    +0.000 NA
ATOM     18  H   UNL     1       7.012   6.274  14.502  0.00  0.00    +0.000 HD
ATOM     19  H   UNL     1       7.062   4.818  13.801  0.00  0.00    +0.000 HD
ENDBRANCH  15  17
ENDBRANCH  12  13
ENDBRANCH  11  12
ENDBRANCH   1  11
TORSDOF 11
ENDMDL
MODEL 8
REMARK VINA RESULT:      -5.3      2.786      3.118
REMARK  Name = 
REMARK  12 active torsions:
REMARK  status: ('A' for Active; 'I' for Inactive)
REMARK    1  A    between atoms: C_1  and  C_2
REMARK    2  A    between atoms: C_2  and  C_3
REMARK    3  A    between atoms: C_3  and  C_4
REMARK    4  A    between atoms: C_4  and  C_5
REMARK    5  A    between atoms: C_5  and  O_6
REMARK    6  A    between atoms: O_6  and  C_7
REMARK    7  A    between atoms: C_7  and  C_8
REMARK    8  A    between atoms: C_8  and  O_9
REMARK    9  A    between atoms: C_8  and  C_10
REMARK   10  A    between atoms: C_10  and  C_11
REMARK   11  A    between atoms: C_11  and  C_12
REMARK   12  A    between atoms: N_14  and  N_15
REMARK                            x       y       z     vdW  Elec       q    Type
REMARK                         _______ _______ _______ _____ _____    ______ ____
ROOT
ATOM      1  C   UNL     1       5.432   4.440  17.569  0.00  0.00    +0.000 C 
ENDROOT
BRANCH   1   2
ATOM      2  O   UNL     1       5.879   3.654  16.463  0.00  0.00    +0.000 OA
ATOM      3  H   UNL     1       5.337   3.913  15.690  0.00  0.00    +0.000 HD
ENDBRANCH   1   2
BRANCH   1   4
ATOM      4  C   UNL     1       3.947   4.185  17.858  0.00  0.00    +0.000 C 
BRANCH   4   5
ATOM      5  O   UNL     1       3.771   2.870  18.391  0.00  0.00    +0.000 OA
BRANCH   5   6
ATOM      6  C   UNL     1       2.551   2.291  17.925  0.00  0.00    +0.000 C 
BRANCH   6   7
ATOM      7  C   UNL     1       1.676   1.932  19.118  0.00  0.00    +0.000 C 
BRANCH   7   8
ATOM      8  C   UNL     1       0.830   3.130  19.546  0.00  0.00    +0.000 C 
BRANCH   8  10
ATOM      9  C   UNL     1       1.754   5.230  20.569  0.00  0.00    +0.000 C 
ATOM     10  C   UNL     1       1.368   3.780  20.819  0.00  0.00    +0.000 C 
ENDBRANCH   8  10
ENDBRANCH   7   8
ENDBRANCH   6   7
ENDBRANCH   5   6
ENDBRANCH   4   5
ENDBRANCH   1   4
BRANCH   1  11
ATOM     11  C   UNL     1       5.684   5.915  17.263  0.00  0.00    +0.000 C 
BRANCH  11  12
ATOM     12  C   UNL     1       7.122   6.350  17.541  0.00  0.00    +0.000 C 
BRANCH  12  13
ATOM     13  C   UNL     1       7.785   5.445  18.542  0.00  0.00    +0.000 C 
ATOM     14  O   UNL     1       8.283   4.347  18.261  0.00  0.00    +0.000 OA
ATOM     15  N   UNL     1       7.748   5.934  19.836  0.00  0.00    +0.000 N 
ATOM     16  H   UNL     1       7.554   6.923  20.001  0.00  0.00    +0.000 HD
BRANCH  15  17
ATOM     17  N   UNL     1       8.322   5.174  20.876  0.00  0.00    +0.000 NA
ATOM     18  H   UNL     1       9.342   5.331  20.824  0.00  0.00    +0.000 HD
ATOM     19  H   UNL     1       8.218   4.185  20.636  0.00  0.00    +0.000 HD
ENDBRANCH  15  17
ENDBRANCH  12  13
ENDBRANCH  11  12
ENDBRANCH   1  11
TORSDOF 11
ENDMDL
MODEL 9
REMARK VINA RESULT:      -5.3      2.487      3.155
REMARK  Name = 
REMARK  12 active torsions:
REMARK  status: ('A' for Active; 'I' for Inactive)
REMARK    1  A    between atoms: C_1  and  C_2
REMARK    2  A    between atoms: C_2  and  C_3
REMARK    3  A    between atoms: C_3  and  C_4
REMARK    4  A    between atoms: C_4  and  C_5
REMARK    5  A    between atoms: C_5  and  O_6
REMARK    6  A    between atoms: O_6  and  C_7
REMARK    7  A    between atoms: C_7  and  C_8
REMARK    8  A    between atoms: C_8  and  O_9
REMARK    9  A    between atoms: C_8  and  C_10
REMARK   10  A    between atoms: C_10  and  C_11
REMARK   11  A    between atoms: C_11  and  C_12
REMARK   12  A    between atoms: N_14  and  N_15
REMARK                            x       y       z     vdW  Elec       q    Type
REMARK                         _______ _______ _______ _____ _____    ______ ____
ROOT
ATOM      1  C   UNL     1       5.655   4.197  16.413  0.00  0.00    +0.000 C 
ENDROOT
BRANCH   1   2
ATOM      2  O   UNL     1       5.103   5.250  15.620  0.00  0.00    +0.000 OA
ATOM      3  H   UNL     1       4.419   5.689  16.165  0.00  0.00    +0.000 HD
ENDBRANCH   1   2
BRANCH   1   4
ATOM      4  C   UNL     1       4.791   3.932  17.652  0.00  0.00    +0.000 C 
BRANCH   4   5
ATOM      5  O   UNL     1       3.437   4.311  17.394  0.00  0.00    +0.000 OA
BRANCH   5   6
ATOM      6  C   UNL     1       2.555   3.202  17.578  0.00  0.00    +0.000 C 
BRANCH   6   7
ATOM      7  C   UNL     1       1.260   3.688  18.214  0.00  0.00    +0.000 C 
BRANCH   7   8
ATOM      8  C   UNL     1       0.857   2.782  19.375  0.00  0.00    +0.000 C 
BRANCH   8  10
ATOM      9  C   UNL     1       2.011   3.650  21.430  0.00  0.00    +0.000 C 
ATOM     10  C   UNL     1       2.006   2.571  20.358  0.00  0.00    +0.000 C 
ENDBRANCH   8  10
ENDBRANCH   7   8
ENDBRANCH   6   7
ENDBRANCH   5   6
ENDBRANCH   4   5
ENDBRANCH   1   4
BRANCH   1  11
ATOM     11  C   UNL     1       7.082   4.571  16.810  0.00  0.00    +0.000 C 
BRANCH  11  12
ATOM     12  C   UNL     1       7.269   6.069  17.044  0.00  0.00    +0.000 C 
BRANCH  12  13
ATOM     13  C   UNL     1       7.806   6.346  18.421  0.00  0.00    +0.000 C 
ATOM     14  O   UNL     1       8.336   7.413  18.758  0.00  0.00    +0.000 OA
ATOM     15  N   UNL     1       7.698   5.268  19.282  0.00  0.00    +0.000 N 
ATOM     16  H   UNL     1       7.058   4.503  19.062  0.00  0.00    +0.000 HD
BRANCH  15  17
ATOM     17  N   UNL     1       8.180   5.390  20.602  0.00  0.00    +0.000 NA
ATOM     18  H   UNL     1       9.196   5.560  20.527  0.00  0.00    +0.000 HD
ATOM     19  H   UNL     1       8.121   4.469  21.044  0.00  0.00    +0.000 HD
ENDBRANCH  15  17
ENDBRANCH  12  13
ENDBRANCH  11  12
ENDBRANCH   1  11
TORSDOF 11
ENDMDL
