MODEL 1
REMARK VINA RESULT:      -7.9      0.000      0.000
REMARK  Name = 
REMARK  5 active torsions:
REMARK  status: ('A' for Active; 'I' for Inactive)
REMARK    1  A    between atoms: C_1  and  C_2
REMARK    2  A    between atoms: C_2  and  C_3
REMARK    3  A    between atoms: C_7  and  N_8
REMARK    4  A    between atoms: N_11  and  C_12
REMARK    5  A    between atoms: C_27  and  C_28
REMARK                            x       y       z     vdW  Elec       q    Type
REMARK                         _______ _______ _______ _____ _____    ______ ____
ROOT
ATOM      1  C   UNL     1      -0.730  12.783  17.901  0.00  0.00    +0.000 C 
ATOM      2  C   UNL     1       0.103  12.616  19.190  0.00  0.00    +0.000 C 
ATOM      3  C   UNL     1       1.350  13.526  19.164  0.00  0.00    +0.000 C 
ATOM      4  C   UNL     1       0.568  11.162  19.295  0.00  0.00    +0.000 A 
ATOM      5  C   UNL     1       1.362  10.621  18.278  0.00  0.00    +0.000 A 
ATOM      6  C   UNL     1       1.836   9.322  18.367  0.00  0.00    +0.000 A 
ATOM      7  C   UNL     1       1.543   8.499  19.458  0.00  0.00    +0.000 A 
ATOM      8  C   UNL     1       0.734   9.025  20.462  0.00  0.00    +0.000 A 
ATOM      9  C   UNL     1       0.251  10.334  20.393  0.00  0.00    +0.000 A 
ATOM     10  C   UNL     1      -0.588  10.798  21.532  0.00  0.00    +0.000 C 
ATOM     11  O   UNL     1      -0.852  10.057  22.473  0.00  0.00    +0.000 OA
ATOM     12  C   UNL     1      -1.055  12.162  21.446  0.00  0.00    +0.000 A 
ATOM     13  C   UNL     1      -0.745  12.980  20.376  0.00  0.00    +0.000 A 
ATOM     14  N   UNL     1      -1.337  14.192  20.602  0.00  0.00    +0.000 N 
ATOM     15  C   UNL     1      -2.011  14.166  21.804  0.00  0.00    +0.000 A 
ATOM     16  C   UNL     1      -2.751  15.164  22.444  0.00  0.00    +0.000 A 
ATOM     17  C   UNL     1      -3.326  14.846  23.686  0.00  0.00    +0.000 A 
ATOM     18  C   UNL     1      -3.166  13.582  24.260  0.00  0.00    +0.000 A 
ATOM     19  C   UNL     1      -2.426  12.599  23.603  0.00  0.00    +0.000 A 
ATOM     20  C   UNL     1      -1.844  12.899  22.358  0.00  0.00    +0.000 A 
ATOM     21  H   UNL     1      -1.286  14.995  19.992  0.00  0.00    +0.000 HD
ENDROOT
BRANCH   7  22
ATOM     22  N   UNL     1       2.066   7.229  19.554  0.00  0.00    +0.000 N 
ATOM     23  C   UNL     1       1.729   6.363  20.685  0.00  0.00    +0.000 C 
ATOM     24  C   UNL     1       1.377   4.940  20.219  0.00  0.00    +0.000 C 
ATOM     25  N   UNL     1       2.334   4.301  19.278  0.00  0.00    +0.000 NA
ATOM     26  C   UNL     1       2.497   5.238  18.134  0.00  0.00    +0.000 C 
ATOM     27  C   UNL     1       2.904   6.692  18.473  0.00  0.00    +0.000 C 
BRANCH  25  28
ATOM     28  C   UNL     1       3.612   4.042  19.982  0.00  0.00    +0.000 C 
ATOM     29  C   UNL     1       3.620   2.611  20.572  0.00  0.00    +0.000 C 
ATOM     30  O   UNL     1       4.951   2.381  20.033  0.00  0.00    +0.000 OA
ATOM     31  C   UNL     1       4.721   3.463  19.077  0.00  0.00    +0.000 C 
ENDBRANCH  25  28
ENDBRANCH   7  22
BRANCH  17  32
ATOM     32  C   UNL     1      -4.088  15.840  24.369  0.00  0.00    +0.000 C 
ATOM     33  N   UNL     1      -4.713  16.650  24.931  0.00  0.00    +0.000 NA
ENDBRANCH  17  32
TORSDOF 3
ENDMDL
MODEL 2
REMARK VINA RESULT:      -7.3      2.897      4.551
REMARK  Name = 
REMARK  5 active torsions:
REMARK  status: ('A' for Active; 'I' for Inactive)
REMARK    1  A    between atoms: C_1  and  C_2
REMARK    2  A    between atoms: C_2  and  C_3
REMARK    3  A    between atoms: C_7  and  N_8
REMARK    4  A    between atoms: N_11  and  C_12
REMARK    5  A    between atoms: C_27  and  C_28
REMARK                            x       y       z     vdW  Elec       q    Type
REMARK                         _______ _______ _______ _____ _____    ______ ____
ROOT
ATOM      1  C   UNL     1       1.295   9.047  22.628  0.00  0.00    +0.000 C 
ATOM      2  C   UNL     1       0.596   9.023  21.253  0.00  0.00    +0.000 C 
ATOM      3  C   UNL     1      -0.740   8.251  21.324  0.00  0.00    +0.000 C 
ATOM      4  C   UNL     1       1.507   8.316  20.246  0.00  0.00    +0.000 A 
ATOM      5  C   UNL     1       1.891   6.991  20.481  0.00  0.00    +0.000 A 
ATOM      6  C   UNL     1       2.679   6.311  19.566  0.00  0.00    +0.000 A 
ATOM      7  C   UNL     1       3.125   6.908  18.384  0.00  0.00    +0.000 A 
ATOM      8  C   UNL     1       2.765   8.234  18.155  0.00  0.00    +0.000 A 
ATOM      9  C   UNL     1       1.967   8.935  19.064  0.00  0.00    +0.000 A 
ATOM     10  C   UNL     1       1.627  10.340  18.709  0.00  0.00    +0.000 C 
ATOM     11  O   UNL     1       2.043  10.855  17.677  0.00  0.00    +0.000 OA
ATOM     12  C   UNL     1       0.782  11.034  19.653  0.00  0.00    +0.000 A 
ATOM     13  C   UNL     1       0.325  10.433  20.811  0.00  0.00    +0.000 A 
ATOM     14  N   UNL     1      -0.439  11.352  21.475  0.00  0.00    +0.000 N 
ATOM     15  C   UNL     1      -0.486  12.528  20.757  0.00  0.00    +0.000 A 
ATOM     16  C   UNL     1      -1.141  13.730  21.037  0.00  0.00    +0.000 A 
ATOM     17  C   UNL     1      -1.014  14.769  20.100  0.00  0.00    +0.000 A 
ATOM     18  C   UNL     1      -0.262  14.608  18.933  0.00  0.00    +0.000 A 
ATOM     19  C   UNL     1       0.386  13.401  18.674  0.00  0.00    +0.000 A 
ATOM     20  C   UNL     1       0.272  12.351  19.602  0.00  0.00    +0.000 A 
ATOM     21  H   UNL     1      -0.910  11.202  22.355  0.00  0.00    +0.000 HD
ENDROOT
BRANCH   7  22
ATOM     22  N   UNL     1       3.863   6.200  17.461  0.00  0.00    +0.000 N 
ATOM     23  C   UNL     1       5.056   6.785  16.848  0.00  0.00    +0.000 C 
ATOM     24  C   UNL     1       6.229   5.790  16.838  0.00  0.00    +0.000 C 
ATOM     25  N   UNL     1       5.932   4.429  16.321  0.00  0.00    +0.000 NA
ATOM     26  C   UNL     1       4.775   3.919  17.104  0.00  0.00    +0.000 C 
ATOM     27  C   UNL     1       3.510   4.809  17.145  0.00  0.00    +0.000 C 
BRANCH  25  28
ATOM     28  C   UNL     1       5.639   4.510  14.870  0.00  0.00    +0.000 C 
ATOM     29  C   UNL     1       6.899   4.964  14.093  0.00  0.00    +0.000 C 
ATOM     30  O   UNL     1       6.699   3.901  13.121  0.00  0.00    +0.000 OA
ATOM     31  C   UNL     1       5.883   3.191  14.105  0.00  0.00    +0.000 C 
ENDBRANCH  25  28
ENDBRANCH   7  22
BRANCH  17  32
ATOM     32  C   UNL     1      -1.669  16.010  20.352  0.00  0.00    +0.000 C 
ATOM     33  N   UNL     1      -2.209  17.025  20.555  0.00  0.00    +0.000 NA
ENDBRANCH  17  32
TORSDOF 3
ENDMDL
MODEL 3
REMARK VINA RESULT:      -7.2      0.984      1.417
REMARK  Name = 
REMARK  5 active torsions:
REMARK  status: ('A' for Active; 'I' for Inactive)
REMARK    1  A    between atoms: C_1  and  C_2
REMARK    2  A    between atoms: C_2  and  C_3
REMARK    3  A    between atoms: C_7  and  N_8
REMARK    4  A    between atoms: N_11  and  C_12
REMARK    5  A    between atoms: C_27  and  C_28
REMARK                            x       y       z     vdW  Elec       q    Type
REMARK                         _______ _______ _______ _____ _____    ______ ____
ROOT
ATOM      1  C   UNL     1       0.028  12.900  17.852  0.00  0.00    +0.000 C 
ATOM      2  C   UNL     1       0.738  12.509  19.165  0.00  0.00    +0.000 C 
ATOM      3  C   UNL     1       2.049  13.305  19.345  0.00  0.00    +0.000 C 
ATOM      4  C   UNL     1       1.081  11.018  19.118  0.00  0.00    +0.000 A 
ATOM      5  C   UNL     1       1.912  10.538  18.100  0.00  0.00    +0.000 A 
ATOM      6  C   UNL     1       2.277   9.202  18.057  0.00  0.00    +0.000 A 
ATOM      7  C   UNL     1       1.835   8.281  19.012  0.00  0.00    +0.000 A 
ATOM      8  C   UNL     1       0.989   8.749  20.014  0.00  0.00    +0.000 A 
ATOM      9  C   UNL     1       0.613  10.094  20.077  0.00  0.00    +0.000 A 
ATOM     10  C   UNL     1      -0.278  10.487  21.202  0.00  0.00    +0.000 C 
ATOM     11  O   UNL     1      -0.673   9.663  22.020  0.00  0.00    +0.000 OA
ATOM     12  C   UNL     1      -0.632  11.887  21.257  0.00  0.00    +0.000 A 
ATOM     13  C   UNL     1      -0.174  12.798  20.324  0.00  0.00    +0.000 A 
ATOM     14  N   UNL     1      -0.688  14.020  20.659  0.00  0.00    +0.000 N 
ATOM     15  C   UNL     1      -1.458  13.908  21.797  0.00  0.00    +0.000 A 
ATOM     16  C   UNL     1      -2.170  14.880  22.504  0.00  0.00    +0.000 A 
ATOM     17  C   UNL     1      -2.867  14.465  23.651  0.00  0.00    +0.000 A 
ATOM     18  C   UNL     1      -2.851  13.132  24.070  0.00  0.00    +0.000 A 
ATOM     19  C   UNL     1      -2.136  12.176  23.348  0.00  0.00    +0.000 A 
ATOM     20  C   UNL     1      -1.434  12.573  22.196  0.00  0.00    +0.000 A 
ATOM     21  H   UNL     1      -0.527  14.884  20.162  0.00  0.00    +0.000 HD
ENDROOT
BRANCH   7  22
ATOM     22  N   UNL     1       2.250   6.969  18.983  0.00  0.00    +0.000 N 
ATOM     23  C   UNL     1       3.238   6.517  18.004  0.00  0.00    +0.000 C 
ATOM     24  C   UNL     1       4.320   5.641  18.659  0.00  0.00    +0.000 C 
ATOM     25  N   UNL     1       3.835   4.539  19.529  0.00  0.00    +0.000 NA
ATOM     26  C   UNL     1       2.932   5.157  20.537  0.00  0.00    +0.000 C 
ATOM     27  C   UNL     1       1.768   6.020  19.997  0.00  0.00    +0.000 C 
BRANCH  25  28
ATOM     28  C   UNL     1       3.143   3.527  18.697  0.00  0.00    +0.000 C 
ATOM     29  C   UNL     1       4.089   3.008  17.586  0.00  0.00    +0.000 C 
ATOM     30  O   UNL     1       3.723   1.635  17.897  0.00  0.00    +0.000 OA
ATOM     31  C   UNL     1       3.284   2.081  19.219  0.00  0.00    +0.000 C 
ENDBRANCH  25  28
ENDBRANCH   7  22
BRANCH  17  32
ATOM     32  C   UNL     1      -3.604  15.431  24.398  0.00  0.00    +0.000 C 
ATOM     33  N   UNL     1      -4.211  16.221  25.007  0.00  0.00    +0.000 NA
ENDBRANCH  17  32
TORSDOF 3
ENDMDL
MODEL 4
REMARK VINA RESULT:      -7.1      1.131      1.257
REMARK  Name = 
REMARK  5 active torsions:
REMARK  status: ('A' for Active; 'I' for Inactive)
REMARK    1  A    between atoms: C_1  and  C_2
REMARK    2  A    between atoms: C_2  and  C_3
REMARK    3  A    between atoms: C_7  and  N_8
REMARK    4  A    between atoms: N_11  and  C_12
REMARK    5  A    between atoms: C_27  and  C_28
REMARK                            x       y       z     vdW  Elec       q    Type
REMARK                         _______ _______ _______ _____ _____    ______ ____
ROOT
ATOM      1  C   UNL     1      -2.762  11.872  18.130  0.00  0.00    +0.000 C 
ATOM      2  C   UNL     1      -1.450  12.275  18.836  0.00  0.00    +0.000 C 
ATOM      3  C   UNL     1      -0.680  13.331  18.013  0.00  0.00    +0.000 C 
ATOM      4  C   UNL     1      -0.563  11.036  18.980  0.00  0.00    +0.000 A 
ATOM      5  C   UNL     1      -0.159  10.345  17.832  0.00  0.00    +0.000 A 
ATOM      6  C   UNL     1       0.680   9.246  17.928  0.00  0.00    +0.000 A 
ATOM      7  C   UNL     1       1.153   8.779  19.157  0.00  0.00    +0.000 A 
ATOM      8  C   UNL     1       0.735   9.449  20.304  0.00  0.00    +0.000 A 
ATOM      9  C   UNL     1      -0.107  10.562  20.229  0.00  0.00    +0.000 A 
ATOM     10  C   UNL     1      -0.473  11.212  21.516  0.00  0.00    +0.000 C 
ATOM     11  O   UNL     1      -0.065  10.778  22.588  0.00  0.00    +0.000 OA
ATOM     12  C   UNL     1      -1.325  12.374  21.407  0.00  0.00    +0.000 A 
ATOM     13  C   UNL     1      -1.772  12.846  20.188  0.00  0.00    +0.000 A 
ATOM     14  N   UNL     1      -2.549  13.944  20.434  0.00  0.00    +0.000 N 
ATOM     15  C   UNL     1      -2.598  14.188  21.790  0.00  0.00    +0.000 A 
ATOM     16  C   UNL     1      -3.258  15.193  22.502  0.00  0.00    +0.000 A 
ATOM     17  C   UNL     1      -3.116  15.194  23.900  0.00  0.00    +0.000 A 
ATOM     18  C   UNL     1      -2.345  14.230  24.554  0.00  0.00    +0.000 A 
ATOM     19  C   UNL     1      -1.697  13.233  23.825  0.00  0.00    +0.000 A 
ATOM     20  C   UNL     1      -1.830  13.215  22.425  0.00  0.00    +0.000 A 
ATOM     21  H   UNL     1      -3.015  14.505  19.736  0.00  0.00    +0.000 HD
ENDROOT
BRANCH   7  22
ATOM     22  N   UNL     1       2.028   7.718  19.229  0.00  0.00    +0.000 N 
ATOM     23  C   UNL     1       2.071   6.861  20.414  0.00  0.00    +0.000 C 
ATOM     24  C   UNL     1       2.101   5.371  20.030  0.00  0.00    +0.000 C 
ATOM     25  N   UNL     1       3.102   4.977  19.005  0.00  0.00    +0.000 NA
ATOM     26  C   UNL     1       2.871   5.852  17.825  0.00  0.00    +0.000 C 
ATOM     27  C   UNL     1       2.872   7.379  18.075  0.00  0.00    +0.000 C 
BRANCH  25  28
ATOM     28  C   UNL     1       4.465   5.135  19.566  0.00  0.00    +0.000 C 
ATOM     29  C   UNL     1       5.206   3.775  19.565  0.00  0.00    +0.000 C 
ATOM     30  O   UNL     1       6.385   4.404  18.991  0.00  0.00    +0.000 OA
ATOM     31  C   UNL     1       5.538   5.498  18.518  0.00  0.00    +0.000 C 
ENDBRANCH  25  28
ENDBRANCH   7  22
BRANCH  17  32
ATOM     32  C   UNL     1      -3.774  16.206  24.660  0.00  0.00    +0.000 C 
ATOM     33  N   UNL     1      -4.316  17.035  25.278  0.00  0.00    +0.000 NA
ENDBRANCH  17  32
TORSDOF 3
ENDMDL
MODEL 5
REMARK VINA RESULT:      -6.9      3.415     10.160
REMARK  Name = 
REMARK  5 active torsions:
REMARK  status: ('A' for Active; 'I' for Inactive)
REMARK    1  A    between atoms: C_1  and  C_2
REMARK    2  A    between atoms: C_2  and  C_3
REMARK    3  A    between atoms: C_7  and  N_8
REMARK    4  A    between atoms: N_11  and  C_12
REMARK    5  A    between atoms: C_27  and  C_28
REMARK                            x       y       z     vdW  Elec       q    Type
REMARK                         _______ _______ _______ _____ _____    ______ ____
ROOT
ATOM      1  C   UNL     1      -0.729   8.231  21.527  0.00  0.00    +0.000 C 
ATOM      2  C   UNL     1       0.743   8.624  21.279  0.00  0.00    +0.000 C 
ATOM      3  C   UNL     1       1.515   8.746  22.610  0.00  0.00    +0.000 C 
ATOM      4  C   UNL     1       0.782   9.982  20.574  0.00  0.00    +0.000 A 
ATOM      5  C   UNL     1       0.209  11.096  21.198  0.00  0.00    +0.000 A 
ATOM      6  C   UNL     1       0.268  12.347  20.604  0.00  0.00    +0.000 A 
ATOM      7  C   UNL     1       0.888  12.553  19.369  0.00  0.00    +0.000 A 
ATOM      8  C   UNL     1       1.439  11.443  18.732  0.00  0.00    +0.000 A 
ATOM      9  C   UNL     1       1.394  10.174  19.317  0.00  0.00    +0.000 A 
ATOM     10  C   UNL     1       2.032   9.066  18.556  0.00  0.00    +0.000 C 
ATOM     11  O   UNL     1       2.554   9.259  17.463  0.00  0.00    +0.000 OA
ATOM     12  C   UNL     1       1.992   7.770  19.193  0.00  0.00    +0.000 A 
ATOM     13  C   UNL     1       1.397   7.574  20.426  0.00  0.00    +0.000 A 
ATOM     14  N   UNL     1       1.529   6.250  20.739  0.00  0.00    +0.000 N 
ATOM     15  C   UNL     1       2.208   5.597  19.732  0.00  0.00    +0.000 A 
ATOM     16  C   UNL     1       2.576   4.254  19.617  0.00  0.00    +0.000 A 
ATOM     17  C   UNL     1       3.281   3.874  18.462  0.00  0.00    +0.000 A 
ATOM     18  C   UNL     1       3.602   4.801  17.468  0.00  0.00    +0.000 A 
ATOM     19  C   UNL     1       3.223   6.136  17.601  0.00  0.00    +0.000 A 
ATOM     20  C   UNL     1       2.515   6.534  18.749  0.00  0.00    +0.000 A 
ATOM     21  H   UNL     1       1.194   5.807  21.582  0.00  0.00    +0.000 HD
ENDROOT
BRANCH   7  22
ATOM     22  N   UNL     1       0.983  13.812  18.819  0.00  0.00    +0.000 N 
ATOM     23  C   UNL     1       0.054  14.872  19.211  0.00  0.00    +0.000 C 
ATOM     24  C   UNL     1       0.793  16.193  19.490  0.00  0.00    +0.000 C 
ATOM     25  N   UNL     1       1.759  16.636  18.452  0.00  0.00    +0.000 NA
ATOM     26  C   UNL     1       2.701  15.506  18.235  0.00  0.00    +0.000 C 
ATOM     27  C   UNL     1       2.078  14.132  17.893  0.00  0.00    +0.000 C 
BRANCH  25  28
ATOM     28  C   UNL     1       1.021  17.000  17.219  0.00  0.00    +0.000 C 
ATOM     29  C   UNL     1      -0.409  17.479  17.572  0.00  0.00    +0.000 C 
ATOM     30  O   UNL     1      -0.254  18.629  16.696  0.00  0.00    +0.000 OA
ATOM     31  C   UNL     1       1.197  18.473  16.792  0.00  0.00    +0.000 C 
ENDBRANCH  25  28
ENDBRANCH   7  22
BRANCH  17  32
ATOM     32  C   UNL     1       3.674   2.511  18.311  0.00  0.00    +0.000 C 
ATOM     33  N   UNL     1       3.997   1.397  18.182  0.00  0.00    +0.000 NA
ENDBRANCH  17  32
TORSDOF 3
ENDMDL
MODEL 6
REMARK VINA RESULT:      -6.6      5.990      7.283
REMARK  Name = 
REMARK  5 active torsions:
REMARK  status: ('A' for Active; 'I' for Inactive)
REMARK    1  A    between atoms: C_1  and  C_2
REMARK    2  A    between atoms: C_2  and  C_3
REMARK    3  A    between atoms: C_7  and  N_8
REMARK    4  A    between atoms: N_11  and  C_12
REMARK    5  A    between atoms: C_27  and  C_28
REMARK                            x       y       z     vdW  Elec       q    Type
REMARK                         _______ _______ _______ _____ _____    ______ ____
ROOT
ATOM      1  C   UNL     1      -0.346  16.660  18.382  0.00  0.00    +0.000 C 
ATOM      2  C   UNL     1       0.319  16.525  19.769  0.00  0.00    +0.000 C 
ATOM      3  C   UNL     1       0.335  17.881  20.509  0.00  0.00    +0.000 C 
ATOM      4  C   UNL     1       1.765  16.061  19.582  0.00  0.00    +0.000 A 
ATOM      5  C   UNL     1       2.647  16.848  18.832  0.00  0.00    +0.000 A 
ATOM      6  C   UNL     1       3.973  16.476  18.682  0.00  0.00    +0.000 A 
ATOM      7  C   UNL     1       4.487  15.311  19.261  0.00  0.00    +0.000 A 
ATOM      8  C   UNL     1       3.609  14.513  19.989  0.00  0.00    +0.000 A 
ATOM      9  C   UNL     1       2.268  14.873  20.155  0.00  0.00    +0.000 A 
ATOM     10  C   UNL     1       1.426  13.956  20.969  0.00  0.00    +0.000 C 
ATOM     11  O   UNL     1       1.887  12.928  21.454  0.00  0.00    +0.000 OA
ATOM     12  C   UNL     1       0.051  14.364  21.145  0.00  0.00    +0.000 A 
ATOM     13  C   UNL     1      -0.447  15.527  20.590  0.00  0.00    +0.000 A 
ATOM     14  N   UNL     1      -1.766  15.616  20.940  0.00  0.00    +0.000 N 
ATOM     15  C   UNL     1      -2.117  14.534  21.719  0.00  0.00    +0.000 A 
ATOM     16  C   UNL     1      -3.342  14.204  22.305  0.00  0.00    +0.000 A 
ATOM     17  C   UNL     1      -3.398  13.024  23.065  0.00  0.00    +0.000 A 
ATOM     18  C   UNL     1      -2.274  12.210  23.229  0.00  0.00    +0.000 A 
ATOM     19  C   UNL     1      -1.062  12.555  22.632  0.00  0.00    +0.000 A 
ATOM     20  C   UNL     1      -0.987  13.733  21.866  0.00  0.00    +0.000 A 
ATOM     21  H   UNL     1      -2.396  16.362  20.682  0.00  0.00    +0.000 HD
ENDROOT
BRANCH   7  22
ATOM     22  N   UNL     1       5.820  14.985  19.146  0.00  0.00    +0.000 N 
ATOM     23  C   UNL     1       6.425  14.760  17.833  0.00  0.00    +0.000 C 
ATOM     24  C   UNL     1       7.776  15.485  17.705  0.00  0.00    +0.000 C 
ATOM     25  N   UNL     1       8.739  15.282  18.818  0.00  0.00    +0.000 NA
ATOM     26  C   UNL     1       8.026  15.650  20.071  0.00  0.00    +0.000 C 
ATOM     27  C   UNL     1       6.675  14.945  20.340  0.00  0.00    +0.000 C 
BRANCH  25  28
ATOM     28  C   UNL     1       9.193  13.871  18.821  0.00  0.00    +0.000 C 
ATOM     29  C   UNL     1      10.259  13.648  17.721  0.00  0.00    +0.000 C 
ATOM     30  O   UNL     1      11.109  12.944  18.667  0.00  0.00    +0.000 OA
ATOM     31  C   UNL     1      10.389  13.598  19.759  0.00  0.00    +0.000 C 
ENDBRANCH  25  28
ENDBRANCH   7  22
BRANCH  17  32
ATOM     32  C   UNL     1      -4.631  12.656  23.679  0.00  0.00    +0.000 C 
ATOM     33  N   UNL     1      -5.639  12.350  24.183  0.00  0.00    +0.000 NA
ENDBRANCH  17  32
TORSDOF 3
ENDMDL
MODEL 7
REMARK VINA RESULT:      -6.5      2.883     10.507
REMARK  Name = 
REMARK  5 active torsions:
REMARK  status: ('A' for Active; 'I' for Inactive)
REMARK    1  A    between atoms: C_1  and  C_2
REMARK    2  A    between atoms: C_2  and  C_3
REMARK    3  A    between atoms: C_7  and  N_8
REMARK    4  A    between atoms: N_11  and  C_12
REMARK    5  A    between atoms: C_27  and  C_28
REMARK                            x       y       z     vdW  Elec       q    Type
REMARK                         _______ _______ _______ _____ _____    ______ ____
ROOT
ATOM      1  C   UNL     1       0.736   4.532  19.827  0.00  0.00    +0.000 C 
ATOM      2  C   UNL     1       1.947   5.456  20.078  0.00  0.00    +0.000 C 
ATOM      3  C   UNL     1       2.804   4.940  21.255  0.00  0.00    +0.000 C 
ATOM      4  C   UNL     1       1.438   6.855  20.430  0.00  0.00    +0.000 A 
ATOM      5  C   UNL     1       0.615   7.024  21.550  0.00  0.00    +0.000 A 
ATOM      6  C   UNL     1       0.174   8.285  21.919  0.00  0.00    +0.000 A 
ATOM      7  C   UNL     1       0.522   9.432  21.200  0.00  0.00    +0.000 A 
ATOM      8  C   UNL     1       1.321   9.267  20.072  0.00  0.00    +0.000 A 
ATOM      9  C   UNL     1       1.780   8.005  19.685  0.00  0.00    +0.000 A 
ATOM     10  C   UNL     1       2.644   7.949  18.475  0.00  0.00    +0.000 C 
ATOM     11  O   UNL     1       2.923   8.963  17.844  0.00  0.00    +0.000 OA
ATOM     12  C   UNL     1       3.123   6.635  18.112  0.00  0.00    +0.000 A 
ATOM     13  C   UNL     1       2.795   5.506  18.838  0.00  0.00    +0.000 A 
ATOM     14  N   UNL     1       3.401   4.440  18.234  0.00  0.00    +0.000 N 
ATOM     15  C   UNL     1       4.120   4.870  17.139  0.00  0.00    +0.000 A 
ATOM     16  C   UNL     1       4.896   4.147  16.229  0.00  0.00    +0.000 A 
ATOM     17  C   UNL     1       5.528   4.868  15.202  0.00  0.00    +0.000 A 
ATOM     18  C   UNL     1       5.388   6.254  15.093  0.00  0.00    +0.000 A 
ATOM     19  C   UNL     1       4.606   6.956  16.010  0.00  0.00    +0.000 A 
ATOM     20  C   UNL     1       3.964   6.251  17.043  0.00  0.00    +0.000 A 
ATOM     21  H   UNL     1       3.347   3.479  18.540  0.00  0.00    +0.000 HD
ENDROOT
BRANCH   7  22
ATOM     22  N   UNL     1       0.118  10.682  21.613  0.00  0.00    +0.000 N 
ATOM     23  C   UNL     1       0.397  11.866  20.800  0.00  0.00    +0.000 C 
ATOM     24  C   UNL     1      -0.842  12.770  20.677  0.00  0.00    +0.000 C 
ATOM     25  N   UNL     1      -1.541  13.102  21.946  0.00  0.00    +0.000 NA
ATOM     26  C   UNL     1      -1.857  11.809  22.609  0.00  0.00    +0.000 C 
ATOM     27  C   UNL     1      -0.679  10.833  22.838  0.00  0.00    +0.000 C 
BRANCH  25  28
ATOM     28  C   UNL     1      -0.665  13.963  22.776  0.00  0.00    +0.000 C 
ATOM     29  C   UNL     1      -0.621  15.399  22.198  0.00  0.00    +0.000 C 
ATOM     30  O   UNL     1      -0.843  15.953  23.524  0.00  0.00    +0.000 OA
ATOM     31  C   UNL     1      -1.395  14.665  23.941  0.00  0.00    +0.000 C 
ENDBRANCH  25  28
ENDBRANCH   7  22
BRANCH  17  32
ATOM     32  C   UNL     1       6.329   4.163  14.256  0.00  0.00    +0.000 C 
ATOM     33  N   UNL     1       6.983   3.590  13.477  0.00  0.00    +0.000 NA
ENDBRANCH  17  32
TORSDOF 3
ENDMDL
MODEL 8
REMARK VINA RESULT:      -6.4      5.934      7.378
REMARK  Name = 
REMARK  5 active torsions:
REMARK  status: ('A' for Active; 'I' for Inactive)
REMARK    1  A    between atoms: C_1  and  C_2
REMARK    2  A    between atoms: C_2  and  C_3
REMARK    3  A    between atoms: C_7  and  N_8
REMARK    4  A    between atoms: N_11  and  C_12
REMARK    5  A    between atoms: C_27  and  C_28
REMARK                            x       y       z     vdW  Elec       q    Type
REMARK                         _______ _______ _______ _____ _____    ______ ____
ROOT
ATOM      1  C   UNL     1      -0.222  16.602  18.223  0.00  0.00    +0.000 C 
ATOM      2  C   UNL     1       0.494  16.526  19.588  0.00  0.00    +0.000 C 
ATOM      3  C   UNL     1       0.476  17.897  20.300  0.00  0.00    +0.000 C 
ATOM      4  C   UNL     1       1.952  16.121  19.361  0.00  0.00    +0.000 A 
ATOM      5  C   UNL     1       2.772  16.929  18.565  0.00  0.00    +0.000 A 
ATOM      6  C   UNL     1       4.108  16.612  18.377  0.00  0.00    +0.000 A 
ATOM      7  C   UNL     1       4.692  15.483  18.961  0.00  0.00    +0.000 A 
ATOM      8  C   UNL     1       3.875  14.663  19.735  0.00  0.00    +0.000 A 
ATOM      9  C   UNL     1       2.526  14.969  19.941  0.00  0.00    +0.000 A 
ATOM     10  C   UNL     1       1.752  14.034  20.801  0.00  0.00    +0.000 C 
ATOM     11  O   UNL     1       2.274  13.037  21.290  0.00  0.00    +0.000 OA
ATOM     12  C   UNL     1       0.368  14.385  21.016  0.00  0.00    +0.000 A 
ATOM     13  C   UNL     1      -0.200  15.514  20.455  0.00  0.00    +0.000 A 
ATOM     14  N   UNL     1      -1.508  15.553  20.849  0.00  0.00    +0.000 N 
ATOM     15  C   UNL     1      -1.785  14.474  21.661  0.00  0.00    +0.000 A 
ATOM     16  C   UNL     1      -2.974  14.105  22.296  0.00  0.00    +0.000 A 
ATOM     17  C   UNL     1      -2.952  12.939  23.081  0.00  0.00    +0.000 A 
ATOM     18  C   UNL     1      -1.789  12.178  23.222  0.00  0.00    +0.000 A 
ATOM     19  C   UNL     1      -0.613  12.563  22.577  0.00  0.00    +0.000 A 
ATOM     20  C   UNL     1      -0.617  13.726  21.786  0.00  0.00    +0.000 A 
ATOM     21  H   UNL     1      -2.179  16.265  20.598  0.00  0.00    +0.000 HD
ENDROOT
BRANCH   7  22
ATOM     22  N   UNL     1       6.033  15.213  18.807  0.00  0.00    +0.000 N 
ATOM     23  C   UNL     1       6.963  15.373  19.924  0.00  0.00    +0.000 C 
ATOM     24  C   UNL     1       7.912  14.167  20.044  0.00  0.00    +0.000 C 
ATOM     25  N   UNL     1       8.591  13.739  18.794  0.00  0.00    +0.000 NA
ATOM     26  C   UNL     1       7.523  13.510  17.785  0.00  0.00    +0.000 C 
ATOM     27  C   UNL     1       6.535  14.674  17.535  0.00  0.00    +0.000 C 
BRANCH  25  28
ATOM     28  C   UNL     1       9.549  14.790  18.373  0.00  0.00    +0.000 C 
ATOM     29  C   UNL     1      10.668  14.950  19.432  0.00  0.00    +0.000 C 
ATOM     30  O   UNL     1      11.678  14.928  18.386  0.00  0.00    +0.000 OA
ATOM     31  C   UNL     1      10.714  14.267  17.506  0.00  0.00    +0.000 C 
ENDBRANCH  25  28
ENDBRANCH   7  22
BRANCH  17  32
ATOM     32  C   UNL     1      -4.147  12.532  23.744  0.00  0.00    +0.000 C 
ATOM     33  N   UNL     1      -5.122  12.194  24.290  0.00  0.00    +0.000 NA
ENDBRANCH  17  32
TORSDOF 3
ENDMDL
MODEL 9
REMARK VINA RESULT:      -6.3      1.053      1.100
REMARK  Name = 
REMARK  5 active torsions:
REMARK  status: ('A' for Active; 'I' for Inactive)
REMARK    1  A    between atoms: C_1  and  C_2
REMARK    2  A    between atoms: C_2  and  C_3
REMARK    3  A    between atoms: C_7  and  N_8
REMARK    4  A    between atoms: N_11  and  C_12
REMARK    5  A    between atoms: C_27  and  C_28
REMARK                            x       y       z     vdW  Elec       q    Type
REMARK                         _______ _______ _______ _____ _____    ______ ____
ROOT
ATOM      1  C   UNL     1       0.041  12.396  17.731  0.00  0.00    +0.000 C 
ATOM      2  C   UNL     1       0.752  12.056  19.058  0.00  0.00    +0.000 C 
ATOM      3  C   UNL     1       2.063  12.858  19.205  0.00  0.00    +0.000 C 
ATOM      4  C   UNL     1       1.095  10.564  19.069  0.00  0.00    +0.000 A 
ATOM      5  C   UNL     1       1.925  10.045  18.069  0.00  0.00    +0.000 A 
ATOM      6  C   UNL     1       2.289   8.707  18.078  0.00  0.00    +0.000 A 
ATOM      7  C   UNL     1       1.847   7.825  19.068  0.00  0.00    +0.000 A 
ATOM      8  C   UNL     1       1.002   8.332  20.052  0.00  0.00    +0.000 A 
ATOM      9  C   UNL     1       0.628   9.678  20.063  0.00  0.00    +0.000 A 
ATOM     10  C   UNL     1      -0.263  10.115  21.173  0.00  0.00    +0.000 C 
ATOM     11  O   UNL     1      -0.658   9.324  22.023  0.00  0.00    +0.000 OA
ATOM     12  C   UNL     1      -0.616  11.516  21.174  0.00  0.00    +0.000 A 
ATOM     13  C   UNL     1      -0.159  12.390  20.206  0.00  0.00    +0.000 A 
ATOM     14  N   UNL     1      -0.672  13.624  20.493  0.00  0.00    +0.000 N 
ATOM     15  C   UNL     1      -1.442  13.556  21.635  0.00  0.00    +0.000 A 
ATOM     16  C   UNL     1      -2.153  14.556  22.304  0.00  0.00    +0.000 A 
ATOM     17  C   UNL     1      -2.849  14.186  23.467  0.00  0.00    +0.000 A 
ATOM     18  C   UNL     1      -2.832  12.871  23.938  0.00  0.00    +0.000 A 
ATOM     19  C   UNL     1      -2.119  11.887  23.253  0.00  0.00    +0.000 A 
ATOM     20  C   UNL     1      -1.418  12.239  22.086  0.00  0.00    +0.000 A 
ATOM     21  H   UNL     1      -0.512  14.468  19.962  0.00  0.00    +0.000 HD
ENDROOT
BRANCH   7  22
ATOM     22  N   UNL     1       2.262   6.512  19.091  0.00  0.00    +0.000 N 
ATOM     23  C   UNL     1       2.830   5.926  20.305  0.00  0.00    +0.000 C 
ATOM     24  C   UNL     1       2.231   4.539  20.594  0.00  0.00    +0.000 C 
ATOM     25  N   UNL     1       2.209   3.583  19.457  0.00  0.00    +0.000 NA
ATOM     26  C   UNL     1       1.512   4.269  18.336  0.00  0.00    +0.000 C 
ATOM     27  C   UNL     1       2.058   5.654  17.915  0.00  0.00    +0.000 C 
BRANCH  25  28
ATOM     28  C   UNL     1       3.600   3.205  19.108  0.00  0.00    +0.000 C 
ATOM     29  C   UNL     1       3.682   1.690  18.798  0.00  0.00    +0.000 C 
ATOM     30  O   UNL     1       4.450   1.965  17.594  0.00  0.00    +0.000 OA
ATOM     31  C   UNL     1       3.927   3.330  17.604  0.00  0.00    +0.000 C 
ENDBRANCH  25  28
ENDBRANCH   7  22
BRANCH  17  32
ATOM     32  C   UNL     1      -3.585  15.180  24.177  0.00  0.00    +0.000 C 
ATOM     33  N   UNL     1      -4.192  15.991  24.758  0.00  0.00    +0.000 NA
ENDBRANCH  17  32
TORSDOF 3
ENDMDL
